MODEL 1
REMARK VINA RESULT:      -6.6      0.000      0.000
REMARK  Name = 
REMARK  3 active torsions:
REMARK  status: ('A' for Active; 'I' for Inactive)
REMARK    1  A    between atoms: C_1  and  C_2
REMARK    2  A    between atoms: C_13  and  C_14
REMARK    3  A    between atoms: C_17  and  C_18
REMARK                            x       y       z     vdW  Elec       q    Type
REMARK                         _______ _______ _______ _____ _____    ______ ____
ROOT
ATOM      1  C   UNL     1       0.875   9.792  19.936  0.00  0.00    +0.000 C 
ATOM      2  C   UNL     1       1.395   8.389  19.924  0.00  0.00    +0.000 A 
ATOM      3  S   UNL     1       0.943   7.335  21.181  0.00  0.00    +0.000 S 
ATOM      4  C   UNL     1       1.851   6.061  20.529  0.00  0.00    +0.000 A 
ATOM      5  N   UNL     1       1.841   4.880  21.165  0.00  0.00    +0.000 NA
ATOM      6  C   UNL     1       2.588   3.969  20.553  0.00  0.00    +0.000 A 
ATOM      7  N   UNL     1       3.321   4.142  19.449  0.00  0.00    +0.000 NA
ATOM      8  C   UNL     1       3.340   5.348  18.818  0.00  0.00    +0.000 A 
ATOM      9  N   UNL     1       4.146   5.473  17.650  0.00  0.00    +0.000 N 
ATOM     10  C   UNL     1       4.352   4.144  17.030  0.00  0.00    +0.000 C 
ATOM     11  C   UNL     1       5.130   4.295  15.728  0.00  0.00    +0.000 C 
ATOM     12  C   UNL     1       6.479   4.956  15.997  0.00  0.00    +0.000 C 
ATOM     13  C   UNL     1       6.296   6.290  16.729  0.00  0.00    +0.000 C 
ATOM     14  C   UNL     1       7.661   6.883  17.075  0.00  0.00    +0.000 C 
ATOM     15  C   UNL     1       5.426   6.126  17.994  0.00  0.00    +0.000 C 
ATOM     16  C   UNL     1       2.539   6.393  19.369  0.00  0.00    +0.000 A 
ATOM     17  C   UNL     1       2.223   7.772  18.989  0.00  0.00    +0.000 A 
ATOM     18  C   UNL     1       2.711   8.471  17.759  0.00  0.00    +0.000 C 
ENDROOT
TORSDOF 0
ENDMDL
MODEL 2
REMARK VINA RESULT:      -6.5      1.672      2.113
REMARK  Name = 
REMARK  3 active torsions:
REMARK  status: ('A' for Active; 'I' for Inactive)
REMARK    1  A    between atoms: C_1  and  C_2
REMARK    2  A    between atoms: C_13  and  C_14
REMARK    3  A    between atoms: C_17  and  C_18
REMARK                            x       y       z     vdW  Elec       q    Type
REMARK                         _______ _______ _______ _____ _____    ______ ____
ROOT
ATOM      1  C   UNL     1       0.752   6.791  21.062  0.00  0.00    +0.000 C 
ATOM      2  C   UNL     1       1.488   5.708  20.338  0.00  0.00    +0.000 A 
ATOM      3  S   UNL     1       1.222   4.089  20.792  0.00  0.00    +0.000 S 
ATOM      4  C   UNL     1       2.315   3.515  19.630  0.00  0.00    +0.000 A 
ATOM      5  N   UNL     1       2.498   2.190  19.527  0.00  0.00    +0.000 NA
ATOM      6  C   UNL     1       3.374   1.872  18.582  0.00  0.00    +0.000 A 
ATOM      7  N   UNL     1       4.060   2.716  17.805  0.00  0.00    +0.000 NA
ATOM      8  C   UNL     1       3.880   4.060  17.926  0.00  0.00    +0.000 A 
ATOM      9  N   UNL     1       4.644   4.909  17.075  0.00  0.00    +0.000 N 
ATOM     10  C   UNL     1       5.052   4.174  15.856  0.00  0.00    +0.000 C 
ATOM     11  C   UNL     1       5.784   5.114  14.905  0.00  0.00    +0.000 C 
ATOM     12  C   UNL     1       7.013   5.703  15.590  0.00  0.00    +0.000 C 
ATOM     13  C   UNL     1       6.628   6.385  16.909  0.00  0.00    +0.000 C 
ATOM     14  C   UNL     1       7.885   6.877  17.625  0.00  0.00    +0.000 C 
ATOM     15  C   UNL     1       5.808   5.441  17.815  0.00  0.00    +0.000 C 
ATOM     16  C   UNL     1       2.929   4.515  18.888  0.00  0.00    +0.000 A 
ATOM     17  C   UNL     1       2.395   5.819  19.286  0.00  0.00    +0.000 A 
ATOM     18  C   UNL     1       2.753   7.134  18.668  0.00  0.00    +0.000 C 
ENDROOT
TORSDOF 0
ENDMDL
MODEL 3
REMARK VINA RESULT:      -6.2      2.406      5.652
REMARK  Name = 
REMARK  3 active torsions:
REMARK  status: ('A' for Active; 'I' for Inactive)
REMARK    1  A    between atoms: C_1  and  C_2
REMARK    2  A    between atoms: C_13  and  C_14
REMARK    3  A    between atoms: C_17  and  C_18
REMARK                            x       y       z     vdW  Elec       q    Type
REMARK                         _______ _______ _______ _____ _____    ______ ____
ROOT
ATOM      1  C   UNL     1       2.481   1.774  19.134  0.00  0.00    +0.000 C 
ATOM      2  C   UNL     1       2.939   3.109  18.638  0.00  0.00    +0.000 A 
ATOM      3  S   UNL     1       4.401   3.206  17.772  0.00  0.00    +0.000 S 
ATOM      4  C   UNL     1       4.253   4.883  17.579  0.00  0.00    +0.000 A 
ATOM      5  N   UNL     1       5.207   5.533  16.896  0.00  0.00    +0.000 NA
ATOM      6  C   UNL     1       4.972   6.837  16.815  0.00  0.00    +0.000 A 
ATOM      7  N   UNL     1       3.946   7.504  17.354  0.00  0.00    +0.000 NA
ATOM      8  C   UNL     1       2.990   6.839  18.059  0.00  0.00    +0.000 A 
ATOM      9  N   UNL     1       1.926   7.605  18.615  0.00  0.00    +0.000 N 
ATOM     10  C   UNL     1       1.753   8.865  17.855  0.00  0.00    +0.000 C 
ATOM     11  C   UNL     1       0.550   9.633  18.390  0.00  0.00    +0.000 C 
ATOM     12  C   UNL     1       0.744   9.945  19.871  0.00  0.00    +0.000 C 
ATOM     13  C   UNL     1       1.024   8.663  20.666  0.00  0.00    +0.000 C 
ATOM     14  C   UNL     1       1.313   9.012  22.126  0.00  0.00    +0.000 C 
ATOM     15  C   UNL     1       2.186   7.857  20.048  0.00  0.00    +0.000 C 
ATOM     16  C   UNL     1       3.122   5.423  18.177  0.00  0.00    +0.000 A 
ATOM     17  C   UNL     1       2.319   4.350  18.767  0.00  0.00    +0.000 A 
ATOM     18  C   UNL     1       0.992   4.521  19.438  0.00  0.00    +0.000 C 
ENDROOT
TORSDOF 0
ENDMDL
MODEL 4
REMARK VINA RESULT:      -6.2      2.100      4.094
REMARK  Name = 
REMARK  3 active torsions:
REMARK  status: ('A' for Active; 'I' for Inactive)
REMARK    1  A    between atoms: C_1  and  C_2
REMARK    2  A    between atoms: C_13  and  C_14
REMARK    3  A    between atoms: C_17  and  C_18
REMARK                            x       y       z     vdW  Elec       q    Type
REMARK                         _______ _______ _______ _____ _____    ______ ____
ROOT
ATOM      1  C   UNL     1       1.398   1.952  19.467  0.00  0.00    +0.000 C 
ATOM      2  C   UNL     1       2.029   3.224  18.995  0.00  0.00    +0.000 A 
ATOM      3  S   UNL     1       1.352   4.707  19.484  0.00  0.00    +0.000 S 
ATOM      4  C   UNL     1       2.508   5.595  18.618  0.00  0.00    +0.000 A 
ATOM      5  N   UNL     1       2.453   6.935  18.669  0.00  0.00    +0.000 NA
ATOM      6  C   UNL     1       3.412   7.509  17.953  0.00  0.00    +0.000 A 
ATOM      7  N   UNL     1       4.339   6.894  17.213  0.00  0.00    +0.000 NA
ATOM      8  C   UNL     1       4.380   5.534  17.153  0.00  0.00    +0.000 A 
ATOM      9  N   UNL     1       5.387   4.936  16.342  0.00  0.00    +0.000 N 
ATOM     10  C   UNL     1       6.529   5.866  16.181  0.00  0.00    +0.000 C 
ATOM     11  C   UNL     1       7.644   5.185  15.397  0.00  0.00    +0.000 C 
ATOM     12  C   UNL     1       7.133   4.751  14.026  0.00  0.00    +0.000 C 
ATOM     13  C   UNL     1       5.888   3.865  14.165  0.00  0.00    +0.000 C 
ATOM     14  C   UNL     1       5.337   3.526  12.781  0.00  0.00    +0.000 C 
ATOM     15  C   UNL     1       4.810   4.539  15.041  0.00  0.00    +0.000 C 
ATOM     16  C   UNL     1       3.416   4.811  17.919  0.00  0.00    +0.000 A 
ATOM     17  C   UNL     1       3.151   3.396  18.187  0.00  0.00    +0.000 A 
ATOM     18  C   UNL     1       3.958   2.245  17.675  0.00  0.00    +0.000 C 
ENDROOT
TORSDOF 0
ENDMDL
MODEL 5
REMARK VINA RESULT:      -6.1      1.618      3.627
REMARK  Name = 
REMARK  3 active torsions:
REMARK  status: ('A' for Active; 'I' for Inactive)
REMARK    1  A    between atoms: C_1  and  C_2
REMARK    2  A    between atoms: C_13  and  C_14
REMARK    3  A    between atoms: C_17  and  C_18
REMARK                            x       y       z     vdW  Elec       q    Type
REMARK                         _______ _______ _______ _____ _____    ______ ____
ROOT
ATOM      1  C   UNL     1       2.021   2.534  21.280  0.00  0.00    +0.000 C 
ATOM      2  C   UNL     1       2.333   3.778  20.509  0.00  0.00    +0.000 A 
ATOM      3  S   UNL     1       1.269   5.102  20.622  0.00  0.00    +0.000 S 
ATOM      4  C   UNL     1       2.210   6.032  19.562  0.00  0.00    +0.000 A 
ATOM      5  N   UNL     1       1.810   7.282  19.284  0.00  0.00    +0.000 NA
ATOM      6  C   UNL     1       2.632   7.902  18.446  0.00  0.00    +0.000 A 
ATOM      7  N   UNL     1       3.730   7.396  17.876  0.00  0.00    +0.000 NA
ATOM      8  C   UNL     1       4.121   6.121  18.151  0.00  0.00    +0.000 A 
ATOM      9  N   UNL     1       5.296   5.636  17.508  0.00  0.00    +0.000 N 
ATOM     10  C   UNL     1       6.169   6.768  17.120  0.00  0.00    +0.000 C 
ATOM     11  C   UNL     1       7.469   6.240  16.524  0.00  0.00    +0.000 C 
ATOM     12  C   UNL     1       7.171   5.374  15.303  0.00  0.00    +0.000 C 
ATOM     13  C   UNL     1       6.189   4.251  15.658  0.00  0.00    +0.000 C 
ATOM     14  C   UNL     1       5.830   3.460  14.400  0.00  0.00    +0.000 C 
ATOM     15  C   UNL     1       4.922   4.804  16.345  0.00  0.00    +0.000 C 
ATOM     16  C   UNL     1       3.330   5.372  19.073  0.00  0.00    +0.000 A 
ATOM     17  C   UNL     1       3.421   4.043  19.680  0.00  0.00    +0.000 A 
ATOM     18  C   UNL     1       4.526   3.058  19.463  0.00  0.00    +0.000 C 
ENDROOT
TORSDOF 0
ENDMDL
MODEL 6
REMARK VINA RESULT:      -6.0      2.301      5.302
REMARK  Name = 
REMARK  3 active torsions:
REMARK  status: ('A' for Active; 'I' for Inactive)
REMARK    1  A    between atoms: C_1  and  C_2
REMARK    2  A    between atoms: C_13  and  C_14
REMARK    3  A    between atoms: C_17  and  C_18
REMARK                            x       y       z     vdW  Elec       q    Type
REMARK                         _______ _______ _______ _____ _____    ______ ____
ROOT
ATOM      1  C   UNL     1       6.973   5.188  15.534  0.00  0.00    +0.000 C 
ATOM      2  C   UNL     1       5.712   4.881  16.280  0.00  0.00    +0.000 A 
ATOM      3  S   UNL     1       4.991   3.353  16.080  0.00  0.00    +0.000 S 
ATOM      4  C   UNL     1       3.726   3.738  17.140  0.00  0.00    +0.000 A 
ATOM      5  N   UNL     1       2.793   2.805  17.385  0.00  0.00    +0.000 NA
ATOM      6  C   UNL     1       1.862   3.230  18.230  0.00  0.00    +0.000 A 
ATOM      7  N   UNL     1       1.776   4.442  18.788  0.00  0.00    +0.000 NA
ATOM      8  C   UNL     1       2.718   5.388  18.523  0.00  0.00    +0.000 A 
ATOM      9  N   UNL     1       2.569   6.663  19.142  0.00  0.00    +0.000 N 
ATOM     10  C   UNL     1       1.760   6.538  20.376  0.00  0.00    +0.000 C 
ATOM     11  C   UNL     1       1.687   7.884  21.086  0.00  0.00    +0.000 C 
ATOM     12  C   UNL     1       1.068   8.931  20.165  0.00  0.00    +0.000 C 
ATOM     13  C   UNL     1       1.832   9.008  18.837  0.00  0.00    +0.000 C 
ATOM     14  C   UNL     1       1.135   9.989  17.895  0.00  0.00    +0.000 C 
ATOM     15  C   UNL     1       1.972   7.616  18.184  0.00  0.00    +0.000 C 
ATOM     16  C   UNL     1       3.791   5.026  17.654  0.00  0.00    +0.000 A 
ATOM     17  C   UNL     1       5.006   5.686  17.171  0.00  0.00    +0.000 A 
ATOM     18  C   UNL     1       5.468   7.055  17.559  0.00  0.00    +0.000 C 
ENDROOT
TORSDOF 0
ENDMDL
MODEL 7
REMARK VINA RESULT:      -5.6      2.191      5.260
REMARK  Name = 
REMARK  3 active torsions:
REMARK  status: ('A' for Active; 'I' for Inactive)
REMARK    1  A    between atoms: C_1  and  C_2
REMARK    2  A    between atoms: C_13  and  C_14
REMARK    3  A    between atoms: C_17  and  C_18
REMARK                            x       y       z     vdW  Elec       q    Type
REMARK                         _______ _______ _______ _____ _____    ______ ____
ROOT
ATOM      1  C   UNL     1       5.605   4.021  16.257  0.00  0.00    +0.000 C 
ATOM      2  C   UNL     1       4.511   4.099  17.276  0.00  0.00    +0.000 A 
ATOM      3  S   UNL     1       3.710   2.668  17.731  0.00  0.00    +0.000 S 
ATOM      4  C   UNL     1       2.699   3.498  18.809  0.00  0.00    +0.000 A 
ATOM      5  N   UNL     1       1.802   2.793  19.515  0.00  0.00    +0.000 NA
ATOM      6  C   UNL     1       1.078   3.558  20.321  0.00  0.00    +0.000 A 
ATOM      7  N   UNL     1       1.150   4.887  20.447  0.00  0.00    +0.000 NA
ATOM      8  C   UNL     1       2.052   5.598  19.716  0.00  0.00    +0.000 A 
ATOM      9  N   UNL     1       2.076   7.012  19.888  0.00  0.00    +0.000 N 
ATOM     10  C   UNL     1       1.529   7.373  21.217  0.00  0.00    +0.000 C 
ATOM     11  C   UNL     1       1.649   8.876  21.436  0.00  0.00    +0.000 C 
ATOM     12  C   UNL     1       0.894   9.628  20.343  0.00  0.00    +0.000 C 
ATOM     13  C   UNL     1       1.377   9.197  18.953  0.00  0.00    +0.000 C 
ATOM     14  C   UNL     1       0.539   9.888  17.877  0.00  0.00    +0.000 C 
ATOM     15  C   UNL     1       1.332   7.662  18.789  0.00  0.00    +0.000 C 
ATOM     16  C   UNL     1       2.913   4.870  18.841  0.00  0.00    +0.000 A 
ATOM     17  C   UNL     1       4.028   5.214  17.957  0.00  0.00    +0.000 A 
ATOM     18  C   UNL     1       4.608   6.582  17.775  0.00  0.00    +0.000 C 
ENDROOT
TORSDOF 0
ENDMDL
MODEL 8
REMARK VINA RESULT:      -5.5      2.944      6.003
REMARK  Name = 
REMARK  3 active torsions:
REMARK  status: ('A' for Active; 'I' for Inactive)
REMARK    1  A    between atoms: C_1  and  C_2
REMARK    2  A    between atoms: C_13  and  C_14
REMARK    3  A    between atoms: C_17  and  C_18
REMARK                            x       y       z     vdW  Elec       q    Type
REMARK                         _______ _______ _______ _____ _____    ______ ____
ROOT
ATOM      1  C   UNL     1       5.999   3.810  13.746  0.00  0.00    +0.000 C 
ATOM      2  C   UNL     1       6.075   4.242  15.177  0.00  0.00    +0.000 A 
ATOM      3  S   UNL     1       7.588   4.678  15.824  0.00  0.00    +0.000 S 
ATOM      4  C   UNL     1       6.917   5.005  17.346  0.00  0.00    +0.000 A 
ATOM      5  N   UNL     1       7.730   5.439  18.321  0.00  0.00    +0.000 NA
ATOM      6  C   UNL     1       7.083   5.660  19.458  0.00  0.00    +0.000 A 
ATOM      7  N   UNL     1       5.782   5.464  19.694  0.00  0.00    +0.000 NA
ATOM      8  C   UNL     1       4.966   5.008  18.703  0.00  0.00    +0.000 A 
ATOM      9  N   UNL     1       3.590   4.813  19.016  0.00  0.00    +0.000 N 
ATOM     10  C   UNL     1       3.202   5.666  20.163  0.00  0.00    +0.000 C 
ATOM     11  C   UNL     1       1.708   5.528  20.431  0.00  0.00    +0.000 C 
ATOM     12  C   UNL     1       1.361   4.072  20.728  0.00  0.00    +0.000 C 
ATOM     13  C   UNL     1       1.842   3.155  19.597  0.00  0.00    +0.000 C 
ATOM     14  C   UNL     1       1.573   1.696  19.963  0.00  0.00    +0.000 C 
ATOM     15  C   UNL     1       3.337   3.381  19.283  0.00  0.00    +0.000 C 
ATOM     16  C   UNL     1       5.550   4.773  17.422  0.00  0.00    +0.000 A 
ATOM     17  C   UNL     1       5.048   4.362  16.110  0.00  0.00    +0.000 A 
ATOM     18  C   UNL     1       3.616   4.092  15.770  0.00  0.00    +0.000 C 
ENDROOT
TORSDOF 0
ENDMDL
MODEL 9
REMARK VINA RESULT:      -5.4      1.952      4.173
REMARK  Name = 
REMARK  3 active torsions:
REMARK  status: ('A' for Active; 'I' for Inactive)
REMARK    1  A    between atoms: C_1  and  C_2
REMARK    2  A    between atoms: C_13  and  C_14
REMARK    3  A    between atoms: C_17  and  C_18
REMARK                            x       y       z     vdW  Elec       q    Type
REMARK                         _______ _______ _______ _____ _____    ______ ____
ROOT
ATOM      1  C   UNL     1       0.462   9.680  20.275  0.00  0.00    +0.000 C 
ATOM      2  C   UNL     1       1.421   8.854  19.476  0.00  0.00    +0.000 A 
ATOM      3  S   UNL     1       2.169   9.551  18.116  0.00  0.00    +0.000 S 
ATOM      4  C   UNL     1       3.020   8.126  17.772  0.00  0.00    +0.000 A 
ATOM      5  N   UNL     1       3.850   8.117  16.718  0.00  0.00    +0.000 NA
ATOM      6  C   UNL     1       4.455   6.947  16.559  0.00  0.00    +0.000 A 
ATOM      7  N   UNL     1       4.284   5.847  17.300  0.00  0.00    +0.000 NA
ATOM      8  C   UNL     1       3.428   5.859  18.359  0.00  0.00    +0.000 A 
ATOM      9  N   UNL     1       3.284   4.655  19.106  0.00  0.00    +0.000 N 
ATOM     10  C   UNL     1       4.490   3.810  18.949  0.00  0.00    +0.000 C 
ATOM     11  C   UNL     1       4.373   2.570  19.829  0.00  0.00    +0.000 C 
ATOM     12  C   UNL     1       3.129   1.773  19.448  0.00  0.00    +0.000 C 
ATOM     13  C   UNL     1       1.877   2.655  19.507  0.00  0.00    +0.000 C 
ATOM     14  C   UNL     1       0.661   1.863  19.027  0.00  0.00    +0.000 C 
ATOM     15  C   UNL     1       2.057   3.949  18.683  0.00  0.00    +0.000 C 
ATOM     16  C   UNL     1       2.751   7.081  18.647  0.00  0.00    +0.000 A 
ATOM     17  C   UNL     1       1.830   7.539  19.689  0.00  0.00    +0.000 A 
ATOM     18  C   UNL     1       1.359   6.728  20.855  0.00  0.00    +0.000 C 
ENDROOT
TORSDOF 0
ENDMDL
