MODEL 1
REMARK VINA RESULT:      -7.5      0.000      0.000
REMARK  Name = 
REMARK  3 active torsions:
REMARK  status: ('A' for Active; 'I' for Inactive)
REMARK    1  A    between atoms: C_2  and  C_3
REMARK    2  A    between atoms: C_7  and  N_8
REMARK    3  A    between atoms: C_10  and  C_11
REMARK                            x       y       z     vdW  Elec       q    Type
REMARK                         _______ _______ _______ _____ _____    ______ ____
ROOT
ATOM      1  C   UNL     1       6.406   4.041  13.329  0.00  0.00    +0.000 A 
ATOM      2  C   UNL     1       7.564   4.817  13.180  0.00  0.00    +0.000 A 
ATOM      3  N   UNL     1       7.861   5.517  14.276  0.00  0.00    +0.000 NA
ATOM      4  N   UNL     1       6.855   5.214  15.151  0.00  0.00    +0.000 N 
ATOM      5  C   UNL     1       6.678   5.720  16.462  0.00  0.00    +0.000 A 
ATOM      6  C   UNL     1       5.647   5.257  17.188  0.00  0.00    +0.000 A 
ATOM      7  C   UNL     1       4.758   4.236  16.543  0.00  0.00    +0.000 A 
ATOM      8  N   UNL     1       4.899   3.798  15.323  0.00  0.00    +0.000 NA
ATOM      9  C   UNL     1       5.960   4.283  14.609  0.00  0.00    +0.000 A 
ENDROOT
BRANCH   7  10
ATOM     10  C   UNL     1       3.638   3.718  17.381  0.00  0.00    +0.000 A 
ATOM     11  C   UNL     1       2.569   4.569  17.685  0.00  0.00    +0.000 A 
ATOM     12  C   UNL     1       1.493   4.101  18.442  0.00  0.00    +0.000 A 
ATOM     13  C   UNL     1       1.482   2.783  18.899  0.00  0.00    +0.000 A 
ATOM     14  C   UNL     1       2.544   1.930  18.601  0.00  0.00    +0.000 A 
ATOM     15  C   UNL     1       3.615   2.392  17.837  0.00  0.00    +0.000 A 
ENDBRANCH   7  10
BRANCH   5  16
ATOM     16  N   UNL     1       7.568   6.673  16.934  0.00  0.00    +0.000 N 
ATOM     17  H   UNL     1       7.862   7.320  16.198  0.00  0.00    +0.000 HD
ATOM     18  H   UNL     1       8.335   6.310  17.491  0.00  0.00    +0.000 HD
ENDBRANCH   5  16
BRANCH   1  20
ATOM     19  N   UNL     1       5.345   2.437  11.604  0.00  0.00    +0.000 NA
ATOM     20  C   UNL     1       5.814   3.178  12.368  0.00  0.00    +0.000 C 
ENDBRANCH   1  20
TORSDOF 3
ENDMDL
MODEL 2
REMARK VINA RESULT:      -7.5      0.046      1.141
REMARK  Name = 
REMARK  3 active torsions:
REMARK  status: ('A' for Active; 'I' for Inactive)
REMARK    1  A    between atoms: C_2  and  C_3
REMARK    2  A    between atoms: C_7  and  N_8
REMARK    3  A    between atoms: C_10  and  C_11
REMARK                            x       y       z     vdW  Elec       q    Type
REMARK                         _______ _______ _______ _____ _____    ______ ____
ROOT
ATOM      1  C   UNL     1       6.403   4.052  13.339  0.00  0.00    +0.000 A 
ATOM      2  C   UNL     1       7.569   4.818  13.196  0.00  0.00    +0.000 A 
ATOM      3  N   UNL     1       7.863   5.518  14.293  0.00  0.00    +0.000 NA
ATOM      4  N   UNL     1       6.848   5.225  15.161  0.00  0.00    +0.000 N 
ATOM      5  C   UNL     1       6.665   5.735  16.469  0.00  0.00    +0.000 A 
ATOM      6  C   UNL     1       5.625   5.284  17.189  0.00  0.00    +0.000 A 
ATOM      7  C   UNL     1       4.732   4.268  16.539  0.00  0.00    +0.000 A 
ATOM      8  N   UNL     1       4.879   3.826  15.321  0.00  0.00    +0.000 NA
ATOM      9  C   UNL     1       5.950   4.301  14.614  0.00  0.00    +0.000 A 
ENDROOT
BRANCH   7  10
ATOM     10  C   UNL     1       3.601   3.762  17.369  0.00  0.00    +0.000 A 
ATOM     11  C   UNL     1       3.633   2.437  17.822  0.00  0.00    +0.000 A 
ATOM     12  C   UNL     1       2.602   1.947  18.626  0.00  0.00    +0.000 A 
ATOM     13  C   UNL     1       1.535   2.775  18.977  0.00  0.00    +0.000 A 
ATOM     14  C   UNL     1       1.497   4.094  18.528  0.00  0.00    +0.000 A 
ATOM     15  C   UNL     1       2.530   4.590  17.733  0.00  0.00    +0.000 A 
ENDBRANCH   7  10
BRANCH   5  16
ATOM     16  N   UNL     1       7.559   6.682  16.946  0.00  0.00    +0.000 N 
ATOM     17  H   UNL     1       8.115   7.097  16.194  0.00  0.00    +0.000 HD
ATOM     18  H   UNL     1       8.107   6.393  17.749  0.00  0.00    +0.000 HD
ENDBRANCH   5  16
BRANCH   1  20
ATOM     19  N   UNL     1       5.352   2.454  11.601  0.00  0.00    +0.000 NA
ATOM     20  C   UNL     1       5.812   3.191  12.375  0.00  0.00    +0.000 C 
ENDBRANCH   1  20
TORSDOF 3
ENDMDL
MODEL 3
REMARK VINA RESULT:      -7.4      2.071      5.597
REMARK  Name = 
REMARK  3 active torsions:
REMARK  status: ('A' for Active; 'I' for Inactive)
REMARK    1  A    between atoms: C_2  and  C_3
REMARK    2  A    between atoms: C_7  and  N_8
REMARK    3  A    between atoms: C_10  and  C_11
REMARK                            x       y       z     vdW  Elec       q    Type
REMARK                         _______ _______ _______ _____ _____    ______ ____
ROOT
ATOM      1  C   UNL     1       3.405   4.525  18.304  0.00  0.00    +0.000 A 
ATOM      2  C   UNL     1       3.767   4.802  19.630  0.00  0.00    +0.000 A 
ATOM      3  N   UNL     1       5.073   5.036  19.770  0.00  0.00    +0.000 NA
ATOM      4  N   UNL     1       5.580   4.877  18.510  0.00  0.00    +0.000 N 
ATOM      5  C   UNL     1       6.934   4.986  18.111  0.00  0.00    +0.000 A 
ATOM      6  C   UNL     1       7.227   4.844  16.808  0.00  0.00    +0.000 A 
ATOM      7  C   UNL     1       6.084   4.576  15.874  0.00  0.00    +0.000 A 
ATOM      8  N   UNL     1       4.842   4.438  16.247  0.00  0.00    +0.000 NA
ATOM      9  C   UNL     1       4.573   4.592  17.579  0.00  0.00    +0.000 A 
ENDROOT
BRANCH   7  10
ATOM     10  C   UNL     1       6.432   4.450  14.430  0.00  0.00    +0.000 A 
ATOM     11  C   UNL     1       7.463   5.242  13.909  0.00  0.00    +0.000 A 
ATOM     12  C   UNL     1       7.829   5.122  12.567  0.00  0.00    +0.000 A 
ATOM     13  C   UNL     1       7.167   4.216  11.740  0.00  0.00    +0.000 A 
ATOM     14  C   UNL     1       6.138   3.426  12.251  0.00  0.00    +0.000 A 
ATOM     15  C   UNL     1       5.776   3.535  13.594  0.00  0.00    +0.000 A 
ENDBRANCH   7  10
BRANCH   5  16
ATOM     16  N   UNL     1       7.897   5.226  19.081  0.00  0.00    +0.000 N 
ATOM     17  H   UNL     1       8.618   5.873  18.751  0.00  0.00    +0.000 HD
ATOM     18  H   UNL     1       8.266   4.398  19.536  0.00  0.00    +0.000 HD
ENDBRANCH   5  16
BRANCH   1  20
ATOM     19  N   UNL     1       1.048   3.962  17.406  0.00  0.00    +0.000 NA
ATOM     20  C   UNL     1       2.105   4.239  17.805  0.00  0.00    +0.000 C 
ENDBRANCH   1  20
TORSDOF 3
ENDMDL
MODEL 4
REMARK VINA RESULT:      -7.4      2.073      5.624
REMARK  Name = 
REMARK  3 active torsions:
REMARK  status: ('A' for Active; 'I' for Inactive)
REMARK    1  A    between atoms: C_2  and  C_3
REMARK    2  A    between atoms: C_7  and  N_8
REMARK    3  A    between atoms: C_10  and  C_11
REMARK                            x       y       z     vdW  Elec       q    Type
REMARK                         _______ _______ _______ _____ _____    ______ ____
ROOT
ATOM      1  C   UNL     1       3.401   4.538  18.287  0.00  0.00    +0.000 A 
ATOM      2  C   UNL     1       3.742   4.825  19.616  0.00  0.00    +0.000 A 
ATOM      3  N   UNL     1       5.045   5.063  19.774  0.00  0.00    +0.000 NA
ATOM      4  N   UNL     1       5.571   4.897  18.523  0.00  0.00    +0.000 N 
ATOM      5  C   UNL     1       6.931   5.006  18.143  0.00  0.00    +0.000 A 
ATOM      6  C   UNL     1       7.243   4.856  16.846  0.00  0.00    +0.000 A 
ATOM      7  C   UNL     1       6.115   4.578  15.897  0.00  0.00    +0.000 A 
ATOM      8  N   UNL     1       4.868   4.440  16.252  0.00  0.00    +0.000 NA
ATOM      9  C   UNL     1       4.579   4.603  17.579  0.00  0.00    +0.000 A 
ENDROOT
BRANCH   7  10
ATOM     10  C   UNL     1       6.485   4.443  14.458  0.00  0.00    +0.000 A 
ATOM     11  C   UNL     1       5.771   3.545  13.656  0.00  0.00    +0.000 A 
ATOM     12  C   UNL     1       6.077   3.422  12.299  0.00  0.00    +0.000 A 
ATOM     13  C   UNL     1       7.096   4.192  11.740  0.00  0.00    +0.000 A 
ATOM     14  C   UNL     1       7.812   5.087  12.533  0.00  0.00    +0.000 A 
ATOM     15  C   UNL     1       7.503   5.220  13.887  0.00  0.00    +0.000 A 
ENDBRANCH   7  10
BRANCH   5  16
ATOM     16  N   UNL     1       7.879   5.254  19.125  0.00  0.00    +0.000 N 
ATOM     17  H   UNL     1       8.639   5.846  18.781  0.00  0.00    +0.000 HD
ATOM     18  H   UNL     1       8.194   4.438  19.638  0.00  0.00    +0.000 HD
ENDBRANCH   5  16
BRANCH   1  20
ATOM     19  N   UNL     1       1.036   4.038  17.372  0.00  0.00    +0.000 NA
ATOM     20  C   UNL     1       2.109   4.245  17.770  0.00  0.00    +0.000 C 
ENDBRANCH   1  20
TORSDOF 3
ENDMDL
MODEL 5
REMARK VINA RESULT:      -7.3      1.157      1.314
REMARK  Name = 
REMARK  3 active torsions:
REMARK  status: ('A' for Active; 'I' for Inactive)
REMARK    1  A    between atoms: C_2  and  C_3
REMARK    2  A    between atoms: C_7  and  N_8
REMARK    3  A    between atoms: C_10  and  C_11
REMARK                            x       y       z     vdW  Elec       q    Type
REMARK                         _______ _______ _______ _____ _____    ______ ____
ROOT
ATOM      1  C   UNL     1       5.965   4.410  14.395  0.00  0.00    +0.000 A 
ATOM      2  C   UNL     1       7.223   5.028  14.389  0.00  0.00    +0.000 A 
ATOM      3  N   UNL     1       7.573   5.498  15.588  0.00  0.00    +0.000 NA
ATOM      4  N   UNL     1       6.503   5.206  16.388  0.00  0.00    +0.000 N 
ATOM      5  C   UNL     1       6.349   5.520  17.760  0.00  0.00    +0.000 A 
ATOM      6  C   UNL     1       5.238   5.100  18.387  0.00  0.00    +0.000 A 
ATOM      7  C   UNL     1       4.242   4.329  17.574  0.00  0.00    +0.000 A 
ATOM      8  N   UNL     1       4.366   4.073  16.301  0.00  0.00    +0.000 NA
ATOM      9  C   UNL     1       5.510   4.509  15.690  0.00  0.00    +0.000 A 
ENDROOT
BRANCH   7  10
ATOM     10  C   UNL     1       3.031   3.849  18.301  0.00  0.00    +0.000 A 
ATOM     11  C   UNL     1       2.536   4.608  19.368  0.00  0.00    +0.000 A 
ATOM     12  C   UNL     1       1.386   4.198  20.046  0.00  0.00    +0.000 A 
ATOM     13  C   UNL     1       0.729   3.028  19.663  0.00  0.00    +0.000 A 
ATOM     14  C   UNL     1       1.218   2.267  18.603  0.00  0.00    +0.000 A 
ATOM     15  C   UNL     1       2.360   2.679  17.917  0.00  0.00    +0.000 A 
ENDBRANCH   7  10
BRANCH   5  16
ATOM     16  N   UNL     1       7.344   6.252  18.392  0.00  0.00    +0.000 N 
ATOM     17  H   UNL     1       7.713   6.992  17.792  0.00  0.00    +0.000 HD
ATOM     18  H   UNL     1       8.060   5.699  18.851  0.00  0.00    +0.000 HD
ENDBRANCH   5  16
BRANCH   1  20
ATOM     19  N   UNL     1       4.768   3.332  12.374  0.00  0.00    +0.000 NA
ATOM     20  C   UNL     1       5.296   3.801  13.299  0.00  0.00    +0.000 C 
ENDBRANCH   1  20
TORSDOF 3
ENDMDL
MODEL 6
REMARK VINA RESULT:      -7.2      1.037      1.489
REMARK  Name = 
REMARK  3 active torsions:
REMARK  status: ('A' for Active; 'I' for Inactive)
REMARK    1  A    between atoms: C_2  and  C_3
REMARK    2  A    between atoms: C_7  and  N_8
REMARK    3  A    between atoms: C_10  and  C_11
REMARK                            x       y       z     vdW  Elec       q    Type
REMARK                         _______ _______ _______ _____ _____    ______ ____
ROOT
ATOM      1  C   UNL     1       5.989   4.384  14.213  0.00  0.00    +0.000 A 
ATOM      2  C   UNL     1       7.241   5.012  14.179  0.00  0.00    +0.000 A 
ATOM      3  N   UNL     1       7.595   5.523  15.360  0.00  0.00    +0.000 NA
ATOM      4  N   UNL     1       6.532   5.248  16.176  0.00  0.00    +0.000 N 
ATOM      5  C   UNL     1       6.384   5.604  17.538  0.00  0.00    +0.000 A 
ATOM      6  C   UNL     1       5.280   5.195  18.186  0.00  0.00    +0.000 A 
ATOM      7  C   UNL     1       4.285   4.390  17.404  0.00  0.00    +0.000 A 
ATOM      8  N   UNL     1       4.404   4.095  16.139  0.00  0.00    +0.000 NA
ATOM      9  C   UNL     1       5.540   4.521  15.507  0.00  0.00    +0.000 A 
ENDROOT
BRANCH   7  10
ATOM     10  C   UNL     1       3.083   3.925  18.153  0.00  0.00    +0.000 A 
ATOM     11  C   UNL     1       2.550   2.663  17.863  0.00  0.00    +0.000 A 
ATOM     12  C   UNL     1       1.443   2.190  18.571  0.00  0.00    +0.000 A 
ATOM     13  C   UNL     1       0.864   2.975  19.568  0.00  0.00    +0.000 A 
ATOM     14  C   UNL     1       1.388   4.233  19.860  0.00  0.00    +0.000 A 
ATOM     15  C   UNL     1       2.500   4.704  19.163  0.00  0.00    +0.000 A 
ENDBRANCH   7  10
BRANCH   5  16
ATOM     16  N   UNL     1       7.376   6.363  18.141  0.00  0.00    +0.000 N 
ATOM     17  H   UNL     1       7.081   7.332  18.284  0.00  0.00    +0.000 HD
ATOM     18  H   UNL     1       8.299   6.271  17.730  0.00  0.00    +0.000 HD
ENDBRANCH   5  16
BRANCH   1  20
ATOM     19  N   UNL     1       4.765   3.243  12.243  0.00  0.00    +0.000 NA
ATOM     20  C   UNL     1       5.318   3.735  13.141  0.00  0.00    +0.000 C 
ENDBRANCH   1  20
TORSDOF 3
ENDMDL
MODEL 7
REMARK VINA RESULT:      -7.0      4.093      6.386
REMARK  Name = 
REMARK  3 active torsions:
REMARK  status: ('A' for Active; 'I' for Inactive)
REMARK    1  A    between atoms: C_2  and  C_3
REMARK    2  A    between atoms: C_7  and  N_8
REMARK    3  A    between atoms: C_10  and  C_11
REMARK                            x       y       z     vdW  Elec       q    Type
REMARK                         _______ _______ _______ _____ _____    ______ ____
ROOT
ATOM      1  C   UNL     1       3.200   3.115  20.507  0.00  0.00    +0.000 A 
ATOM      2  C   UNL     1       4.280   2.328  20.083  0.00  0.00    +0.000 A 
ATOM      3  N   UNL     1       5.049   2.947  19.184  0.00  0.00    +0.000 NA
ATOM      4  N   UNL     1       4.437   4.155  18.995  0.00  0.00    +0.000 N 
ATOM      5  C   UNL     1       4.835   5.188  18.112  0.00  0.00    +0.000 A 
ATOM      6  C   UNL     1       4.126   6.329  18.108  0.00  0.00    +0.000 A 
ATOM      7  C   UNL     1       2.959   6.415  19.045  0.00  0.00    +0.000 A 
ATOM      8  N   UNL     1       2.570   5.450  19.832  0.00  0.00    +0.000 NA
ATOM      9  C   UNL     1       3.313   4.301  19.818  0.00  0.00    +0.000 A 
ENDROOT
BRANCH   7  10
ATOM     10  C   UNL     1       2.206   7.702  19.042  0.00  0.00    +0.000 A 
ATOM     11  C   UNL     1       1.560   8.113  20.214  0.00  0.00    +0.000 A 
ATOM     12  C   UNL     1       0.874   9.329  20.247  0.00  0.00    +0.000 A 
ATOM     13  C   UNL     1       0.829  10.136  19.110  0.00  0.00    +0.000 A 
ATOM     14  C   UNL     1       1.468   9.732  17.939  0.00  0.00    +0.000 A 
ATOM     15  C   UNL     1       2.163   8.524  17.906  0.00  0.00    +0.000 A 
ENDBRANCH   7  10
BRANCH   5  16
ATOM     16  N   UNL     1       5.929   4.974  17.286  0.00  0.00    +0.000 N 
ATOM     17  H   UNL     1       5.684   5.062  16.297  0.00  0.00    +0.000 HD
ATOM     18  H   UNL     1       6.477   4.149  17.502  0.00  0.00    +0.000 HD
ENDBRANCH   5  16
BRANCH   1  20
ATOM     19  N   UNL     1       1.406   2.495  22.260  0.00  0.00    +0.000 NA
ATOM     20  C   UNL     1       2.198   2.769  21.453  0.00  0.00    +0.000 C 
ENDBRANCH   1  20
TORSDOF 3
ENDMDL
MODEL 8
REMARK VINA RESULT:      -7.0      4.132      6.468
REMARK  Name = 
REMARK  3 active torsions:
REMARK  status: ('A' for Active; 'I' for Inactive)
REMARK    1  A    between atoms: C_2  and  C_3
REMARK    2  A    between atoms: C_7  and  N_8
REMARK    3  A    between atoms: C_10  and  C_11
REMARK                            x       y       z     vdW  Elec       q    Type
REMARK                         _______ _______ _______ _____ _____    ______ ____
ROOT
ATOM      1  C   UNL     1       3.031   3.059  20.607  0.00  0.00    +0.000 A 
ATOM      2  C   UNL     1       4.093   2.243  20.194  0.00  0.00    +0.000 A 
ATOM      3  N   UNL     1       4.887   2.841  19.304  0.00  0.00    +0.000 NA
ATOM      4  N   UNL     1       4.310   4.065  19.109  0.00  0.00    +0.000 N 
ATOM      5  C   UNL     1       4.745   5.086  18.230  0.00  0.00    +0.000 A 
ATOM      6  C   UNL     1       4.068   6.246  18.218  0.00  0.00    +0.000 A 
ATOM      7  C   UNL     1       2.894   6.364  19.144  0.00  0.00    +0.000 A 
ATOM      8  N   UNL     1       2.471   5.410  19.926  0.00  0.00    +0.000 NA
ATOM      9  C   UNL     1       3.183   4.242  19.920  0.00  0.00    +0.000 A 
ENDROOT
BRANCH   7  10
ATOM     10  C   UNL     1       2.176   7.671  19.132  0.00  0.00    +0.000 A 
ATOM     11  C   UNL     1       2.138   8.413  17.946  0.00  0.00    +0.000 A 
ATOM     12  C   UNL     1       1.448   9.626  17.899  0.00  0.00    +0.000 A 
ATOM     13  C   UNL     1       0.796  10.103  19.036  0.00  0.00    +0.000 A 
ATOM     14  C   UNL     1       0.832   9.370  20.222  0.00  0.00    +0.000 A 
ATOM     15  C   UNL     1       1.512   8.153  20.269  0.00  0.00    +0.000 A 
ENDBRANCH   7  10
BRANCH   5  16
ATOM     16  N   UNL     1       5.841   4.843  17.415  0.00  0.00    +0.000 N 
ATOM     17  H   UNL     1       6.381   4.034  17.733  0.00  0.00    +0.000 HD
ATOM     18  H   UNL     1       6.409   5.656  17.201  0.00  0.00    +0.000 HD
ENDBRANCH   5  16
BRANCH   1  20
ATOM     19  N   UNL     1       1.205   2.470  22.339  0.00  0.00    +0.000 NA
ATOM     20  C   UNL     1       2.010   2.740  21.543  0.00  0.00    +0.000 C 
ENDBRANCH   1  20
TORSDOF 3
ENDMDL
MODEL 9
REMARK VINA RESULT:      -6.7      3.986      5.968
REMARK  Name = 
REMARK  3 active torsions:
REMARK  status: ('A' for Active; 'I' for Inactive)
REMARK    1  A    between atoms: C_2  and  C_3
REMARK    2  A    between atoms: C_7  and  N_8
REMARK    3  A    between atoms: C_10  and  C_11
REMARK                            x       y       z     vdW  Elec       q    Type
REMARK                         _______ _______ _______ _____ _____    ______ ____
ROOT
ATOM      1  C   UNL     1       4.137   3.412  17.934  0.00  0.00    +0.000 A 
ATOM      2  C   UNL     1       4.112   2.173  18.587  0.00  0.00    +0.000 A 
ATOM      3  N   UNL     1       3.429   2.207  19.733  0.00  0.00    +0.000 NA
ATOM      4  N   UNL     1       3.025   3.509  19.844  0.00  0.00    +0.000 N 
ATOM      5  C   UNL     1       2.286   4.089  20.903  0.00  0.00    +0.000 A 
ATOM      6  C   UNL     1       1.940   5.383  20.803  0.00  0.00    +0.000 A 
ATOM      7  C   UNL     1       2.373   6.115  19.567  0.00  0.00    +0.000 A 
ATOM      8  N   UNL     1       3.086   5.590  18.609  0.00  0.00    +0.000 NA
ATOM      9  C   UNL     1       3.419   4.269  18.736  0.00  0.00    +0.000 A 
ENDROOT
BRANCH   7  10
ATOM     10  C   UNL     1       1.952   7.542  19.467  0.00  0.00    +0.000 A 
ATOM     11  C   UNL     1       2.084   8.203  18.241  0.00  0.00    +0.000 A 
ATOM     12  C   UNL     1       1.669   9.530  18.112  0.00  0.00    +0.000 A 
ATOM     13  C   UNL     1       1.125  10.202  19.206  0.00  0.00    +0.000 A 
ATOM     14  C   UNL     1       0.992   9.549  20.431  0.00  0.00    +0.000 A 
ATOM     15  C   UNL     1       1.395   8.221  20.561  0.00  0.00    +0.000 A 
ENDBRANCH   7  10
BRANCH   5  16
ATOM     16  N   UNL     1       1.960   3.302  21.998  0.00  0.00    +0.000 N 
ATOM     17  H   UNL     1       2.447   2.403  21.981  0.00  0.00    +0.000 HD
ATOM     18  H   UNL     1       0.967   3.227  22.195  0.00  0.00    +0.000 HD
ENDBRANCH   5  16
BRANCH   1  20
ATOM     19  N   UNL     1       5.291   4.020  15.703  0.00  0.00    +0.000 NA
ATOM     20  C   UNL     1       4.765   3.725  16.697  0.00  0.00    +0.000 C 
ENDBRANCH   1  20
TORSDOF 3
ENDMDL
