MODEL 1
REMARK VINA RESULT:     -10.0      0.000      0.000
REMARK  Name = 
REMARK  11 active torsions:
REMARK  status: ('A' for Active; 'I' for Inactive)
REMARK    1  A    between atoms: C_1  and  N_2
REMARK    2  A    between atoms: C_4  and  C_5
REMARK    3  A    between atoms: C_5  and  C_6
REMARK    4  A    between atoms: C_5  and  C_7
REMARK    5  A    between atoms: C_5  and  C_8
REMARK    6  A    between atoms: C_10  and  N_11
REMARK    7  A    between atoms: N_14  and  C_15
REMARK    8  A    between atoms: C_18  and  N_19
REMARK    9  A    between atoms: N_19  and  C_20
REMARK   10  A    between atoms: C_27  and  C_28
REMARK   11  A    between atoms: C_27  and  C_29
REMARK                            x       y       z     vdW  Elec       q    Type
REMARK                         _______ _______ _______ _____ _____    ______ ____
ROOT
ATOM      1  C   UNL     1       0.913   9.414  18.818  0.00  0.00    +0.000 A 
ATOM      2  C   UNL     1       1.676   8.713  17.872  0.00  0.00    +0.000 A 
ATOM      3  C   UNL     1       2.447   7.599  18.227  0.00  0.00    +0.000 A 
ATOM      4  C   UNL     1       2.516   7.167  19.548  0.00  0.00    +0.000 A 
ATOM      5  C   UNL     1       1.734   7.849  20.490  0.00  0.00    +0.000 A 
ATOM      6  C   UNL     1       0.954   8.969  20.138  0.00  0.00    +0.000 A 
ENDROOT
BRANCH   1  10
ATOM      7  N   UNL     1      -1.853  11.718  17.924  0.00  0.00    +0.000 N 
ATOM      8  C   UNL     1      -1.245  10.470  18.289  0.00  0.00    +0.000 C 
ATOM      9  O   UNL     1      -1.939   9.476  18.387  0.00  0.00    +0.000 OA
ATOM     10  N   UNL     1       0.113  10.545  18.483  0.00  0.00    +0.000 N 
ATOM     11  H   UNL     1      -1.290  12.492  17.606  0.00  0.00    +0.000 HD
ATOM     12  H   UNL     1       0.568  11.448  18.518  0.00  0.00    +0.000 HD
BRANCH   7  18
ATOM     13  C   UNL     1      -3.834  10.982  15.560  0.00  0.00    +0.000 C 
ATOM     14  N   UNL     1      -4.128  11.497  16.876  0.00  0.00    +0.000 N 
ATOM     15  N   UNL     1      -5.426  11.644  17.219  0.00  0.00    +0.000 NA
ATOM     16  C   UNL     1      -5.397  12.132  18.465  0.00  0.00    +0.000 A 
ATOM     17  C   UNL     1      -4.063  12.300  18.895  0.00  0.00    +0.000 A 
ATOM     18  C   UNL     1      -3.253  11.817  17.884  0.00  0.00    +0.000 A 
BRANCH  16  19
ATOM     19  C   UNL     1      -6.676  12.450  19.221  0.00  0.00    +0.000 C 
ATOM     20  C   UNL     1      -7.735  13.032  18.262  0.00  0.00    +0.000 C 
ATOM     21  C   UNL     1      -7.286  11.189  19.877  0.00  0.00    +0.000 C 
ATOM     22  C   UNL     1      -6.379  13.468  20.336  0.00  0.00    +0.000 C 
ENDBRANCH  16  19
ENDBRANCH   7  18
ENDBRANCH   1  10
BRANCH   4  23
ATOM     23  N   UNL     1       3.360   6.085  19.871  0.00  0.00    +0.000 N 
ATOM     24  H   UNL     1       3.289   5.783  20.838  0.00  0.00    +0.000 HD
BRANCH  23  25
ATOM     25  C   UNL     1       3.704   4.992  19.040  0.00  0.00    +0.000 A 
ATOM     26  N   UNL     1       2.934   3.886  19.046  0.00  0.00    +0.000 NA
ATOM     27  C   UNL     1       3.244   2.907  18.190  0.00  0.00    +0.000 A 
ATOM     28  N   UNL     1       4.239   2.928  17.303  0.00  0.00    +0.000 NA
ATOM     29  C   UNL     1       5.003   4.027  17.334  0.00  0.00    +0.000 A 
ATOM     30  C   UNL     1       4.815   5.090  18.201  0.00  0.00    +0.000 A 
ATOM     31  O   UNL     1       5.634   6.191  18.250  0.00  0.00    +0.000 OA
ATOM     32  C   UNL     1       6.924   5.980  17.640  0.00  0.00    +0.000 C 
ATOM     33  C   UNL     1       7.835   5.262  18.655  0.00  0.00    +0.000 C 
ATOM     34  C   UNL     1       7.526   7.357  17.338  0.00  0.00    +0.000 C 
ATOM     35  C   UNL     1       6.893   5.137  16.344  0.00  0.00    +0.000 C 
ATOM     36  O   UNL     1       7.650   5.296  15.392  0.00  0.00    +0.000 OA
ATOM     37  N   UNL     1       6.017   4.089  16.388  0.00  0.00    +0.000 N 
ATOM     38  H   UNL     1       6.021   3.402  15.649  0.00  0.00    +0.000 HD
ENDBRANCH  23  25
ENDBRANCH   4  23
TORSDOF 5
ENDMDL
MODEL 2
REMARK VINA RESULT:     -10.0      0.149      1.105
REMARK  Name = 
REMARK  11 active torsions:
REMARK  status: ('A' for Active; 'I' for Inactive)
REMARK    1  A    between atoms: C_1  and  N_2
REMARK    2  A    between atoms: C_4  and  C_5
REMARK    3  A    between atoms: C_5  and  C_6
REMARK    4  A    between atoms: C_5  and  C_7
REMARK    5  A    between atoms: C_5  and  C_8
REMARK    6  A    between atoms: C_10  and  N_11
REMARK    7  A    between atoms: N_14  and  C_15
REMARK    8  A    between atoms: C_18  and  N_19
REMARK    9  A    between atoms: N_19  and  C_20
REMARK   10  A    between atoms: C_27  and  C_28
REMARK   11  A    between atoms: C_27  and  C_29
REMARK                            x       y       z     vdW  Elec       q    Type
REMARK                         _______ _______ _______ _____ _____    ______ ____
ROOT
ATOM      1  C   UNL     1       0.929   9.425  19.008  0.00  0.00    +0.000 A 
ATOM      2  C   UNL     1       1.012   8.873  20.294  0.00  0.00    +0.000 A 
ATOM      3  C   UNL     1       1.825   7.767  20.570  0.00  0.00    +0.000 A 
ATOM      4  C   UNL     1       2.557   7.146  19.562  0.00  0.00    +0.000 A 
ATOM      5  C   UNL     1       2.497   7.712  18.282  0.00  0.00    +0.000 A 
ATOM      6  C   UNL     1       1.683   8.828  17.999  0.00  0.00    +0.000 A 
ENDROOT
BRANCH   1  10
ATOM      7  N   UNL     1      -1.855  11.718  18.138  0.00  0.00    +0.000 N 
ATOM      8  C   UNL     1      -1.234  10.465  18.466  0.00  0.00    +0.000 C 
ATOM      9  O   UNL     1      -1.911   9.456  18.502  0.00  0.00    +0.000 OA
ATOM     10  N   UNL     1       0.117  10.556  18.701  0.00  0.00    +0.000 N 
ATOM     11  H   UNL     1      -1.298  12.514  17.870  0.00  0.00    +0.000 HD
ATOM     12  H   UNL     1       0.554  11.464  18.787  0.00  0.00    +0.000 HD
BRANCH   7  18
ATOM     13  C   UNL     1      -3.760  11.015  15.703  0.00  0.00    +0.000 C 
ATOM     14  N   UNL     1      -4.097  11.488  17.024  0.00  0.00    +0.000 N 
ATOM     15  N   UNL     1      -5.406  11.604  17.337  0.00  0.00    +0.000 NA
ATOM     16  C   UNL     1      -5.418  12.057  18.596  0.00  0.00    +0.000 A 
ATOM     17  C   UNL     1      -4.099  12.234  19.066  0.00  0.00    +0.000 A 
ATOM     18  C   UNL     1      -3.255  11.794  18.064  0.00  0.00    +0.000 A 
BRANCH  16  19
ATOM     19  C   UNL     1      -6.722  12.331  19.326  0.00  0.00    +0.000 C 
ATOM     20  C   UNL     1      -7.316  11.018  19.874  0.00  0.00    +0.000 C 
ATOM     21  C   UNL     1      -6.520  13.287  20.526  0.00  0.00    +0.000 C 
ATOM     22  C   UNL     1      -7.726  12.987  18.363  0.00  0.00    +0.000 C 
ENDBRANCH  16  19
ENDBRANCH   7  18
ENDBRANCH   1  10
BRANCH   4  23
ATOM     23  N   UNL     1       3.307   5.993  19.871  0.00  0.00    +0.000 N 
ATOM     24  H   UNL     1       3.152   5.642  20.812  0.00  0.00    +0.000 HD
BRANCH  23  25
ATOM     25  C   UNL     1       3.637   4.929  18.998  0.00  0.00    +0.000 A 
ATOM     26  N   UNL     1       2.850   3.836  18.957  0.00  0.00    +0.000 NA
ATOM     27  C   UNL     1       3.148   2.888  18.063  0.00  0.00    +0.000 A 
ATOM     28  N   UNL     1       4.147   2.929  17.181  0.00  0.00    +0.000 NA
ATOM     29  C   UNL     1       4.928   4.013  17.259  0.00  0.00    +0.000 A 
ATOM     30  C   UNL     1       4.752   5.044  18.167  0.00  0.00    +0.000 A 
ATOM     31  O   UNL     1       5.589   6.129  18.263  0.00  0.00    +0.000 OA
ATOM     32  C   UNL     1       6.878   5.923  17.649  0.00  0.00    +0.000 C 
ATOM     33  C   UNL     1       7.773   5.151  18.636  0.00  0.00    +0.000 C 
ATOM     34  C   UNL     1       7.501   7.301  17.405  0.00  0.00    +0.000 C 
ATOM     35  C   UNL     1       6.838   5.133  16.319  0.00  0.00    +0.000 C 
ATOM     36  O   UNL     1       7.601   5.319  15.377  0.00  0.00    +0.000 OA
ATOM     37  N   UNL     1       5.946   4.098  16.318  0.00  0.00    +0.000 N 
ATOM     38  H   UNL     1       5.942   3.442  15.552  0.00  0.00    +0.000 HD
ENDBRANCH  23  25
ENDBRANCH   4  23
TORSDOF 5
ENDMDL
MODEL 3
REMARK VINA RESULT:      -9.3      3.467      4.473
REMARK  Name = 
REMARK  11 active torsions:
REMARK  status: ('A' for Active; 'I' for Inactive)
REMARK    1  A    between atoms: C_1  and  N_2
REMARK    2  A    between atoms: C_4  and  C_5
REMARK    3  A    between atoms: C_5  and  C_6
REMARK    4  A    between atoms: C_5  and  C_7
REMARK    5  A    between atoms: C_5  and  C_8
REMARK    6  A    between atoms: C_10  and  N_11
REMARK    7  A    between atoms: N_14  and  C_15
REMARK    8  A    between atoms: C_18  and  N_19
REMARK    9  A    between atoms: N_19  and  C_20
REMARK   10  A    between atoms: C_27  and  C_28
REMARK   11  A    between atoms: C_27  and  C_29
REMARK                            x       y       z     vdW  Elec       q    Type
REMARK                         _______ _______ _______ _____ _____    ______ ____
ROOT
ATOM      1  C   UNL     1       0.766   9.410  19.440  0.00  0.00    +0.000 A 
ATOM      2  C   UNL     1       1.549   8.941  18.376  0.00  0.00    +0.000 A 
ATOM      3  C   UNL     1       2.368   7.812  18.505  0.00  0.00    +0.000 A 
ATOM      4  C   UNL     1       2.464   7.131  19.715  0.00  0.00    +0.000 A 
ATOM      5  C   UNL     1       1.662   7.582  20.772  0.00  0.00    +0.000 A 
ATOM      6  C   UNL     1       0.834   8.716  20.647  0.00  0.00    +0.000 A 
ENDROOT
BRANCH   1  10
ATOM      7  N   UNL     1      -0.689  12.822  19.500  0.00  0.00    +0.000 N 
ATOM      8  C   UNL     1       0.333  11.824  19.640  0.00  0.00    +0.000 C 
ATOM      9  O   UNL     1       1.443  12.156  20.012  0.00  0.00    +0.000 OA
ATOM     10  N   UNL     1      -0.082  10.551  19.334  0.00  0.00    +0.000 N 
ATOM     11  H   UNL     1      -1.660  12.559  19.428  0.00  0.00    +0.000 HD
ATOM     12  H   UNL     1      -0.983  10.406  18.897  0.00  0.00    +0.000 HD
BRANCH   7  18
ATOM     13  C   UNL     1      -0.438  14.631  22.092  0.00  0.00    +0.000 C 
ATOM     14  N   UNL     1      -0.224  14.978  20.707  0.00  0.00    +0.000 N 
ATOM     15  N   UNL     1       0.210  16.227  20.431  0.00  0.00    +0.000 NA
ATOM     16  C   UNL     1       0.316  16.265  19.097  0.00  0.00    +0.000 A 
ATOM     17  C   UNL     1      -0.067  15.026  18.540  0.00  0.00    +0.000 A 
ATOM     18  C   UNL     1      -0.344  14.180  19.597  0.00  0.00    +0.000 A 
BRANCH  16  19
ATOM     19  C   UNL     1       0.774  17.519  18.374  0.00  0.00    +0.000 C 
ATOM     20  C   UNL     1       2.048  17.231  17.554  0.00  0.00    +0.000 C 
ATOM     21  C   UNL     1      -0.301  18.045  17.394  0.00  0.00    +0.000 C 
ATOM     22  C   UNL     1       1.065  18.630  19.399  0.00  0.00    +0.000 C 
ENDBRANCH  16  19
ENDBRANCH   7  18
ENDBRANCH   1  10
BRANCH   4  23
ATOM     23  N   UNL     1       3.354   6.042  19.819  0.00  0.00    +0.000 N 
ATOM     24  H   UNL     1       3.396   5.634  20.748  0.00  0.00    +0.000 HD
BRANCH  23  25
ATOM     25  C   UNL     1       3.617   5.057  18.838  0.00  0.00    +0.000 A 
ATOM     26  N   UNL     1       2.774   4.015  18.700  0.00  0.00    +0.000 NA
ATOM     27  C   UNL     1       3.011   3.149  17.711  0.00  0.00    +0.000 A 
ATOM     28  N   UNL     1       4.000   3.229  16.820  0.00  0.00    +0.000 NA
ATOM     29  C   UNL     1       4.837   4.258  16.993  0.00  0.00    +0.000 A 
ATOM     30  C   UNL     1       4.726   5.199  18.003  0.00  0.00    +0.000 A 
ATOM     31  O   UNL     1       5.619   6.225  18.193  0.00  0.00    +0.000 OA
ATOM     32  C   UNL     1       6.888   6.017  17.539  0.00  0.00    +0.000 C 
ATOM     33  C   UNL     1       7.754   5.105  18.428  0.00  0.00    +0.000 C 
ATOM     34  C   UNL     1       7.580   7.380  17.424  0.00  0.00    +0.000 C 
ATOM     35  C   UNL     1       6.791   5.369  16.138  0.00  0.00    +0.000 C 
ATOM     36  O   UNL     1       7.551   5.611  15.205  0.00  0.00    +0.000 OA
ATOM     37  N   UNL     1       5.846   4.387  16.048  0.00  0.00    +0.000 N 
ATOM     38  H   UNL     1       5.799   3.812  15.220  0.00  0.00    +0.000 HD
ENDBRANCH  23  25
ENDBRANCH   4  23
TORSDOF 5
ENDMDL
MODEL 4
REMARK VINA RESULT:      -9.2      3.456      4.531
REMARK  Name = 
REMARK  11 active torsions:
REMARK  status: ('A' for Active; 'I' for Inactive)
REMARK    1  A    between atoms: C_1  and  N_2
REMARK    2  A    between atoms: C_4  and  C_5
REMARK    3  A    between atoms: C_5  and  C_6
REMARK    4  A    between atoms: C_5  and  C_7
REMARK    5  A    between atoms: C_5  and  C_8
REMARK    6  A    between atoms: C_10  and  N_11
REMARK    7  A    between atoms: N_14  and  C_15
REMARK    8  A    between atoms: C_18  and  N_19
REMARK    9  A    between atoms: N_19  and  C_20
REMARK   10  A    between atoms: C_27  and  C_28
REMARK   11  A    between atoms: C_27  and  C_29
REMARK                            x       y       z     vdW  Elec       q    Type
REMARK                         _______ _______ _______ _____ _____    ______ ____
ROOT
ATOM      1  C   UNL     1       0.588   9.601  19.472  0.00  0.00    +0.000 A 
ATOM      2  C   UNL     1       0.757   8.882  20.664  0.00  0.00    +0.000 A 
ATOM      3  C   UNL     1       1.643   7.801  20.753  0.00  0.00    +0.000 A 
ATOM      4  C   UNL     1       2.366   7.373  19.644  0.00  0.00    +0.000 A 
ATOM      5  C   UNL     1       2.219   8.107  18.458  0.00  0.00    +0.000 A 
ATOM      6  C   UNL     1       1.331   9.197  18.364  0.00  0.00    +0.000 A 
ENDROOT
BRANCH   1  10
ATOM      7  N   UNL     1      -0.984  12.961  19.493  0.00  0.00    +0.000 N 
ATOM      8  C   UNL     1       0.073  12.001  19.642  0.00  0.00    +0.000 C 
ATOM      9  O   UNL     1       1.172  12.376  20.004  0.00  0.00    +0.000 OA
ATOM     10  N   UNL     1      -0.300  10.710  19.354  0.00  0.00    +0.000 N 
ATOM     11  H   UNL     1      -1.945  12.663  19.428  0.00  0.00    +0.000 HD
ATOM     12  H   UNL     1      -1.197  10.528  18.923  0.00  0.00    +0.000 HD
BRANCH   7  18
ATOM     13  C   UNL     1      -1.627  15.009  21.826  0.00  0.00    +0.000 C 
ATOM     14  N   UNL     1      -0.949  15.231  20.572  0.00  0.00    +0.000 N 
ATOM     15  N   UNL     1      -0.440  16.461  20.341  0.00  0.00    +0.000 NA
ATOM     16  C   UNL     1       0.117  16.378  19.127  0.00  0.00    +0.000 A 
ATOM     17  C   UNL     1      -0.058  15.083  18.595  0.00  0.00    +0.000 A 
ATOM     18  C   UNL     1      -0.686  14.331  19.570  0.00  0.00    +0.000 A 
BRANCH  16  19
ATOM     19  C   UNL     1       0.802  17.573  18.487  0.00  0.00    +0.000 C 
ATOM     20  C   UNL     1       1.145  18.631  19.555  0.00  0.00    +0.000 C 
ATOM     21  C   UNL     1       2.124  17.174  17.788  0.00  0.00    +0.000 C 
ATOM     22  C   UNL     1      -0.124  18.195  17.427  0.00  0.00    +0.000 C 
ENDBRANCH  16  19
ENDBRANCH   7  18
ENDBRANCH   1  10
BRANCH   4  23
ATOM     23  N   UNL     1       3.193   6.238  19.761  0.00  0.00    +0.000 N 
ATOM     24  H   UNL     1       3.181   5.815  20.685  0.00  0.00    +0.000 HD
BRANCH  23  25
ATOM     25  C   UNL     1       3.439   5.254  18.774  0.00  0.00    +0.000 A 
ATOM     26  N   UNL     1       2.555   4.252  18.600  0.00  0.00    +0.000 NA
ATOM     27  C   UNL     1       2.780   3.388  17.606  0.00  0.00    +0.000 A 
ATOM     28  N   UNL     1       3.795   3.435  16.743  0.00  0.00    +0.000 NA
ATOM     29  C   UNL     1       4.672   4.425  16.952  0.00  0.00    +0.000 A 
ATOM     30  C   UNL     1       4.576   5.356  17.971  0.00  0.00    +0.000 A 
ATOM     31  O   UNL     1       5.507   6.340  18.198  0.00  0.00    +0.000 OA
ATOM     32  C   UNL     1       6.783   6.084  17.575  0.00  0.00    +0.000 C 
ATOM     33  C   UNL     1       7.584   5.123  18.475  0.00  0.00    +0.000 C 
ATOM     34  C   UNL     1       7.537   7.416  17.497  0.00  0.00    +0.000 C 
ATOM     35  C   UNL     1       6.696   5.458  16.164  0.00  0.00    +0.000 C 
ATOM     36  O   UNL     1       7.491   5.677  15.255  0.00  0.00    +0.000 OA
ATOM     37  N   UNL     1       5.712   4.519  16.036  0.00  0.00    +0.000 N 
ATOM     38  H   UNL     1       5.661   3.958  15.199  0.00  0.00    +0.000 HD
ENDBRANCH  23  25
ENDBRANCH   4  23
TORSDOF 5
ENDMDL
MODEL 5
REMARK VINA RESULT:      -9.1      1.100      1.845
REMARK  Name = 
REMARK  11 active torsions:
REMARK  status: ('A' for Active; 'I' for Inactive)
REMARK    1  A    between atoms: C_1  and  N_2
REMARK    2  A    between atoms: C_4  and  C_5
REMARK    3  A    between atoms: C_5  and  C_6
REMARK    4  A    between atoms: C_5  and  C_7
REMARK    5  A    between atoms: C_5  and  C_8
REMARK    6  A    between atoms: C_10  and  N_11
REMARK    7  A    between atoms: N_14  and  C_15
REMARK    8  A    between atoms: C_18  and  N_19
REMARK    9  A    between atoms: N_19  and  C_20
REMARK   10  A    between atoms: C_27  and  C_28
REMARK   11  A    between atoms: C_27  and  C_29
REMARK                            x       y       z     vdW  Elec       q    Type
REMARK                         _______ _______ _______ _____ _____    ______ ____
ROOT
ATOM      1  C   UNL     1       1.098   9.436  19.078  0.00  0.00    +0.000 A 
ATOM      2  C   UNL     1       1.154   8.811  20.332  0.00  0.00    +0.000 A 
ATOM      3  C   UNL     1       1.926   7.662  20.548  0.00  0.00    +0.000 A 
ATOM      4  C   UNL     1       2.640   7.072  19.510  0.00  0.00    +0.000 A 
ATOM      5  C   UNL     1       2.608   7.711  18.263  0.00  0.00    +0.000 A 
ATOM      6  C   UNL     1       1.835   8.869  18.040  0.00  0.00    +0.000 A 
ENDROOT
BRANCH   1  10
ATOM      7  N   UNL     1      -1.612  11.941  18.702  0.00  0.00    +0.000 N 
ATOM      8  C   UNL     1      -1.026  10.678  19.049  0.00  0.00    +0.000 C 
ATOM      9  O   UNL     1      -1.737   9.791  19.484  0.00  0.00    +0.000 OA
ATOM     10  N   UNL     1       0.329  10.611  18.832  0.00  0.00    +0.000 N 
ATOM     11  H   UNL     1      -1.110  12.602  18.128  0.00  0.00    +0.000 HD
ATOM     12  H   UNL     1       0.845  11.451  18.605  0.00  0.00    +0.000 HD
BRANCH   7  18
ATOM     13  C   UNL     1      -2.738  13.473  21.239  0.00  0.00    +0.000 C 
ATOM     14  N   UNL     1      -3.453  12.868  20.141  0.00  0.00    +0.000 N 
ATOM     15  N   UNL     1      -4.797  13.004  20.114  0.00  0.00    +0.000 NA
ATOM     16  C   UNL     1      -5.184  12.355  19.009  0.00  0.00    +0.000 A 
ATOM     17  C   UNL     1      -4.066  11.801  18.349  0.00  0.00    +0.000 A 
ATOM     18  C   UNL     1      -2.946  12.202  19.053  0.00  0.00    +0.000 A 
BRANCH  16  19
ATOM     19  C   UNL     1      -6.648  12.264  18.616  0.00  0.00    +0.000 C 
ATOM     20  C   UNL     1      -7.518  13.073  19.598  0.00  0.00    +0.000 C 
ATOM     21  C   UNL     1      -6.900  12.830  17.197  0.00  0.00    +0.000 C 
ATOM     22  C   UNL     1      -7.097  10.792  18.624  0.00  0.00    +0.000 C 
ENDBRANCH  16  19
ENDBRANCH   7  18
ENDBRANCH   1  10
BRANCH   4  23
ATOM     23  N   UNL     1       3.347   5.877  19.757  0.00  0.00    +0.000 N 
ATOM     24  H   UNL     1       3.154   5.466  20.666  0.00  0.00    +0.000 HD
BRANCH  23  25
ATOM     25  C   UNL     1       3.670   4.867  18.820  0.00  0.00    +0.000 A 
ATOM     26  N   UNL     1       2.876   3.784  18.711  0.00  0.00    +0.000 NA
ATOM     27  C   UNL     1       3.168   2.891  17.761  0.00  0.00    +0.000 A 
ATOM     28  N   UNL     1       4.168   2.980  16.883  0.00  0.00    +0.000 NA
ATOM     29  C   UNL     1       4.956   4.052  17.028  0.00  0.00    +0.000 A 
ATOM     30  C   UNL     1       4.787   5.025  17.997  0.00  0.00    +0.000 A 
ATOM     31  O   UNL     1       5.630   6.097  18.161  0.00  0.00    +0.000 OA
ATOM     32  C   UNL     1       6.918   5.920  17.536  0.00  0.00    +0.000 C 
ATOM     33  C   UNL     1       7.808   5.083  18.474  0.00  0.00    +0.000 C 
ATOM     34  C   UNL     1       7.551   7.307  17.377  0.00  0.00    +0.000 C 
ATOM     35  C   UNL     1       6.875   5.214  16.160  0.00  0.00    +0.000 C 
ATOM     36  O   UNL     1       7.640   5.452  15.231  0.00  0.00    +0.000 OA
ATOM     37  N   UNL     1       5.975   4.188  16.095  0.00  0.00    +0.000 N 
ATOM     38  H   UNL     1       5.968   3.579  15.290  0.00  0.00    +0.000 HD
ENDBRANCH  23  25
ENDBRANCH   4  23
TORSDOF 5
ENDMDL
MODEL 6
REMARK VINA RESULT:      -9.1      3.403      4.435
REMARK  Name = 
REMARK  11 active torsions:
REMARK  status: ('A' for Active; 'I' for Inactive)
REMARK    1  A    between atoms: C_1  and  N_2
REMARK    2  A    between atoms: C_4  and  C_5
REMARK    3  A    between atoms: C_5  and  C_6
REMARK    4  A    between atoms: C_5  and  C_7
REMARK    5  A    between atoms: C_5  and  C_8
REMARK    6  A    between atoms: C_10  and  N_11
REMARK    7  A    between atoms: N_14  and  C_15
REMARK    8  A    between atoms: C_18  and  N_19
REMARK    9  A    between atoms: N_19  and  C_20
REMARK   10  A    between atoms: C_27  and  C_28
REMARK   11  A    between atoms: C_27  and  C_29
REMARK                            x       y       z     vdW  Elec       q    Type
REMARK                         _______ _______ _______ _____ _____    ______ ____
ROOT
ATOM      1  C   UNL     1       0.981   9.520  18.804  0.00  0.00    +0.000 A 
ATOM      2  C   UNL     1       0.965   8.977  20.097  0.00  0.00    +0.000 A 
ATOM      3  C   UNL     1       1.731   7.854  20.433  0.00  0.00    +0.000 A 
ATOM      4  C   UNL     1       2.513   7.207  19.480  0.00  0.00    +0.000 A 
ATOM      5  C   UNL     1       2.552   7.765  18.195  0.00  0.00    +0.000 A 
ATOM      6  C   UNL     1       1.785   8.897  17.852  0.00  0.00    +0.000 A 
ENDROOT
BRANCH   1  10
ATOM      7  N   UNL     1      -0.574  12.881  18.588  0.00  0.00    +0.000 N 
ATOM      8  C   UNL     1       0.306  11.868  19.097  0.00  0.00    +0.000 C 
ATOM      9  O   UNL     1       1.028  12.126  20.041  0.00  0.00    +0.000 OA
ATOM     10  N   UNL     1       0.218  10.667  18.436  0.00  0.00    +0.000 N 
ATOM     11  H   UNL     1      -1.340  12.639  17.978  0.00  0.00    +0.000 HD
ATOM     12  H   UNL     1      -0.308  10.603  17.574  0.00  0.00    +0.000 HD
BRANCH   7  18
ATOM     13  C   UNL     1      -2.240  14.376  20.835  0.00  0.00    +0.000 C 
ATOM     14  N   UNL     1      -1.151  14.864  20.023  0.00  0.00    +0.000 N 
ATOM     15  N   UNL     1      -0.697  16.113  20.263  0.00  0.00    +0.000 NA
ATOM     16  C   UNL     1       0.292  16.294  19.379  0.00  0.00    +0.000 A 
ATOM     17  C   UNL     1       0.445  15.145  18.574  0.00  0.00    +0.000 A 
ATOM     18  C   UNL     1      -0.446  14.201  19.049  0.00  0.00    +0.000 A 
BRANCH  16  19
ATOM     19  C   UNL     1       1.068  17.598  19.315  0.00  0.00    +0.000 C 
ATOM     20  C   UNL     1       0.940  18.230  17.915  0.00  0.00    +0.000 C 
ATOM     21  C   UNL     1       0.546  18.631  20.342  0.00  0.00    +0.000 C 
ATOM     22  C   UNL     1       2.552  17.332  19.625  0.00  0.00    +0.000 C 
ENDBRANCH  16  19
ENDBRANCH   7  18
ENDBRANCH   1  10
BRANCH   4  23
ATOM     23  N   UNL     1       3.213   6.040  19.846  0.00  0.00    +0.000 N 
ATOM     24  H   UNL     1       2.981   5.695  20.773  0.00  0.00    +0.000 HD
BRANCH  23  25
ATOM     25  C   UNL     1       3.582   4.966  19.002  0.00  0.00    +0.000 A 
ATOM     26  N   UNL     1       2.816   3.858  18.962  0.00  0.00    +0.000 NA
ATOM     27  C   UNL     1       3.152   2.899  18.095  0.00  0.00    +0.000 A 
ATOM     28  N   UNL     1       4.171   2.941  17.236  0.00  0.00    +0.000 NA
ATOM     29  C   UNL     1       4.931   4.040  17.312  0.00  0.00    +0.000 A 
ATOM     30  C   UNL     1       4.716   5.084  18.196  0.00  0.00    +0.000 A 
ATOM     31  O   UNL     1       5.530   6.186  18.292  0.00  0.00    +0.000 OA
ATOM     32  C   UNL     1       6.838   5.991  17.713  0.00  0.00    +0.000 C 
ATOM     33  C   UNL     1       7.721   5.254  18.737  0.00  0.00    +0.000 C 
ATOM     34  C   UNL     1       7.443   7.375  17.458  0.00  0.00    +0.000 C 
ATOM     35  C   UNL     1       6.845   5.176  16.399  0.00  0.00    +0.000 C 
ATOM     36  O   UNL     1       7.627   5.357  15.472  0.00  0.00    +0.000 OA
ATOM     37  N   UNL     1       5.971   4.126  16.396  0.00  0.00    +0.000 N 
ATOM     38  H   UNL     1       5.997   3.455  15.643  0.00  0.00    +0.000 HD
ENDBRANCH  23  25
ENDBRANCH   4  23
TORSDOF 5
ENDMDL
MODEL 7
REMARK VINA RESULT:      -9.0      1.187      1.599
REMARK  Name = 
REMARK  11 active torsions:
REMARK  status: ('A' for Active; 'I' for Inactive)
REMARK    1  A    between atoms: C_1  and  N_2
REMARK    2  A    between atoms: C_4  and  C_5
REMARK    3  A    between atoms: C_5  and  C_6
REMARK    4  A    between atoms: C_5  and  C_7
REMARK    5  A    between atoms: C_5  and  C_8
REMARK    6  A    between atoms: C_10  and  N_11
REMARK    7  A    between atoms: N_14  and  C_15
REMARK    8  A    between atoms: C_18  and  N_19
REMARK    9  A    between atoms: N_19  and  C_20
REMARK   10  A    between atoms: C_27  and  C_28
REMARK   11  A    between atoms: C_27  and  C_29
REMARK                            x       y       z     vdW  Elec       q    Type
REMARK                         _______ _______ _______ _____ _____    ______ ____
ROOT
ATOM      1  C   UNL     1       1.002   9.481  19.046  0.00  0.00    +0.000 A 
ATOM      2  C   UNL     1       1.705   8.835  18.019  0.00  0.00    +0.000 A 
ATOM      3  C   UNL     1       2.452   7.675  18.254  0.00  0.00    +0.000 A 
ATOM      4  C   UNL     1       2.557   7.136  19.533  0.00  0.00    +0.000 A 
ATOM      5  C   UNL     1       1.833   7.764  20.556  0.00  0.00    +0.000 A 
ATOM      6  C   UNL     1       1.077   8.931  20.324  0.00  0.00    +0.000 A 
ENDROOT
BRANCH   1  10
ATOM      7  N   UNL     1      -1.699  12.016  18.852  0.00  0.00    +0.000 N 
ATOM      8  C   UNL     1      -1.097  10.757  19.188  0.00  0.00    +0.000 C 
ATOM      9  O   UNL     1      -1.770   9.900  19.730  0.00  0.00    +0.000 OA
ATOM     10  N   UNL     1       0.226  10.658  18.833  0.00  0.00    +0.000 N 
ATOM     11  H   UNL     1      -1.252  12.645  18.204  0.00  0.00    +0.000 HD
ATOM     12  H   UNL     1       0.727  11.480  18.520  0.00  0.00    +0.000 HD
BRANCH   7  18
ATOM     13  C   UNL     1      -2.536  13.479  21.538  0.00  0.00    +0.000 C 
ATOM     14  N   UNL     1      -3.368  12.951  20.484  0.00  0.00    +0.000 N 
ATOM     15  N   UNL     1      -4.702  13.140  20.580  0.00  0.00    +0.000 NA
ATOM     16  C   UNL     1      -5.211  12.555  19.489  0.00  0.00    +0.000 A 
ATOM     17  C   UNL     1      -4.179  11.987  18.712  0.00  0.00    +0.000 A 
ATOM     18  C   UNL     1      -2.986  12.314  19.330  0.00  0.00    +0.000 A 
BRANCH  16  19
ATOM     19  C   UNL     1      -6.706  12.540  19.223  0.00  0.00    +0.000 C 
ATOM     20  C   UNL     1      -6.993  11.997  17.808  0.00  0.00    +0.000 C 
ATOM     21  C   UNL     1      -7.461  11.638  20.229  0.00  0.00    +0.000 C 
ATOM     22  C   UNL     1      -7.270  13.966  19.350  0.00  0.00    +0.000 C 
ENDBRANCH  16  19
ENDBRANCH   7  18
ENDBRANCH   1  10
BRANCH   4  23
ATOM     23  N   UNL     1       3.376   6.007  19.736  0.00  0.00    +0.000 N 
ATOM     24  H   UNL     1       3.307   5.612  20.670  0.00  0.00    +0.000 HD
BRANCH  23  25
ATOM     25  C   UNL     1       3.684   4.995  18.797  0.00  0.00    +0.000 A 
ATOM     26  N   UNL     1       2.875   3.922  18.687  0.00  0.00    +0.000 NA
ATOM     27  C   UNL     1       3.154   3.028  17.735  0.00  0.00    +0.000 A 
ATOM     28  N   UNL     1       4.153   3.105  16.855  0.00  0.00    +0.000 NA
ATOM     29  C   UNL     1       4.955   4.166  17.001  0.00  0.00    +0.000 A 
ATOM     30  C   UNL     1       4.801   5.140  17.972  0.00  0.00    +0.000 A 
ATOM     31  O   UNL     1       5.659   6.200  18.136  0.00  0.00    +0.000 OA
ATOM     32  C   UNL     1       6.943   6.008  17.508  0.00  0.00    +0.000 C 
ATOM     33  C   UNL     1       7.823   5.157  18.444  0.00  0.00    +0.000 C 
ATOM     34  C   UNL     1       7.595   7.386  17.352  0.00  0.00    +0.000 C 
ATOM     35  C   UNL     1       6.888   5.305  16.132  0.00  0.00    +0.000 C 
ATOM     36  O   UNL     1       7.654   5.535  15.201  0.00  0.00    +0.000 OA
ATOM     37  N   UNL     1       5.975   4.291  16.066  0.00  0.00    +0.000 N 
ATOM     38  H   UNL     1       5.957   3.684  15.260  0.00  0.00    +0.000 HD
ENDBRANCH  23  25
ENDBRANCH   4  23
TORSDOF 5
ENDMDL
MODEL 8
REMARK VINA RESULT:      -9.0      3.007      4.079
REMARK  Name = 
REMARK  11 active torsions:
REMARK  status: ('A' for Active; 'I' for Inactive)
REMARK    1  A    between atoms: C_1  and  N_2
REMARK    2  A    between atoms: C_4  and  C_5
REMARK    3  A    between atoms: C_5  and  C_6
REMARK    4  A    between atoms: C_5  and  C_7
REMARK    5  A    between atoms: C_5  and  C_8
REMARK    6  A    between atoms: C_10  and  N_11
REMARK    7  A    between atoms: N_14  and  C_15
REMARK    8  A    between atoms: C_18  and  N_19
REMARK    9  A    between atoms: N_19  and  C_20
REMARK   10  A    between atoms: C_27  and  C_28
REMARK   11  A    between atoms: C_27  and  C_29
REMARK                            x       y       z     vdW  Elec       q    Type
REMARK                         _______ _______ _______ _____ _____    ______ ____
ROOT
ATOM      1  C   UNL     1       1.021   9.960  20.462  0.00  0.00    +0.000 A 
ATOM      2  C   UNL     1       1.308   8.657  20.894  0.00  0.00    +0.000 A 
ATOM      3  C   UNL     1       1.816   7.687  20.021  0.00  0.00    +0.000 A 
ATOM      4  C   UNL     1       2.022   7.970  18.675  0.00  0.00    +0.000 A 
ATOM      5  C   UNL     1       1.762   9.279  18.246  0.00  0.00    +0.000 A 
ATOM      6  C   UNL     1       1.253  10.261  19.121  0.00  0.00    +0.000 A 
ENDROOT
BRANCH   1  10
ATOM      7  N   UNL     1      -1.010  12.594  22.104  0.00  0.00    +0.000 N 
ATOM      8  C   UNL     1      -0.704  11.579  21.136  0.00  0.00    +0.000 C 
ATOM      9  O   UNL     1      -1.501  11.345  20.246  0.00  0.00    +0.000 OA
ATOM     10  N   UNL     1       0.511  10.970  21.330  0.00  0.00    +0.000 N 
ATOM     11  H   UNL     1      -0.289  12.973  22.699  0.00  0.00    +0.000 HD
ATOM     12  H   UNL     1       1.029  11.137  22.182  0.00  0.00    +0.000 HD
BRANCH   7  18
ATOM     13  C   UNL     1      -2.057  15.238  20.702  0.00  0.00    +0.000 C 
ATOM     14  N   UNL     1      -2.771  14.293  21.526  0.00  0.00    +0.000 N 
ATOM     15  N   UNL     1      -4.097  14.486  21.703  0.00  0.00    +0.000 NA
ATOM     16  C   UNL     1      -4.487  13.480  22.496  0.00  0.00    +0.000 A 
ATOM     17  C   UNL     1      -3.386  12.660  22.823  0.00  0.00    +0.000 A 
ATOM     18  C   UNL     1      -2.297  13.155  22.131  0.00  0.00    +0.000 A 
BRANCH  16  19
ATOM     19  C   UNL     1      -5.931  13.340  22.943  0.00  0.00    +0.000 C 
ATOM     20  C   UNL     1      -6.762  12.627  21.857  0.00  0.00    +0.000 C 
ATOM     21  C   UNL     1      -6.053  12.508  24.243  0.00  0.00    +0.000 C 
ATOM     22  C   UNL     1      -6.527  14.732  23.215  0.00  0.00    +0.000 C 
ENDBRANCH  16  19
ENDBRANCH   7  18
ENDBRANCH   1  10
BRANCH   4  23
ATOM     23  N   UNL     1       2.469   6.943  17.818  0.00  0.00    +0.000 N 
ATOM     24  H   UNL     1       2.098   7.005  16.875  0.00  0.00    +0.000 HD
BRANCH  23  25
ATOM     25  C   UNL     1       3.748   6.340  17.804  0.00  0.00    +0.000 A 
ATOM     26  N   UNL     1       4.778   6.979  17.215  0.00  0.00    +0.000 NA
ATOM     27  C   UNL     1       5.987   6.415  17.292  0.00  0.00    +0.000 A 
ATOM     28  N   UNL     1       6.282   5.278  17.923  0.00  0.00    +0.000 NA
ATOM     29  C   UNL     1       5.239   4.651  18.479  0.00  0.00    +0.000 A 
ATOM     30  C   UNL     1       3.933   5.107  18.432  0.00  0.00    +0.000 A 
ATOM     31  O   UNL     1       2.866   4.429  18.970  0.00  0.00    +0.000 OA
ATOM     32  C   UNL     1       3.132   3.032  19.215  0.00  0.00    +0.000 C 
ATOM     33  C   UNL     1       2.952   2.260  17.894  0.00  0.00    +0.000 C 
ATOM     34  C   UNL     1       2.088   2.529  20.217  0.00  0.00    +0.000 C 
ATOM     35  C   UNL     1       4.550   2.732  19.756  0.00  0.00    +0.000 C 
ATOM     36  O   UNL     1       4.819   1.830  20.542  0.00  0.00    +0.000 OA
ATOM     37  N   UNL     1       5.532   3.488  19.180  0.00  0.00    +0.000 N 
ATOM     38  H   UNL     1       6.501   3.275  19.364  0.00  0.00    +0.000 HD
ENDBRANCH  23  25
ENDBRANCH   4  23
TORSDOF 5
ENDMDL
MODEL 9
REMARK VINA RESULT:      -8.9      3.032      3.513
REMARK  Name = 
REMARK  11 active torsions:
REMARK  status: ('A' for Active; 'I' for Inactive)
REMARK    1  A    between atoms: C_1  and  N_2
REMARK    2  A    between atoms: C_4  and  C_5
REMARK    3  A    between atoms: C_5  and  C_6
REMARK    4  A    between atoms: C_5  and  C_7
REMARK    5  A    between atoms: C_5  and  C_8
REMARK    6  A    between atoms: C_10  and  N_11
REMARK    7  A    between atoms: N_14  and  C_15
REMARK    8  A    between atoms: C_18  and  N_19
REMARK    9  A    between atoms: N_19  and  C_20
REMARK   10  A    between atoms: C_27  and  C_28
REMARK   11  A    between atoms: C_27  and  C_29
REMARK                            x       y       z     vdW  Elec       q    Type
REMARK                         _______ _______ _______ _____ _____    ______ ____
ROOT
ATOM      1  C   UNL     1       0.673   9.383  21.116  0.00  0.00    +0.000 A 
ATOM      2  C   UNL     1       0.776   9.921  19.825  0.00  0.00    +0.000 A 
ATOM      3  C   UNL     1       1.427   9.235  18.791  0.00  0.00    +0.000 A 
ATOM      4  C   UNL     1       2.033   8.003  19.018  0.00  0.00    +0.000 A 
ATOM      5  C   UNL     1       1.908   7.452  20.301  0.00  0.00    +0.000 A 
ATOM      6  C   UNL     1       1.252   8.136  21.344  0.00  0.00    +0.000 A 
ENDROOT
BRANCH   1  10
ATOM      7  N   UNL     1      -1.329  11.701  23.208  0.00  0.00    +0.000 N 
ATOM      8  C   UNL     1      -0.786  11.159  21.995  0.00  0.00    +0.000 C 
ATOM      9  O   UNL     1      -1.046  11.694  20.934  0.00  0.00    +0.000 OA
ATOM     10  N   UNL     1       0.009  10.054  22.184  0.00  0.00    +0.000 N 
ATOM     11  H   UNL     1      -0.952  11.437  24.105  0.00  0.00    +0.000 HD
ATOM     12  H   UNL     1       0.042   9.606  23.090  0.00  0.00    +0.000 HD
BRANCH   7  18
ATOM     13  C   UNL     1      -0.941  14.832  22.884  0.00  0.00    +0.000 C 
ATOM     14  N   UNL     1      -2.159  14.065  22.989  0.00  0.00    +0.000 N 
ATOM     15  N   UNL     1      -3.331  14.726  22.873  0.00  0.00    +0.000 NA
ATOM     16  C   UNL     1      -4.271  13.783  23.011  0.00  0.00    +0.000 A 
ATOM     17  C   UNL     1      -3.673  12.523  23.225  0.00  0.00    +0.000 A 
ATOM     18  C   UNL     1      -2.306  12.708  23.136  0.00  0.00    +0.000 A 
BRANCH  16  19
ATOM     19  C   UNL     1      -5.750  14.124  22.950  0.00  0.00    +0.000 C 
ATOM     20  C   UNL     1      -6.179  14.394  21.494  0.00  0.00    +0.000 C 
ATOM     21  C   UNL     1      -6.630  12.971  23.489  0.00  0.00    +0.000 C 
ATOM     22  C   UNL     1      -6.029  15.372  23.807  0.00  0.00    +0.000 C 
ENDBRANCH  16  19
ENDBRANCH   7  18
ENDBRANCH   1  10
BRANCH   4  23
ATOM     23  N   UNL     1       2.737   7.382  17.967  0.00  0.00    +0.000 N 
ATOM     24  H   UNL     1       3.495   7.945  17.591  0.00  0.00    +0.000 HD
BRANCH  23  25
ATOM     25  C   UNL     1       3.036   6.005  17.835  0.00  0.00    +0.000 A 
ATOM     26  N   UNL     1       2.033   5.105  17.828  0.00  0.00    +0.000 NA
ATOM     27  C   UNL     1       2.348   3.824  17.622  0.00  0.00    +0.000 A 
ATOM     28  N   UNL     1       3.572   3.344  17.396  0.00  0.00    +0.000 NA
ATOM     29  C   UNL     1       4.553   4.254  17.432  0.00  0.00    +0.000 A 
ATOM     30  C   UNL     1       4.364   5.603  17.679  0.00  0.00    +0.000 A 
ATOM     31  O   UNL     1       5.386   6.517  17.756  0.00  0.00    +0.000 OA
ATOM     32  C   UNL     1       6.681   5.920  17.975  0.00  0.00    +0.000 C 
ATOM     33  C   UNL     1       6.836   5.626  19.480  0.00  0.00    +0.000 C 
ATOM     34  C   UNL     1       7.741   6.949  17.571  0.00  0.00    +0.000 C 
ATOM     35  C   UNL     1       6.922   4.602  17.202  0.00  0.00    +0.000 C 
ATOM     36  O   UNL     1       8.008   4.243  16.759  0.00  0.00    +0.000 OA
ATOM     37  N   UNL     1       5.829   3.783  17.154  0.00  0.00    +0.000 N 
ATOM     38  H   UNL     1       5.922   2.846  16.792  0.00  0.00    +0.000 HD
ENDBRANCH  23  25
ENDBRANCH   4  23
TORSDOF 5
ENDMDL
