MODEL 1
REMARK VINA RESULT:      -5.3      0.000      0.000
REMARK  Name = 
REMARK  4 active torsions:
REMARK  status: ('A' for Active; 'I' for Inactive)
REMARK    1  A    between atoms: C_1  and  O_2
REMARK    2  A    between atoms: O_2  and  C_3
REMARK    3  A    between atoms: C_10  and  O_11
REMARK    4  A    between atoms: O_11  and  C_12
REMARK                            x       y       z     vdW  Elec       q    Type
REMARK                         _______ _______ _______ _____ _____    ______ ____
ROOT
ATOM      1  C   UNL     1       3.892   3.611  19.193  0.00  0.00    +0.000 C 
ATOM      2  C   UNL     1       2.876   4.152  19.883  0.00  0.00    +0.000 C 
ATOM      3  I   UNL     1       1.797   3.050  21.302  0.00  0.00    +0.000 I 
ATOM      4  C   UNL     1       2.457   5.568  19.694  0.00  0.00    +0.000 C 
ATOM      5  O   UNL     1       1.630   6.094  20.431  0.00  0.00    +0.000 OA
ATOM      6  C   UNL     1       3.083   6.315  18.568  0.00  0.00    +0.000 C 
ATOM      7  I   UNL     1       2.300   8.225  18.184  0.00  0.00    +0.000 I 
ATOM      8  C   UNL     1       4.091   5.806  17.838  0.00  0.00    +0.000 C 
ATOM      9  C   UNL     1       4.607   4.434  18.161  0.00  0.00    +0.000 C 
ATOM     10  O   UNL     1       5.587   3.980  17.581  0.00  0.00    +0.000 OA
ENDROOT
BRANCH   1  12
ATOM     11  C   UNL     1       3.698   1.289  18.550  0.00  0.00    +0.000 C 
ATOM     12  O   UNL     1       4.235   2.280  19.422  0.00  0.00    +0.000 OA
ENDBRANCH   1  12
BRANCH   8  13
ATOM     13  O   UNL     1       4.623   6.581  16.808  0.00  0.00    +0.000 OA
ATOM     14  C   UNL     1       5.943   7.099  16.916  0.00  0.00    +0.000 C 
ENDBRANCH   8  13
TORSDOF 2
ENDMDL
MODEL 2
REMARK VINA RESULT:      -5.0      0.323      4.097
REMARK  Name = 
REMARK  4 active torsions:
REMARK  status: ('A' for Active; 'I' for Inactive)
REMARK    1  A    between atoms: C_1  and  O_2
REMARK    2  A    between atoms: O_2  and  C_3
REMARK    3  A    between atoms: C_10  and  O_11
REMARK    4  A    between atoms: O_11  and  C_12
REMARK                            x       y       z     vdW  Elec       q    Type
REMARK                         _______ _______ _______ _____ _____    ______ ____
ROOT
ATOM      1  C   UNL     1       3.933   5.709  17.610  0.00  0.00    +0.000 C 
ATOM      2  C   UNL     1       2.988   6.239  18.403  0.00  0.00    +0.000 C 
ATOM      3  I   UNL     1       2.380   8.235  18.211  0.00  0.00    +0.000 I 
ATOM      4  C   UNL     1       2.306   5.443  19.460  0.00  0.00    +0.000 C 
ATOM      5  O   UNL     1       1.344   5.890  20.076  0.00  0.00    +0.000 OA
ATOM      6  C   UNL     1       2.844   4.083  19.738  0.00  0.00    +0.000 C 
ATOM      7  I   UNL     1       2.013   3.085  21.388  0.00  0.00    +0.000 I 
ATOM      8  C   UNL     1       3.802   3.519  18.982  0.00  0.00    +0.000 C 
ATOM      9  C   UNL     1       4.357   4.284  17.816  0.00  0.00    +0.000 C 
ATOM     10  O   UNL     1       5.160   3.763  17.048  0.00  0.00    +0.000 OA
ENDROOT
BRANCH   1  12
ATOM     11  C   UNL     1       5.863   6.955  16.862  0.00  0.00    +0.000 C 
ATOM     12  O   UNL     1       4.529   6.509  16.637  0.00  0.00    +0.000 OA
ENDBRANCH   1  12
BRANCH   8  13
ATOM     13  O   UNL     1       4.241   2.237  19.311  0.00  0.00    +0.000 OA
ATOM     14  C   UNL     1       3.783   1.116  18.565  0.00  0.00    +0.000 C 
ENDBRANCH   8  13
TORSDOF 2
ENDMDL
MODEL 3
REMARK VINA RESULT:      -4.6      2.040      4.736
REMARK  Name = 
REMARK  4 active torsions:
REMARK  status: ('A' for Active; 'I' for Inactive)
REMARK    1  A    between atoms: C_1  and  O_2
REMARK    2  A    between atoms: O_2  and  C_3
REMARK    3  A    between atoms: C_10  and  O_11
REMARK    4  A    between atoms: O_11  and  C_12
REMARK                            x       y       z     vdW  Elec       q    Type
REMARK                         _______ _______ _______ _____ _____    ______ ____
ROOT
ATOM      1  C   UNL     1       2.128   6.630  19.824  0.00  0.00    +0.000 C 
ATOM      2  C   UNL     1       2.569   7.239  18.712  0.00  0.00    +0.000 C 
ATOM      3  I   UNL     1       1.816   9.096  18.098  0.00  0.00    +0.000 I 
ATOM      4  C   UNL     1       3.625   6.641  17.849  0.00  0.00    +0.000 C 
ATOM      5  O   UNL     1       4.126   7.270  16.922  0.00  0.00    +0.000 OA
ATOM      6  C   UNL     1       4.045   5.246  18.160  0.00  0.00    +0.000 C 
ATOM      7  I   UNL     1       5.359   4.355  16.786  0.00  0.00    +0.000 I 
ATOM      8  C   UNL     1       3.615   4.592  19.252  0.00  0.00    +0.000 C 
ATOM      9  C   UNL     1       2.675   5.283  20.196  0.00  0.00    +0.000 C 
ATOM     10  O   UNL     1       2.342   4.753  21.251  0.00  0.00    +0.000 OA
ENDROOT
BRANCH   1  12
ATOM     11  C   UNL     1       1.542   8.232  21.536  0.00  0.00    +0.000 C 
ATOM     12  O   UNL     1       1.140   7.247  20.588  0.00  0.00    +0.000 OA
ENDBRANCH   1  12
BRANCH   8  13
ATOM     13  O   UNL     1       4.067   3.290  19.468  0.00  0.00    +0.000 OA
ATOM     14  C   UNL     1       3.219   2.185  19.183  0.00  0.00    +0.000 C 
ENDBRANCH   8  13
TORSDOF 2
ENDMDL
MODEL 4
REMARK VINA RESULT:      -4.5      2.125      3.629
REMARK  Name = 
REMARK  4 active torsions:
REMARK  status: ('A' for Active; 'I' for Inactive)
REMARK    1  A    between atoms: C_1  and  O_2
REMARK    2  A    between atoms: O_2  and  C_3
REMARK    3  A    between atoms: C_10  and  O_11
REMARK    4  A    between atoms: O_11  and  C_12
REMARK                            x       y       z     vdW  Elec       q    Type
REMARK                         _______ _______ _______ _____ _____    ______ ____
ROOT
ATOM      1  C   UNL     1       4.139   4.726  19.415  0.00  0.00    +0.000 C 
ATOM      2  C   UNL     1       4.579   5.391  18.335  0.00  0.00    +0.000 C 
ATOM      3  I   UNL     1       6.292   4.788  17.290  0.00  0.00    +0.000 I 
ATOM      4  C   UNL     1       3.876   6.592  17.806  0.00  0.00    +0.000 C 
ATOM      5  O   UNL     1       4.198   7.103  16.738  0.00  0.00    +0.000 OA
ATOM      6  C   UNL     1       2.768   7.148  18.632  0.00  0.00    +0.000 C 
ATOM      7  I   UNL     1       1.958   8.971  17.976  0.00  0.00    +0.000 I 
ATOM      8  C   UNL     1       2.307   6.525  19.730  0.00  0.00    +0.000 C 
ATOM      9  C   UNL     1       2.928   5.224  20.148  0.00  0.00    +0.000 C 
ATOM     10  O   UNL     1       2.468   4.581  21.086  0.00  0.00    +0.000 OA
ENDROOT
BRANCH   1  12
ATOM     11  C   UNL     1       4.284   2.321  19.602  0.00  0.00    +0.000 C 
ATOM     12  O   UNL     1       4.843   3.607  19.855  0.00  0.00    +0.000 OA
ENDBRANCH   1  12
BRANCH   8  13
ATOM     13  O   UNL     1       1.259   7.114  20.438  0.00  0.00    +0.000 OA
ATOM     14  C   UNL     1       1.534   8.088  21.437  0.00  0.00    +0.000 C 
ENDBRANCH   8  13
TORSDOF 2
ENDMDL
MODEL 5
REMARK VINA RESULT:      -4.4      2.236      4.768
REMARK  Name = 
REMARK  4 active torsions:
REMARK  status: ('A' for Active; 'I' for Inactive)
REMARK    1  A    between atoms: C_1  and  O_2
REMARK    2  A    between atoms: O_2  and  C_3
REMARK    3  A    between atoms: C_10  and  O_11
REMARK    4  A    between atoms: O_11  and  C_12
REMARK                            x       y       z     vdW  Elec       q    Type
REMARK                         _______ _______ _______ _____ _____    ______ ____
ROOT
ATOM      1  C   UNL     1       4.534   5.914  17.095  0.00  0.00    +0.000 C 
ATOM      2  C   UNL     1       4.688   4.627  16.746  0.00  0.00    +0.000 C 
ATOM      3  I   UNL     1       6.098   4.033  15.314  0.00  0.00    +0.000 I 
ATOM      4  C   UNL     1       3.875   3.540  17.357  0.00  0.00    +0.000 C 
ATOM      5  O   UNL     1       4.123   2.358  17.143  0.00  0.00    +0.000 OA
ATOM      6  C   UNL     1       2.746   3.951  18.238  0.00  0.00    +0.000 C 
ATOM      7  I   UNL     1       1.481   2.407  18.891  0.00  0.00    +0.000 I 
ATOM      8  C   UNL     1       2.543   5.229  18.599  0.00  0.00    +0.000 C 
ATOM      9  C   UNL     1       3.482   6.288  18.098  0.00  0.00    +0.000 C 
ATOM     10  O   UNL     1       3.385   7.448  18.486  0.00  0.00    +0.000 OA
ENDROOT
BRANCH   1  12
ATOM     11  C   UNL     1       6.521   7.287  17.155  0.00  0.00    +0.000 C 
ATOM     12  O   UNL     1       5.331   6.882  16.486  0.00  0.00    +0.000 OA
ENDBRANCH   1  12
BRANCH   8  13
ATOM     13  O   UNL     1       1.465   5.522  19.434  0.00  0.00    +0.000 OA
ATOM     14  C   UNL     1       1.676   5.710  20.828  0.00  0.00    +0.000 C 
ENDBRANCH   8  13
TORSDOF 2
ENDMDL
MODEL 6
REMARK VINA RESULT:      -4.4      1.996      5.182
REMARK  Name = 
REMARK  4 active torsions:
REMARK  status: ('A' for Active; 'I' for Inactive)
REMARK    1  A    between atoms: C_1  and  O_2
REMARK    2  A    between atoms: O_2  and  C_3
REMARK    3  A    between atoms: C_10  and  O_11
REMARK    4  A    between atoms: O_11  and  C_12
REMARK                            x       y       z     vdW  Elec       q    Type
REMARK                         _______ _______ _______ _____ _____    ______ ____
ROOT
ATOM      1  C   UNL     1       3.353   6.608  18.335  0.00  0.00    +0.000 C 
ATOM      2  C   UNL     1       4.094   5.848  17.512  0.00  0.00    +0.000 C 
ATOM      3  I   UNL     1       5.221   6.684  15.956  0.00  0.00    +0.000 I 
ATOM      4  C   UNL     1       4.170   4.368  17.657  0.00  0.00    +0.000 C 
ATOM      5  O   UNL     1       4.962   3.701  16.999  0.00  0.00    +0.000 OA
ATOM      6  C   UNL     1       3.241   3.734  18.633  0.00  0.00    +0.000 C 
ATOM      7  I   UNL     1       3.210   1.634  18.641  0.00  0.00    +0.000 I 
ATOM      8  C   UNL     1       2.469   4.454  19.464  0.00  0.00    +0.000 C 
ATOM      9  C   UNL     1       2.536   5.953  19.410  0.00  0.00    +0.000 C 
ATOM     10  O   UNL     1       1.920   6.639  20.219  0.00  0.00    +0.000 OA
ENDROOT
BRANCH   1  12
ATOM     11  C   UNL     1       2.116   8.582  17.693  0.00  0.00    +0.000 C 
ATOM     12  O   UNL     1       3.330   7.988  18.146  0.00  0.00    +0.000 OA
ENDBRANCH   1  12
BRANCH   8  13
ATOM     13  O   UNL     1       1.635   3.776  20.353  0.00  0.00    +0.000 OA
ATOM     14  C   UNL     1       2.080   3.498  21.674  0.00  0.00    +0.000 C 
ENDBRANCH   8  13
TORSDOF 2
ENDMDL
MODEL 7
REMARK VINA RESULT:      -4.3      2.298      3.653
REMARK  Name = 
REMARK  4 active torsions:
REMARK  status: ('A' for Active; 'I' for Inactive)
REMARK    1  A    between atoms: C_1  and  O_2
REMARK    2  A    between atoms: O_2  and  C_3
REMARK    3  A    between atoms: C_10  and  O_11
REMARK    4  A    between atoms: O_11  and  C_12
REMARK                            x       y       z     vdW  Elec       q    Type
REMARK                         _______ _______ _______ _____ _____    ______ ____
ROOT
ATOM      1  C   UNL     1       2.697   5.472  18.366  0.00  0.00    +0.000 C 
ATOM      2  C   UNL     1       2.936   4.191  18.043  0.00  0.00    +0.000 C 
ATOM      3  I   UNL     1       1.792   2.623  18.833  0.00  0.00    +0.000 I 
ATOM      4  C   UNL     1       4.019   3.803  17.099  0.00  0.00    +0.000 C 
ATOM      5  O   UNL     1       4.134   2.650  16.696  0.00  0.00    +0.000 OA
ATOM      6  C   UNL     1       4.959   4.875  16.668  0.00  0.00    +0.000 C 
ATOM      7  I   UNL     1       6.608   4.247  15.529  0.00  0.00    +0.000 I 
ATOM      8  C   UNL     1       4.770   6.168  16.982  0.00  0.00    +0.000 C 
ATOM      9  C   UNL     1       3.572   6.553  17.801  0.00  0.00    +0.000 C 
ATOM     10  O   UNL     1       3.316   7.732  18.022  0.00  0.00    +0.000 OA
ENDROOT
BRANCH   1  12
ATOM     11  C   UNL     1       1.989   5.922  20.633  0.00  0.00    +0.000 C 
ATOM     12  O   UNL     1       1.664   5.767  19.254  0.00  0.00    +0.000 OA
ENDBRANCH   1  12
BRANCH   8  13
ATOM     13  O   UNL     1       5.697   7.105  16.528  0.00  0.00    +0.000 OA
ATOM     14  C   UNL     1       6.789   7.485  17.356  0.00  0.00    +0.000 C 
ENDBRANCH   8  13
TORSDOF 2
ENDMDL
MODEL 8
REMARK VINA RESULT:      -4.3      1.509      4.243
REMARK  Name = 
REMARK  4 active torsions:
REMARK  status: ('A' for Active; 'I' for Inactive)
REMARK    1  A    between atoms: C_1  and  O_2
REMARK    2  A    between atoms: O_2  and  C_3
REMARK    3  A    between atoms: C_10  and  O_11
REMARK    4  A    between atoms: O_11  and  C_12
REMARK                            x       y       z     vdW  Elec       q    Type
REMARK                         _______ _______ _______ _____ _____    ______ ____
ROOT
ATOM      1  C   UNL     1       4.764   5.727  18.321  0.00  0.00    +0.000 C 
ATOM      2  C   UNL     1       3.467   6.014  18.124  0.00  0.00    +0.000 C 
ATOM      3  I   UNL     1       2.822   7.959  17.688  0.00  0.00    +0.000 I 
ATOM      4  C   UNL     1       2.407   4.971  18.194  0.00  0.00    +0.000 C 
ATOM      5  O   UNL     1       1.249   5.212  17.867  0.00  0.00    +0.000 OA
ATOM      6  C   UNL     1       2.814   3.623  18.680  0.00  0.00    +0.000 C 
ATOM      7  I   UNL     1       1.256   2.249  18.990  0.00  0.00    +0.000 I 
ATOM      8  C   UNL     1       4.098   3.297  18.907  0.00  0.00    +0.000 C 
ATOM      9  C   UNL     1       5.166   4.324  18.668  0.00  0.00    +0.000 C 
ATOM     10  O   UNL     1       6.353   4.030  18.770  0.00  0.00    +0.000 OA
ENDROOT
BRANCH   1  12
ATOM     11  C   UNL     1       6.516   6.821  17.068  0.00  0.00    +0.000 C 
ATOM     12  O   UNL     1       5.705   6.751  18.237  0.00  0.00    +0.000 OA
ENDBRANCH   1  12
BRANCH   8  13
ATOM     13  O   UNL     1       4.387   2.007  19.353  0.00  0.00    +0.000 OA
ATOM     14  C   UNL     1       4.717   1.784  20.718  0.00  0.00    +0.000 C 
ENDBRANCH   8  13
TORSDOF 2
ENDMDL
MODEL 9
REMARK VINA RESULT:      -4.3      1.888      4.092
REMARK  Name = 
REMARK  4 active torsions:
REMARK  status: ('A' for Active; 'I' for Inactive)
REMARK    1  A    between atoms: C_1  and  O_2
REMARK    2  A    between atoms: O_2  and  C_3
REMARK    3  A    between atoms: C_10  and  O_11
REMARK    4  A    between atoms: O_11  and  C_12
REMARK                            x       y       z     vdW  Elec       q    Type
REMARK                         _______ _______ _______ _____ _____    ______ ____
ROOT
ATOM      1  C   UNL     1       2.872   7.436  18.599  0.00  0.00    +0.000 C 
ATOM      2  C   UNL     1       2.310   6.895  19.692  0.00  0.00    +0.000 C 
ATOM      3  I   UNL     1       1.165   8.038  21.024  0.00  0.00    +0.000 I 
ATOM      4  C   UNL     1       2.457   5.451  20.023  0.00  0.00    +0.000 C 
ATOM      5  O   UNL     1       1.821   4.937  20.938  0.00  0.00    +0.000 OA
ATOM      6  C   UNL     1       3.411   4.660  19.198  0.00  0.00    +0.000 C 
ATOM      7  I   UNL     1       3.769   2.692  19.839  0.00  0.00    +0.000 I 
ATOM      8  C   UNL     1       4.010   5.165  18.106  0.00  0.00    +0.000 C 
ATOM      9  C   UNL     1       3.713   6.580  17.699  0.00  0.00    +0.000 C 
ATOM     10  O   UNL     1       4.164   7.040  16.655  0.00  0.00    +0.000 OA
ENDROOT
BRANCH   1  12
ATOM     11  C   UNL     1       1.525   9.195  17.632  0.00  0.00    +0.000 C 
ATOM     12  O   UNL     1       2.691   8.794  18.346  0.00  0.00    +0.000 OA
ENDBRANCH   1  12
BRANCH   8  13
ATOM     13  O   UNL     1       4.882   4.349  17.387  0.00  0.00    +0.000 OA
ATOM     14  C   UNL     1       6.286   4.558  17.473  0.00  0.00    +0.000 C 
ENDBRANCH   8  13
TORSDOF 2
ENDMDL
