MODEL 1
REMARK VINA RESULT:      -8.1      0.000      0.000
REMARK  Name = 
REMARK  8 active torsions:
REMARK  status: ('A' for Active; 'I' for Inactive)
REMARK    1  A    between atoms: C_2  and  C_3
REMARK    2  A    between atoms: C_3  and  C_4
REMARK    3  A    between atoms: C_3  and  C_21
REMARK    4  A    between atoms: C_3  and  C_27
REMARK    5  A    between atoms: C_4  and  C_5
REMARK    6  A    between atoms: C_5  and  N_6
REMARK    7  A    between atoms: C_9  and  C_10
REMARK    8  A    between atoms: C_9  and  N_13
REMARK                            x       y       z     vdW  Elec       q    Type
REMARK                         _______ _______ _______ _____ _____    ______ ____
ROOT
ATOM      1  C   UNL     1       3.445   7.140  19.101  0.00  0.00    +0.000 C 
ENDROOT
BRANCH   1   2
ATOM      2  N   UNL     1       2.088   7.715  18.997  0.00  0.00    +0.000 NA
ATOM      3  C   UNL     1       1.730   8.389  20.250  0.00  0.00    +0.000 C 
ATOM      4  C   UNL     1       0.509   9.271  20.153  0.00  0.00    +0.000 C 
ATOM      5  C   UNL     1       0.645  10.343  19.055  0.00  0.00    +0.000 C 
ATOM      6  C   UNL     1       0.869   9.559  17.734  0.00  0.00    +0.000 C 
ATOM      7  C   UNL     1       2.014   8.543  17.785  0.00  0.00    +0.000 C 
BRANCH   5   8
ATOM      8  N   UNL     1       1.627  11.479  19.329  0.00  0.00    +0.000 NA
ATOM      9  C   UNL     1       1.914  12.309  18.144  0.00  0.00    +0.000 C 
ATOM     10  C   UNL     1       3.015  13.342  18.408  0.00  0.00    +0.000 C 
ATOM     11  C   UNL     1       2.634  14.256  19.562  0.00  0.00    +0.000 C 
ATOM     12  C   UNL     1       2.351  13.414  20.793  0.00  0.00    +0.000 C 
ATOM     13  C   UNL     1       1.324  12.319  20.498  0.00  0.00    +0.000 C 
ENDBRANCH   5   8
BRANCH   5  14
ATOM     14  C   UNL     1      -0.785  10.972  18.911  0.00  0.00    +0.000 C 
ATOM     15  N   UNL     1      -1.241  11.122  17.634  0.00  0.00    +0.000 N 
ATOM     16  O   UNL     1      -1.524  11.252  19.851  0.00  0.00    +0.000 OA
ATOM     17  H   UNL     1      -0.526  11.194  16.911  0.00  0.00    +0.000 HD
ATOM     18  H   UNL     1      -2.103  11.636  17.524  0.00  0.00    +0.000 HD
ENDBRANCH   5  14
ENDBRANCH   1   2
BRANCH   1  19
ATOM     19  C   UNL     1       3.926   6.629  17.742  0.00  0.00    +0.000 C 
BRANCH  19  20
ATOM     20  C   UNL     1       4.599   5.244  17.770  0.00  0.00    +0.000 C 
BRANCH  20  21
ATOM     21  C   UNL     1       5.350   4.946  16.432  0.00  0.00    +0.000 A 
ATOM     22  C   UNL     1       6.694   5.350  16.268  0.00  0.00    +0.000 A 
ATOM     23  C   UNL     1       7.375   5.142  15.069  0.00  0.00    +0.000 A 
ATOM     24  C   UNL     1       6.739   4.524  13.999  0.00  0.00    +0.000 A 
ATOM     25  C   UNL     1       5.420   4.104  14.132  0.00  0.00    +0.000 A 
ATOM     26  C   UNL     1       4.735   4.312  15.332  0.00  0.00    +0.000 A 
ENDBRANCH  20  21
BRANCH  20  27
ATOM     27  C   UNL     1       3.560   4.116  18.074  0.00  0.00    +0.000 A 
ATOM     28  C   UNL     1       2.172   4.302  17.863  0.00  0.00    +0.000 A 
ATOM     29  C   UNL     1       1.246   3.300  18.156  0.00  0.00    +0.000 A 
ATOM     30  C   UNL     1       1.679   2.085  18.665  0.00  0.00    +0.000 A 
ATOM     31  C   UNL     1       3.040   1.869  18.880  0.00  0.00    +0.000 A 
ATOM     32  C   UNL     1       3.971   2.874  18.589  0.00  0.00    +0.000 A 
ENDBRANCH  20  27
BRANCH  20  34
ATOM     33  N   UNL     1       6.499   5.273  19.800  0.00  0.00    +0.000 NA
ATOM     34  C   UNL     1       5.638   5.259  18.880  0.00  0.00    +0.000 C 
ENDBRANCH  20  34
ENDBRANCH  19  20
ENDBRANCH   1  19
TORSDOF 8
ENDMDL
MODEL 2
REMARK VINA RESULT:      -8.0      2.481      8.548
REMARK  Name = 
REMARK  8 active torsions:
REMARK  status: ('A' for Active; 'I' for Inactive)
REMARK    1  A    between atoms: C_2  and  C_3
REMARK    2  A    between atoms: C_3  and  C_4
REMARK    3  A    between atoms: C_3  and  C_21
REMARK    4  A    between atoms: C_3  and  C_27
REMARK    5  A    between atoms: C_4  and  C_5
REMARK    6  A    between atoms: C_5  and  N_6
REMARK    7  A    between atoms: C_9  and  C_10
REMARK    8  A    between atoms: C_9  and  N_13
REMARK                            x       y       z     vdW  Elec       q    Type
REMARK                         _______ _______ _______ _____ _____    ______ ____
ROOT
ATOM      1  C   UNL     1       2.216   8.081  19.373  0.00  0.00    +0.000 C 
ENDROOT
BRANCH   1   2
ATOM      2  N   UNL     1       1.992   6.637  19.156  0.00  0.00    +0.000 NA
ATOM      3  C   UNL     1       2.441   6.255  17.813  0.00  0.00    +0.000 C 
ATOM      4  C   UNL     1       2.550   4.766  17.595  0.00  0.00    +0.000 C 
ATOM      5  C   UNL     1       3.479   4.089  18.620  0.00  0.00    +0.000 C 
ATOM      6  C   UNL     1       2.864   4.403  20.010  0.00  0.00    +0.000 C 
ATOM      7  C   UNL     1       2.599   5.889  20.266  0.00  0.00    +0.000 C 
BRANCH   5   8
ATOM      8  N   UNL     1       4.974   4.370  18.476  0.00  0.00    +0.000 NA
ATOM      9  C   UNL     1       5.406   4.564  17.081  0.00  0.00    +0.000 C 
ATOM     10  C   UNL     1       6.927   4.690  16.952  0.00  0.00    +0.000 C 
ATOM     11  C   UNL     1       7.446   5.851  17.788  0.00  0.00    +0.000 C 
ATOM     12  C   UNL     1       7.021   5.655  19.232  0.00  0.00    +0.000 C 
ATOM     13  C   UNL     1       5.512   5.428  19.345  0.00  0.00    +0.000 C 
ENDBRANCH   5   8
BRANCH   5  14
ATOM     14  C   UNL     1       3.263   2.548  18.424  0.00  0.00    +0.000 C 
ATOM     15  N   UNL     1       4.148   1.737  19.072  0.00  0.00    +0.000 N 
ATOM     16  O   UNL     1       2.326   2.047  17.809  0.00  0.00    +0.000 OA
ATOM     17  H   UNL     1       5.055   2.148  19.285  0.00  0.00    +0.000 HD
ATOM     18  H   UNL     1       4.093   0.752  18.855  0.00  0.00    +0.000 HD
ENDBRANCH   5  14
ENDBRANCH   1   2
BRANCH   1  19
ATOM     19  C   UNL     1       1.316   8.915  18.460  0.00  0.00    +0.000 C 
BRANCH  19  20
ATOM     20  C   UNL     1       0.500  10.009  19.173  0.00  0.00    +0.000 C 
BRANCH  20  21
ATOM     21  C   UNL     1      -0.850  10.288  18.437  0.00  0.00    +0.000 A 
ATOM     22  C   UNL     1      -1.785  11.192  18.989  0.00  0.00    +0.000 A 
ATOM     23  C   UNL     1      -3.019  11.425  18.380  0.00  0.00    +0.000 A 
ATOM     24  C   UNL     1      -3.355  10.766  17.203  0.00  0.00    +0.000 A 
ATOM     25  C   UNL     1      -2.452   9.880  16.628  0.00  0.00    +0.000 A 
ATOM     26  C   UNL     1      -1.216   9.644  17.236  0.00  0.00    +0.000 A 
ENDBRANCH  20  21
BRANCH  20  27
ATOM     27  C   UNL     1       1.326  11.329  19.313  0.00  0.00    +0.000 A 
ATOM     28  C   UNL     1       1.374  12.056  20.526  0.00  0.00    +0.000 A 
ATOM     29  C   UNL     1       2.095  13.245  20.640  0.00  0.00    +0.000 A 
ATOM     30  C   UNL     1       2.790  13.741  19.547  0.00  0.00    +0.000 A 
ATOM     31  C   UNL     1       2.765  13.046  18.338  0.00  0.00    +0.000 A 
ATOM     32  C   UNL     1       2.041  11.852  18.221  0.00  0.00    +0.000 A 
ENDBRANCH  20  27
BRANCH  20  34
ATOM     33  N   UNL     1      -0.120   9.073  21.717  0.00  0.00    +0.000 NA
ATOM     34  C   UNL     1       0.161   9.498  20.564  0.00  0.00    +0.000 C 
ENDBRANCH  20  34
ENDBRANCH  19  20
ENDBRANCH   1  19
TORSDOF 8
ENDMDL
MODEL 3
REMARK VINA RESULT:      -8.0      2.659      8.569
REMARK  Name = 
REMARK  8 active torsions:
REMARK  status: ('A' for Active; 'I' for Inactive)
REMARK    1  A    between atoms: C_2  and  C_3
REMARK    2  A    between atoms: C_3  and  C_4
REMARK    3  A    between atoms: C_3  and  C_21
REMARK    4  A    between atoms: C_3  and  C_27
REMARK    5  A    between atoms: C_4  and  C_5
REMARK    6  A    between atoms: C_5  and  N_6
REMARK    7  A    between atoms: C_9  and  C_10
REMARK    8  A    between atoms: C_9  and  N_13
REMARK                            x       y       z     vdW  Elec       q    Type
REMARK                         _______ _______ _______ _____ _____    ______ ____
ROOT
ATOM      1  C   UNL     1       2.308   8.213  18.956  0.00  0.00    +0.000 C 
ENDROOT
BRANCH   1   2
ATOM      2  N   UNL     1       2.046   6.759  18.948  0.00  0.00    +0.000 NA
ATOM      3  C   UNL     1       2.460   6.180  17.665  0.00  0.00    +0.000 C 
ATOM      4  C   UNL     1       2.529   4.673  17.657  0.00  0.00    +0.000 C 
ATOM      5  C   UNL     1       3.462   4.123  18.753  0.00  0.00    +0.000 C 
ATOM      6  C   UNL     1       2.881   4.644  20.094  0.00  0.00    +0.000 C 
ATOM      7  C   UNL     1       2.656   6.158  20.143  0.00  0.00    +0.000 C 
BRANCH   5   8
ATOM      8  N   UNL     1       4.959   4.341  18.548  0.00  0.00    +0.000 NA
ATOM      9  C   UNL     1       5.352   4.440  17.130  0.00  0.00    +0.000 C 
ATOM     10  C   UNL     1       6.872   4.505  16.949  0.00  0.00    +0.000 C 
ATOM     11  C   UNL     1       7.457   5.691  17.700  0.00  0.00    +0.000 C 
ATOM     12  C   UNL     1       7.072   5.592  19.165  0.00  0.00    +0.000 C 
ATOM     13  C   UNL     1       5.561   5.427  19.337  0.00  0.00    +0.000 C 
ENDBRANCH   5   8
BRANCH   5  14
ATOM     14  C   UNL     1       3.205   2.576  18.779  0.00  0.00    +0.000 C 
ATOM     15  N   UNL     1       2.050   2.156  18.186  0.00  0.00    +0.000 N 
ATOM     16  O   UNL     1       3.996   1.743  19.213  0.00  0.00    +0.000 OA
ATOM     17  H   UNL     1       1.299   2.844  18.137  0.00  0.00    +0.000 HD
ATOM     18  H   UNL     1       1.815   1.181  18.304  0.00  0.00    +0.000 HD
ENDBRANCH   5  14
ENDBRANCH   1   2
BRANCH   1  19
ATOM     19  C   UNL     1       1.212   8.968  18.202  0.00  0.00    +0.000 C 
BRANCH  19  20
ATOM     20  C   UNL     1       0.439  10.001  19.043  0.00  0.00    +0.000 C 
BRANCH  20  21
ATOM     21  C   UNL     1      -0.954  10.323  18.412  0.00  0.00    +0.000 A 
ATOM     22  C   UNL     1      -1.359   9.678  17.222  0.00  0.00    +0.000 A 
ATOM     23  C   UNL     1      -2.575   9.979  16.608  0.00  0.00    +0.000 A 
ATOM     24  C   UNL     1      -3.424  10.931  17.163  0.00  0.00    +0.000 A 
ATOM     25  C   UNL     1      -3.060  11.575  18.339  0.00  0.00    +0.000 A 
ATOM     26  C   UNL     1      -1.842  11.275  18.956  0.00  0.00    +0.000 A 
ENDBRANCH  20  21
BRANCH  20  27
ATOM     27  C   UNL     1       1.268  11.313  19.229  0.00  0.00    +0.000 A 
ATOM     28  C   UNL     1       1.312  12.001  20.466  0.00  0.00    +0.000 A 
ATOM     29  C   UNL     1       2.036  13.183  20.622  0.00  0.00    +0.000 A 
ATOM     30  C   UNL     1       2.738  13.711  19.549  0.00  0.00    +0.000 A 
ATOM     31  C   UNL     1       2.718  13.056  18.318  0.00  0.00    +0.000 A 
ATOM     32  C   UNL     1       1.990  11.869  18.159  0.00  0.00    +0.000 A 
ENDBRANCH  20  27
BRANCH  20  34
ATOM     33  N   UNL     1      -0.021   8.877  21.545  0.00  0.00    +0.000 NA
ATOM     34  C   UNL     1       0.187   9.386  20.410  0.00  0.00    +0.000 C 
ENDBRANCH  20  34
ENDBRANCH  19  20
ENDBRANCH   1  19
TORSDOF 8
ENDMDL
MODEL 4
REMARK VINA RESULT:      -7.9      0.681      1.149
REMARK  Name = 
REMARK  8 active torsions:
REMARK  status: ('A' for Active; 'I' for Inactive)
REMARK    1  A    between atoms: C_2  and  C_3
REMARK    2  A    between atoms: C_3  and  C_4
REMARK    3  A    between atoms: C_3  and  C_21
REMARK    4  A    between atoms: C_3  and  C_27
REMARK    5  A    between atoms: C_4  and  C_5
REMARK    6  A    between atoms: C_5  and  N_6
REMARK    7  A    between atoms: C_9  and  C_10
REMARK    8  A    between atoms: C_9  and  N_13
REMARK                            x       y       z     vdW  Elec       q    Type
REMARK                         _______ _______ _______ _____ _____    ______ ____
ROOT
ATOM      1  C   UNL     1       3.150   7.211  19.437  0.00  0.00    +0.000 C 
ENDROOT
BRANCH   1   2
ATOM      2  N   UNL     1       1.834   7.853  19.248  0.00  0.00    +0.000 NA
ATOM      3  C   UNL     1       1.458   8.599  20.454  0.00  0.00    +0.000 C 
ATOM      4  C   UNL     1       0.294   9.539  20.266  0.00  0.00    +0.000 C 
ATOM      5  C   UNL     1       0.536  10.554  19.132  0.00  0.00    +0.000 C 
ATOM      6  C   UNL     1       0.774   9.703  17.856  0.00  0.00    +0.000 C 
ATOM      7  C   UNL     1       1.858   8.631  18.001  0.00  0.00    +0.000 C 
BRANCH   5   8
ATOM      8  N   UNL     1       1.568  11.647  19.404  0.00  0.00    +0.000 NA
ATOM      9  C   UNL     1       1.893  12.460  18.217  0.00  0.00    +0.000 C 
ATOM     10  C   UNL     1       3.037  13.444  18.479  0.00  0.00    +0.000 C 
ATOM     11  C   UNL     1       2.695  14.378  19.630  0.00  0.00    +0.000 C 
ATOM     12  C   UNL     1       2.374  13.553  20.863  0.00  0.00    +0.000 C 
ATOM     13  C   UNL     1       1.300  12.503  20.570  0.00  0.00    +0.000 C 
ENDBRANCH   5   8
BRANCH   5  14
ATOM     14  C   UNL     1      -0.848  11.253  18.897  0.00  0.00    +0.000 C 
ATOM     15  N   UNL     1      -1.209  11.431  17.593  0.00  0.00    +0.000 N 
ATOM     16  O   UNL     1      -1.635  11.562  19.787  0.00  0.00    +0.000 OA
ATOM     17  H   UNL     1      -0.444  11.472  16.921  0.00  0.00    +0.000 HD
ATOM     18  H   UNL     1      -2.036  11.986  17.430  0.00  0.00    +0.000 HD
ENDBRANCH   5  14
ENDBRANCH   1   2
BRANCH   1  19
ATOM     19  C   UNL     1       3.750   6.790  18.095  0.00  0.00    +0.000 C 
BRANCH  19  20
ATOM     20  C   UNL     1       4.362   5.377  18.071  0.00  0.00    +0.000 C 
BRANCH  20  21
ATOM     21  C   UNL     1       4.937   5.027  16.660  0.00  0.00    +0.000 A 
ATOM     22  C   UNL     1       5.304   3.698  16.354  0.00  0.00    +0.000 A 
ATOM     23  C   UNL     1       5.866   3.363  15.122  0.00  0.00    +0.000 A 
ATOM     24  C   UNL     1       6.075   4.342  14.158  0.00  0.00    +0.000 A 
ATOM     25  C   UNL     1       5.714   5.658  14.423  0.00  0.00    +0.000 A 
ATOM     26  C   UNL     1       5.152   5.996  15.658  0.00  0.00    +0.000 A 
ENDBRANCH  20  21
BRANCH  20  27
ATOM     27  C   UNL     1       3.317   4.301  18.514  0.00  0.00    +0.000 A 
ATOM     28  C   UNL     1       3.576   3.400  19.575  0.00  0.00    +0.000 A 
ATOM     29  C   UNL     1       2.650   2.428  19.953  0.00  0.00    +0.000 A 
ATOM     30  C   UNL     1       1.439   2.328  19.284  0.00  0.00    +0.000 A 
ATOM     31  C   UNL     1       1.153   3.203  18.237  0.00  0.00    +0.000 A 
ATOM     32  C   UNL     1       2.082   4.180  17.854  0.00  0.00    +0.000 A 
ENDBRANCH  20  27
BRANCH  20  34
ATOM     33  N   UNL     1       6.485   5.347  19.866  0.00  0.00    +0.000 NA
ATOM     34  C   UNL     1       5.523   5.361  19.052  0.00  0.00    +0.000 C 
ENDBRANCH  20  34
ENDBRANCH  19  20
ENDBRANCH   1  19
TORSDOF 8
ENDMDL
MODEL 5
REMARK VINA RESULT:      -7.8      2.489      8.710
REMARK  Name = 
REMARK  8 active torsions:
REMARK  status: ('A' for Active; 'I' for Inactive)
REMARK    1  A    between atoms: C_2  and  C_3
REMARK    2  A    between atoms: C_3  and  C_4
REMARK    3  A    between atoms: C_3  and  C_21
REMARK    4  A    between atoms: C_3  and  C_27
REMARK    5  A    between atoms: C_4  and  C_5
REMARK    6  A    between atoms: C_5  and  N_6
REMARK    7  A    between atoms: C_9  and  C_10
REMARK    8  A    between atoms: C_9  and  N_13
REMARK                            x       y       z     vdW  Elec       q    Type
REMARK                         _______ _______ _______ _____ _____    ______ ____
ROOT
ATOM      1  C   UNL     1       2.012   8.178  19.721  0.00  0.00    +0.000 C 
ENDROOT
BRANCH   1   2
ATOM      2  N   UNL     1       1.868   6.728  19.480  0.00  0.00    +0.000 NA
ATOM      3  C   UNL     1       2.024   6.437  18.050  0.00  0.00    +0.000 C 
ATOM      4  C   UNL     1       2.207   4.974  17.729  0.00  0.00    +0.000 C 
ATOM      5  C   UNL     1       3.403   4.355  18.476  0.00  0.00    +0.000 C 
ATOM      6  C   UNL     1       3.103   4.559  19.985  0.00  0.00    +0.000 C 
ATOM      7  C   UNL     1       2.778   6.003  20.378  0.00  0.00    +0.000 C 
BRANCH   5   8
ATOM      8  N   UNL     1       4.794   4.783  18.012  0.00  0.00    +0.000 NA
ATOM      9  C   UNL     1       5.790   4.827  19.097  0.00  0.00    +0.000 C 
ATOM     10  C   UNL     1       7.131   5.405  18.634  0.00  0.00    +0.000 C 
ATOM     11  C   UNL     1       7.702   4.593  17.482  0.00  0.00    +0.000 C 
ATOM     12  C   UNL     1       6.691   4.553  16.351  0.00  0.00    +0.000 C 
ATOM     13  C   UNL     1       5.324   4.069  16.840  0.00  0.00    +0.000 C 
ENDBRANCH   5   8
BRANCH   5  14
ATOM     14  C   UNL     1       3.279   2.808  18.248  0.00  0.00    +0.000 C 
ATOM     15  N   UNL     1       4.018   2.023  19.084  0.00  0.00    +0.000 N 
ATOM     16  O   UNL     1       2.519   2.279  17.442  0.00  0.00    +0.000 OA
ATOM     17  H   UNL     1       4.843   2.461  19.492  0.00  0.00    +0.000 HD
ATOM     18  H   UNL     1       4.042   1.037  18.868  0.00  0.00    +0.000 HD
ENDBRANCH   5  14
ENDBRANCH   1   2
BRANCH   1  19
ATOM     19  C   UNL     1       1.185   8.981  18.716  0.00  0.00    +0.000 C 
BRANCH  19  20
ATOM     20  C   UNL     1       0.372  10.140  19.322  0.00  0.00    +0.000 C 
BRANCH  20  21
ATOM     21  C   UNL     1      -0.948  10.390  18.523  0.00  0.00    +0.000 A 
ATOM     22  C   UNL     1      -1.907  11.307  19.009  0.00  0.00    +0.000 A 
ATOM     23  C   UNL     1      -3.116  11.517  18.344  0.00  0.00    +0.000 A 
ATOM     24  C   UNL     1      -3.404  10.820  17.176  0.00  0.00    +0.000 A 
ATOM     25  C   UNL     1      -2.476   9.919  16.667  0.00  0.00    +0.000 A 
ATOM     26  C   UNL     1      -1.264   9.707  17.330  0.00  0.00    +0.000 A 
ENDBRANCH  20  21
BRANCH  20  27
ATOM     27  C   UNL     1       1.221  11.451  19.393  0.00  0.00    +0.000 A 
ATOM     28  C   UNL     1       1.957  11.926  18.281  0.00  0.00    +0.000 A 
ATOM     29  C   UNL     1       2.731  13.084  18.355  0.00  0.00    +0.000 A 
ATOM     30  C   UNL     1       2.791  13.802  19.541  0.00  0.00    +0.000 A 
ATOM     31  C   UNL     1       2.076  13.361  20.654  0.00  0.00    +0.000 A 
ATOM     32  C   UNL     1       1.299  12.197  20.582  0.00  0.00    +0.000 A 
ENDBRANCH  20  27
BRANCH  20  34
ATOM     33  N   UNL     1      -0.346   9.403  21.905  0.00  0.00    +0.000 NA
ATOM     34  C   UNL     1      -0.021   9.738  20.734  0.00  0.00    +0.000 C 
ENDBRANCH  20  34
ENDBRANCH  19  20
ENDBRANCH   1  19
TORSDOF 8
ENDMDL
MODEL 6
REMARK VINA RESULT:      -7.8      2.647      8.574
REMARK  Name = 
REMARK  8 active torsions:
REMARK  status: ('A' for Active; 'I' for Inactive)
REMARK    1  A    between atoms: C_2  and  C_3
REMARK    2  A    between atoms: C_3  and  C_4
REMARK    3  A    between atoms: C_3  and  C_21
REMARK    4  A    between atoms: C_3  and  C_27
REMARK    5  A    between atoms: C_4  and  C_5
REMARK    6  A    between atoms: C_5  and  N_6
REMARK    7  A    between atoms: C_9  and  C_10
REMARK    8  A    between atoms: C_9  and  N_13
REMARK                            x       y       z     vdW  Elec       q    Type
REMARK                         _______ _______ _______ _____ _____    ______ ____
ROOT
ATOM      1  C   UNL     1       2.264   8.291  18.953  0.00  0.00    +0.000 C 
ENDROOT
BRANCH   1   2
ATOM      2  N   UNL     1       1.965   6.846  19.012  0.00  0.00    +0.000 NA
ATOM      3  C   UNL     1       2.287   6.212  17.729  0.00  0.00    +0.000 C 
ATOM      4  C   UNL     1       2.316   4.704  17.772  0.00  0.00    +0.000 C 
ATOM      5  C   UNL     1       3.297   4.166  18.831  0.00  0.00    +0.000 C 
ATOM      6  C   UNL     1       2.809   4.750  20.184  0.00  0.00    +0.000 C 
ATOM      7  C   UNL     1       2.627   6.270  20.191  0.00  0.00    +0.000 C 
BRANCH   5   8
ATOM      8  N   UNL     1       4.785   4.335  18.532  0.00  0.00    +0.000 NA
ATOM      9  C   UNL     1       5.084   4.492  17.097  0.00  0.00    +0.000 C 
ATOM     10  C   UNL     1       6.589   4.505  16.812  0.00  0.00    +0.000 C 
ATOM     11  C   UNL     1       7.275   5.626  17.579  0.00  0.00    +0.000 C 
ATOM     12  C   UNL     1       6.988   5.465  19.060  0.00  0.00    +0.000 C 
ATOM     13  C   UNL     1       5.486   5.352  19.330  0.00  0.00    +0.000 C 
ENDBRANCH   5   8
BRANCH   5  14
ATOM     14  C   UNL     1       3.001   2.628  18.928  0.00  0.00    +0.000 C 
ATOM     15  N   UNL     1       1.730   2.290  19.292  0.00  0.00    +0.000 N 
ATOM     16  O   UNL     1       3.796   1.743  18.624  0.00  0.00    +0.000 OA
ATOM     17  H   UNL     1       1.220   2.989  19.830  0.00  0.00    +0.000 HD
ATOM     18  H   UNL     1       1.564   1.311  19.475  0.00  0.00    +0.000 HD
ENDBRANCH   5  14
ENDBRANCH   1   2
BRANCH   1  19
ATOM     19  C   UNL     1       1.172   9.043  18.191  0.00  0.00    +0.000 C 
BRANCH  19  20
ATOM     20  C   UNL     1       0.400  10.085  19.023  0.00  0.00    +0.000 C 
BRANCH  20  21
ATOM     21  C   UNL     1      -0.990  10.409  18.386  0.00  0.00    +0.000 A 
ATOM     22  C   UNL     1      -1.850  11.346  19.000  0.00  0.00    +0.000 A 
ATOM     23  C   UNL     1      -3.117  11.620  18.483  0.00  0.00    +0.000 A 
ATOM     24  C   UNL     1      -3.562  10.970  17.337  0.00  0.00    +0.000 A 
ATOM     25  C   UNL     1      -2.735  10.050  16.703  0.00  0.00    +0.000 A 
ATOM     26  C   UNL     1      -1.466   9.773  17.219  0.00  0.00    +0.000 A 
ENDBRANCH  20  21
BRANCH  20  27
ATOM     27  C   UNL     1       1.234  11.395  19.202  0.00  0.00    +0.000 A 
ATOM     28  C   UNL     1       1.989  11.952  18.141  0.00  0.00    +0.000 A 
ATOM     29  C   UNL     1       2.749  13.109  18.312  0.00  0.00    +0.000 A 
ATOM     30  C   UNL     1       2.776  13.744  19.544  0.00  0.00    +0.000 A 
ATOM     31  C   UNL     1       2.041  13.222  20.609  0.00  0.00    +0.000 A 
ATOM     32  C   UNL     1       1.278  12.059  20.440  0.00  0.00    +0.000 A 
ENDBRANCH  20  27
BRANCH  20  34
ATOM     33  N   UNL     1      -0.072   8.980  21.530  0.00  0.00    +0.000 NA
ATOM     34  C   UNL     1       0.142   9.482  20.394  0.00  0.00    +0.000 C 
ENDBRANCH  20  34
ENDBRANCH  19  20
ENDBRANCH   1  19
TORSDOF 8
ENDMDL
MODEL 7
REMARK VINA RESULT:      -7.8      2.511      8.759
REMARK  Name = 
REMARK  8 active torsions:
REMARK  status: ('A' for Active; 'I' for Inactive)
REMARK    1  A    between atoms: C_2  and  C_3
REMARK    2  A    between atoms: C_3  and  C_4
REMARK    3  A    between atoms: C_3  and  C_21
REMARK    4  A    between atoms: C_3  and  C_27
REMARK    5  A    between atoms: C_4  and  C_5
REMARK    6  A    between atoms: C_5  and  N_6
REMARK    7  A    between atoms: C_9  and  C_10
REMARK    8  A    between atoms: C_9  and  N_13
REMARK                            x       y       z     vdW  Elec       q    Type
REMARK                         _______ _______ _______ _____ _____    ______ ____
ROOT
ATOM      1  C   UNL     1       2.117   8.222  19.348  0.00  0.00    +0.000 C 
ENDROOT
BRANCH   1   2
ATOM      2  N   UNL     1       1.987   6.754  19.254  0.00  0.00    +0.000 NA
ATOM      3  C   UNL     1       2.072   6.330  17.851  0.00  0.00    +0.000 C 
ATOM      4  C   UNL     1       2.264   4.846  17.662  0.00  0.00    +0.000 C 
ATOM      5  C   UNL     1       3.510   4.316  18.398  0.00  0.00    +0.000 C 
ATOM      6  C   UNL     1       3.286   4.660  19.895  0.00  0.00    +0.000 C 
ATOM      7  C   UNL     1       2.956   6.130  20.166  0.00  0.00    +0.000 C 
BRANCH   5   8
ATOM      8  N   UNL     1       4.866   4.716  17.820  0.00  0.00    +0.000 NA
ATOM      9  C   UNL     1       5.940   4.784  18.827  0.00  0.00    +0.000 C 
ATOM     10  C   UNL     1       7.248   5.334  18.250  0.00  0.00    +0.000 C 
ATOM     11  C   UNL     1       7.727   4.481  17.086  0.00  0.00    +0.000 C 
ATOM     12  C   UNL     1       6.635   4.416  16.033  0.00  0.00    +0.000 C 
ATOM     13  C   UNL     1       5.303   3.962  16.635  0.00  0.00    +0.000 C 
ENDBRANCH   5   8
BRANCH   5  14
ATOM     14  C   UNL     1       3.402   2.753  18.324  0.00  0.00    +0.000 C 
ATOM     15  N   UNL     1       4.138   2.063  19.243  0.00  0.00    +0.000 N 
ATOM     16  O   UNL     1       2.656   2.139  17.566  0.00  0.00    +0.000 OA
ATOM     17  H   UNL     1       4.954   2.548  19.614  0.00  0.00    +0.000 HD
ATOM     18  H   UNL     1       4.172   1.061  19.127  0.00  0.00    +0.000 HD
ENDBRANCH   5  14
ENDBRANCH   1   2
BRANCH   1  19
ATOM     19  C   UNL     1       1.051   8.918  18.500  0.00  0.00    +0.000 C 
BRANCH  19  20
ATOM     20  C   UNL     1       0.282  10.043  19.219  0.00  0.00    +0.000 C 
BRANCH  20  21
ATOM     21  C   UNL     1      -1.069  10.360  18.500  0.00  0.00    +0.000 A 
ATOM     22  C   UNL     1      -1.393   9.718  17.284  0.00  0.00    +0.000 A 
ATOM     23  C   UNL     1      -2.568  10.015  16.593  0.00  0.00    +0.000 A 
ATOM     24  C   UNL     1      -3.456  10.960  17.095  0.00  0.00    +0.000 A 
ATOM     25  C   UNL     1      -3.172  11.602  18.295  0.00  0.00    +0.000 A 
ATOM     26  C   UNL     1      -1.995  11.306  18.989  0.00  0.00    +0.000 A 
ENDBRANCH  20  21
BRANCH  20  27
ATOM     27  C   UNL     1       1.152  11.336  19.338  0.00  0.00    +0.000 A 
ATOM     28  C   UNL     1       1.238  12.071  20.545  0.00  0.00    +0.000 A 
ATOM     29  C   UNL     1       1.998  13.237  20.640  0.00  0.00    +0.000 A 
ATOM     30  C   UNL     1       2.696  13.701  19.535  0.00  0.00    +0.000 A 
ATOM     31  C   UNL     1       2.634  12.997  18.332  0.00  0.00    +0.000 A 
ATOM     32  C   UNL     1       1.869  11.828  18.233  0.00  0.00    +0.000 A 
ENDBRANCH  20  27
BRANCH  20  34
ATOM     33  N   UNL     1      -0.331   9.144  21.778  0.00  0.00    +0.000 NA
ATOM     34  C   UNL     1      -0.053   9.551  20.618  0.00  0.00    +0.000 C 
ENDBRANCH  20  34
ENDBRANCH  19  20
ENDBRANCH   1  19
TORSDOF 8
ENDMDL
MODEL 8
REMARK VINA RESULT:      -7.7      2.640      8.786
REMARK  Name = 
REMARK  8 active torsions:
REMARK  status: ('A' for Active; 'I' for Inactive)
REMARK    1  A    between atoms: C_2  and  C_3
REMARK    2  A    between atoms: C_3  and  C_4
REMARK    3  A    between atoms: C_3  and  C_21
REMARK    4  A    between atoms: C_3  and  C_27
REMARK    5  A    between atoms: C_4  and  C_5
REMARK    6  A    between atoms: C_5  and  N_6
REMARK    7  A    between atoms: C_9  and  C_10
REMARK    8  A    between atoms: C_9  and  N_13
REMARK                            x       y       z     vdW  Elec       q    Type
REMARK                         _______ _______ _______ _____ _____    ______ ____
ROOT
ATOM      1  C   UNL     1       2.071   8.448  19.195  0.00  0.00    +0.000 C 
ENDROOT
BRANCH   1   2
ATOM      2  N   UNL     1       1.927   6.979  19.158  0.00  0.00    +0.000 NA
ATOM      3  C   UNL     1       2.116   6.488  17.788  0.00  0.00    +0.000 C 
ATOM      4  C   UNL     1       2.299   4.994  17.684  0.00  0.00    +0.000 C 
ATOM      5  C   UNL     1       3.474   4.486  18.540  0.00  0.00    +0.000 C 
ATOM      6  C   UNL     1       3.138   4.902  19.997  0.00  0.00    +0.000 C 
ATOM      7  C   UNL     1       2.810   6.388  20.173  0.00  0.00    +0.000 C 
BRANCH   5   8
ATOM      8  N   UNL     1       4.878   4.842  18.055  0.00  0.00    +0.000 NA
ATOM      9  C   UNL     1       5.877   4.908  19.137  0.00  0.00    +0.000 C 
ATOM     10  C   UNL     1       7.237   5.415  18.645  0.00  0.00    +0.000 C 
ATOM     11  C   UNL     1       7.778   4.526  17.536  0.00  0.00    +0.000 C 
ATOM     12  C   UNL     1       6.764   4.462  16.409  0.00  0.00    +0.000 C 
ATOM     13  C   UNL     1       5.381   4.051  16.921  0.00  0.00    +0.000 C 
ENDBRANCH   5   8
BRANCH   5  14
ATOM     14  C   UNL     1       3.349   2.922  18.531  0.00  0.00    +0.000 C 
ATOM     15  N   UNL     1       2.520   2.399  17.582  0.00  0.00    +0.000 N 
ATOM     16  O   UNL     1       3.995   2.165  19.249  0.00  0.00    +0.000 OA
ATOM     17  H   UNL     1       1.785   3.018  17.243  0.00  0.00    +0.000 HD
ATOM     18  H   UNL     1       2.337   1.408  17.645  0.00  0.00    +0.000 HD
ENDBRANCH   5  14
ENDBRANCH   1   2
BRANCH   1  19
ATOM     19  C   UNL     1       0.948   9.126  18.408  0.00  0.00    +0.000 C 
BRANCH  19  20
ATOM     20  C   UNL     1       0.182  10.218  19.178  0.00  0.00    +0.000 C 
BRANCH  20  21
ATOM     21  C   UNL     1      -1.195  10.531  18.508  0.00  0.00    +0.000 A 
ATOM     22  C   UNL     1      -1.559   9.888  17.303  0.00  0.00    +0.000 A 
ATOM     23  C   UNL     1      -2.759  10.182  16.655  0.00  0.00    +0.000 A 
ATOM     24  C   UNL     1      -3.632  11.122  17.190  0.00  0.00    +0.000 A 
ATOM     25  C   UNL     1      -3.309  11.763  18.380  0.00  0.00    +0.000 A 
ATOM     26  C   UNL     1      -2.107  11.471  19.031  0.00  0.00    +0.000 A 
ENDBRANCH  20  21
BRANCH  20  27
ATOM     27  C   UNL     1       1.034  11.522  19.305  0.00  0.00    +0.000 A 
ATOM     28  C   UNL     1       1.782  12.036  18.218  0.00  0.00    +0.000 A 
ATOM     29  C   UNL     1       2.558  13.188  18.342  0.00  0.00    +0.000 A 
ATOM     30  C   UNL     1       2.609  13.862  19.554  0.00  0.00    +0.000 A 
ATOM     31  C   UNL     1       1.881  13.383  20.643  0.00  0.00    +0.000 A 
ATOM     32  C   UNL     1       1.102  12.225  20.521  0.00  0.00    +0.000 A 
ENDBRANCH  20  27
BRANCH  20  34
ATOM     33  N   UNL     1      -0.338   9.243  21.730  0.00  0.00    +0.000 NA
ATOM     34  C   UNL     1      -0.102   9.685  20.573  0.00  0.00    +0.000 C 
ENDBRANCH  20  34
ENDBRANCH  19  20
ENDBRANCH   1  19
TORSDOF 8
ENDMDL
MODEL 9
REMARK VINA RESULT:      -7.7      2.629      8.655
REMARK  Name = 
REMARK  8 active torsions:
REMARK  status: ('A' for Active; 'I' for Inactive)
REMARK    1  A    between atoms: C_2  and  C_3
REMARK    2  A    between atoms: C_3  and  C_4
REMARK    3  A    between atoms: C_3  and  C_21
REMARK    4  A    between atoms: C_3  and  C_27
REMARK    5  A    between atoms: C_4  and  C_5
REMARK    6  A    between atoms: C_5  and  N_6
REMARK    7  A    between atoms: C_9  and  C_10
REMARK    8  A    between atoms: C_9  and  N_13
REMARK                            x       y       z     vdW  Elec       q    Type
REMARK                         _______ _______ _______ _____ _____    ______ ____
ROOT
ATOM      1  C   UNL     1       2.097   8.440  18.788  0.00  0.00    +0.000 C 
ENDROOT
BRANCH   1   2
ATOM      2  N   UNL     1       2.217   6.990  19.036  0.00  0.00    +0.000 NA
ATOM      3  C   UNL     1       1.919   6.243  17.808  0.00  0.00    +0.000 C 
ATOM      4  C   UNL     1       2.310   4.786  17.857  0.00  0.00    +0.000 C 
ATOM      5  C   UNL     1       3.802   4.590  18.186  0.00  0.00    +0.000 C 
ATOM      6  C   UNL     1       4.017   5.268  19.565  0.00  0.00    +0.000 C 
ATOM      7  C   UNL     1       3.527   6.717  19.643  0.00  0.00    +0.000 C 
BRANCH   5   8
ATOM      8  N   UNL     1       4.798   4.975  17.094  0.00  0.00    +0.000 NA
ATOM      9  C   UNL     1       6.165   5.204  17.596  0.00  0.00    +0.000 C 
ATOM     10  C   UNL     1       7.105   5.736  16.510  0.00  0.00    +0.000 C 
ATOM     11  C   UNL     1       7.174   4.773  15.335  0.00  0.00    +0.000 C 
ATOM     12  C   UNL     1       5.774   4.540  14.798  0.00  0.00    +0.000 C 
ATOM     13  C   UNL     1       4.814   4.105  15.907  0.00  0.00    +0.000 C 
ENDBRANCH   5   8
BRANCH   5  14
ATOM     14  C   UNL     1       3.968   3.055  18.463  0.00  0.00    +0.000 C 
ATOM     15  N   UNL     1       4.851   2.721  19.447  0.00  0.00    +0.000 N 
ATOM     16  O   UNL     1       3.310   2.172  17.920  0.00  0.00    +0.000 OA
ATOM     17  H   UNL     1       5.584   3.403  19.637  0.00  0.00    +0.000 HD
ATOM     18  H   UNL     1       5.056   1.738  19.550  0.00  0.00    +0.000 HD
ENDBRANCH   5  14
ENDBRANCH   1   2
BRANCH   1  19
ATOM     19  C   UNL     1       0.711   8.786  18.239  0.00  0.00    +0.000 C 
BRANCH  19  20
ATOM     20  C   UNL     1       0.084  10.069  18.816  0.00  0.00    +0.000 C 
BRANCH  20  21
ATOM     21  C   UNL     1      -0.149   9.947  20.357  0.00  0.00    +0.000 A 
ATOM     22  C   UNL     1      -0.238  11.110  21.155  0.00  0.00    +0.000 A 
ATOM     23  C   UNL     1      -0.398  11.033  22.538  0.00  0.00    +0.000 A 
ATOM     24  C   UNL     1      -0.476   9.796  23.168  0.00  0.00    +0.000 A 
ATOM     25  C   UNL     1      -0.403   8.633  22.410  0.00  0.00    +0.000 A 
ATOM     26  C   UNL     1      -0.243   8.707  21.023  0.00  0.00    +0.000 A 
ENDBRANCH  20  21
BRANCH  20  27
ATOM     27  C   UNL     1      -1.254  10.421  18.089  0.00  0.00    +0.000 A 
ATOM     28  C   UNL     1      -2.148  11.393  18.598  0.00  0.00    +0.000 A 
ATOM     29  C   UNL     1      -3.352  11.688  17.958  0.00  0.00    +0.000 A 
ATOM     30  C   UNL     1      -3.696  11.023  16.790  0.00  0.00    +0.000 A 
ATOM     31  C   UNL     1      -2.835  10.062  16.262  0.00  0.00    +0.000 A 
ATOM     32  C   UNL     1      -1.626   9.762  16.904  0.00  0.00    +0.000 A 
ENDBRANCH  20  27
BRANCH  20  34
ATOM     33  N   UNL     1       1.890  12.145  18.412  0.00  0.00    +0.000 NA
ATOM     34  C   UNL     1       1.071  11.204  18.595  0.00  0.00    +0.000 C 
ENDBRANCH  20  34
ENDBRANCH  19  20
ENDBRANCH   1  19
TORSDOF 8
ENDMDL
