MODEL 1
REMARK VINA RESULT:      -8.4      0.000      0.000
REMARK  Name = 
REMARK  4 active torsions:
REMARK  status: ('A' for Active; 'I' for Inactive)
REMARK    1  A    between atoms: C_2  and  C_3
REMARK    2  A    between atoms: C_14  and  N_15
REMARK    3  A    between atoms: N_15  and  C_16
REMARK    4  A    between atoms: C_19  and  C_20
REMARK                            x       y       z     vdW  Elec       q    Type
REMARK                         _______ _______ _______ _____ _____    ______ ____
ROOT
ATOM      1  O   UNL     1       4.460   4.825  16.248  0.00  0.00    +0.000 OA
ATOM      2  C   UNL     1       4.669   4.358  17.374  0.00  0.00    +0.000 C 
ATOM      3  N   UNL     1       3.718   3.639  18.087  0.00  0.00    +0.000 N 
ATOM      4  C   UNL     1       2.383   3.578  17.536  0.00  0.00    +0.000 C 
ATOM      5  C   UNL     1       1.612   4.384  18.575  0.00  0.00    +0.000 C 
ATOM      6  C   UNL     1       0.635   3.501  19.402  0.00  0.00    +0.000 C 
ATOM      7  C   UNL     1       1.164   4.205  20.654  0.00  0.00    +0.000 C 
ATOM      8  C   UNL     1       2.483   4.505  19.864  0.00  0.00    +0.000 C 
ATOM      9  C   UNL     1       3.640   3.541  19.549  0.00  0.00    +0.000 C 
ENDROOT
BRANCH   2  10
ATOM     10  C   UNL     1       6.006   4.602  17.951  0.00  0.00    +0.000 A 
ATOM     11  C   UNL     1       6.135   5.409  19.074  0.00  0.00    +0.000 A 
ATOM     12  C   UNL     1       7.406   5.624  19.562  0.00  0.00    +0.000 A 
ATOM     13  N   UNL     1       8.505   5.091  18.991  0.00  0.00    +0.000 NA
ATOM     14  N   UNL     1       8.379   4.331  17.865  0.00  0.00    +0.000 NA
ATOM     15  C   UNL     1       7.149   4.112  17.354  0.00  0.00    +0.000 A 
ENDBRANCH   2  10
BRANCH   8  16
ATOM     16  N   UNL     1       2.980   5.824  20.228  0.00  0.00    +0.000 N 
ATOM     17  H   UNL     1       3.892   6.049  19.838  0.00  0.00    +0.000 HD
BRANCH  16  18
ATOM     18  C   UNL     1       2.119   6.955  20.102  0.00  0.00    +0.000 A 
ATOM     19  N   UNL     1       1.280   7.223  21.135  0.00  0.00    +0.000 NA
ATOM     20  C   UNL     1       0.580   8.381  21.135  0.00  0.00    +0.000 A 
ATOM     21  C   UNL     1       0.652   9.325  20.129  0.00  0.00    +0.000 A 
ATOM     22  C   UNL     1       1.485   9.032  19.041  0.00  0.00    +0.000 A 
ATOM     23  C   UNL     1       2.219   7.838  19.022  0.00  0.00    +0.000 A 
ATOM     24 CL   UNL     1       3.220   7.503  17.659  0.00  0.00    +0.000 Cl
BRANCH  21  25
ATOM     25  C   UNL     1      -0.128  10.601  20.220  0.00  0.00    +0.000 C 
ATOM     26  F   UNL     1       0.616  11.713  19.963  0.00  0.00    +0.000 F 
ATOM     27  F   UNL     1      -1.172  10.639  19.350  0.00  0.00    +0.000 F 
ATOM     28  F   UNL     1      -0.665  10.792  21.456  0.00  0.00    +0.000 F 
ENDBRANCH  21  25
ENDBRANCH  16  18
ENDBRANCH   8  16
TORSDOF 4
ENDMDL
MODEL 2
REMARK VINA RESULT:      -8.2      1.028      1.472
REMARK  Name = 
REMARK  4 active torsions:
REMARK  status: ('A' for Active; 'I' for Inactive)
REMARK    1  A    between atoms: C_2  and  C_3
REMARK    2  A    between atoms: C_14  and  N_15
REMARK    3  A    between atoms: N_15  and  C_16
REMARK    4  A    between atoms: C_19  and  C_20
REMARK                            x       y       z     vdW  Elec       q    Type
REMARK                         _______ _______ _______ _____ _____    ______ ____
ROOT
ATOM      1  O   UNL     1       3.050   3.937  16.123  0.00  0.00    +0.000 OA
ATOM      2  C   UNL     1       3.768   3.698  17.101  0.00  0.00    +0.000 C 
ATOM      3  N   UNL     1       3.284   3.153  18.284  0.00  0.00    +0.000 N 
ATOM      4  C   UNL     1       1.850   3.013  18.411  0.00  0.00    +0.000 C 
ATOM      5  C   UNL     1       1.565   4.024  19.515  0.00  0.00    +0.000 C 
ATOM      6  C   UNL     1       1.119   3.343  20.840  0.00  0.00    +0.000 C 
ATOM      7  C   UNL     1       2.096   4.270  21.567  0.00  0.00    +0.000 C 
ATOM      8  C   UNL     1       2.904   4.380  20.230  0.00  0.00    +0.000 C 
ATOM      9  C   UNL     1       3.867   3.348  19.616  0.00  0.00    +0.000 C 
ENDROOT
BRANCH   2  10
ATOM     10  C   UNL     1       5.201   4.022  16.962  0.00  0.00    +0.000 A 
ATOM     11  C   UNL     1       5.791   4.013  15.705  0.00  0.00    +0.000 A 
ATOM     12  C   UNL     1       7.137   4.300  15.629  0.00  0.00    +0.000 A 
ATOM     13  N   UNL     1       7.884   4.578  16.717  0.00  0.00    +0.000 NA
ATOM     14  N   UNL     1       7.311   4.548  17.954  0.00  0.00    +0.000 NA
ATOM     15  C   UNL     1       5.998   4.257  18.063  0.00  0.00    +0.000 A 
ENDBRANCH   2  10
BRANCH   8  16
ATOM     16  N   UNL     1       3.418   5.734  20.081  0.00  0.00    +0.000 N 
ATOM     17  H   UNL     1       4.215   5.812  19.452  0.00  0.00    +0.000 HD
BRANCH  16  18
ATOM     18  C   UNL     1       2.508   6.802  19.825  0.00  0.00    +0.000 A 
ATOM     19  N   UNL     1       1.651   7.149  20.819  0.00  0.00    +0.000 NA
ATOM     20  C   UNL     1       0.900   8.266  20.685  0.00  0.00    +0.000 A 
ATOM     21  C   UNL     1       0.935   9.090  19.577  0.00  0.00    +0.000 A 
ATOM     22  C   UNL     1       1.786   8.712  18.531  0.00  0.00    +0.000 A 
ATOM     23  C   UNL     1       2.574   7.559  18.650  0.00  0.00    +0.000 A 
ATOM     24 CL   UNL     1       3.596   7.115  17.335  0.00  0.00    +0.000 Cl
BRANCH  21  25
ATOM     25  C   UNL     1       0.097  10.331  19.520  0.00  0.00    +0.000 C 
ATOM     26  F   UNL     1       0.744  11.399  18.976  0.00  0.00    +0.000 F 
ATOM     27  F   UNL     1      -1.035  10.165  18.786  0.00  0.00    +0.000 F 
ATOM     28  F   UNL     1      -0.313  10.736  20.753  0.00  0.00    +0.000 F 
ENDBRANCH  21  25
ENDBRANCH  16  18
ENDBRANCH   8  16
TORSDOF 4
ENDMDL
MODEL 3
REMARK VINA RESULT:      -8.2      1.009      1.387
REMARK  Name = 
REMARK  4 active torsions:
REMARK  status: ('A' for Active; 'I' for Inactive)
REMARK    1  A    between atoms: C_2  and  C_3
REMARK    2  A    between atoms: C_14  and  N_15
REMARK    3  A    between atoms: N_15  and  C_16
REMARK    4  A    between atoms: C_19  and  C_20
REMARK                            x       y       z     vdW  Elec       q    Type
REMARK                         _______ _______ _______ _____ _____    ______ ____
ROOT
ATOM      1  O   UNL     1       3.130   3.918  16.106  0.00  0.00    +0.000 OA
ATOM      2  C   UNL     1       3.826   3.677  17.100  0.00  0.00    +0.000 C 
ATOM      3  N   UNL     1       3.316   3.134  18.272  0.00  0.00    +0.000 N 
ATOM      4  C   UNL     1       1.879   2.998  18.368  0.00  0.00    +0.000 C 
ATOM      5  C   UNL     1       1.572   4.010  19.465  0.00  0.00    +0.000 C 
ATOM      6  C   UNL     1       1.096   3.330  20.780  0.00  0.00    +0.000 C 
ATOM      7  C   UNL     1       2.060   4.254  21.528  0.00  0.00    +0.000 C 
ATOM      8  C   UNL     1       2.897   4.362  20.209  0.00  0.00    +0.000 C 
ATOM      9  C   UNL     1       3.870   3.328  19.617  0.00  0.00    +0.000 C 
ENDROOT
BRANCH   2  10
ATOM     10  C   UNL     1       5.263   3.998  16.992  0.00  0.00    +0.000 A 
ATOM     11  C   UNL     1       5.955   4.443  18.111  0.00  0.00    +0.000 A 
ATOM     12  C   UNL     1       7.290   4.752  17.954  0.00  0.00    +0.000 A 
ATOM     13  N   UNL     1       7.928   4.642  16.772  0.00  0.00    +0.000 NA
ATOM     14  N   UNL     1       7.237   4.241  15.666  0.00  0.00    +0.000 NA
ATOM     15  C   UNL     1       5.925   3.945  15.783  0.00  0.00    +0.000 A 
ENDBRANCH   2  10
BRANCH   8  16
ATOM     16  N   UNL     1       3.417   5.715  20.071  0.00  0.00    +0.000 N 
ATOM     17  H   UNL     1       4.211   5.794  19.440  0.00  0.00    +0.000 HD
BRANCH  16  18
ATOM     18  C   UNL     1       2.511   6.790  19.829  0.00  0.00    +0.000 A 
ATOM     19  N   UNL     1       1.667   7.138  20.833  0.00  0.00    +0.000 NA
ATOM     20  C   UNL     1       0.921   8.261  20.712  0.00  0.00    +0.000 A 
ATOM     21  C   UNL     1       0.950   9.090  19.607  0.00  0.00    +0.000 A 
ATOM     22  C   UNL     1       1.789   8.711  18.551  0.00  0.00    +0.000 A 
ATOM     23  C   UNL     1       2.571   7.552  18.657  0.00  0.00    +0.000 A 
ATOM     24 CL   UNL     1       3.577   7.107  17.330  0.00  0.00    +0.000 Cl
BRANCH  21  25
ATOM     25  C   UNL     1       0.121  10.336  19.565  0.00  0.00    +0.000 C 
ATOM     26  F   UNL     1      -0.823  10.328  18.582  0.00  0.00    +0.000 F 
ATOM     27  F   UNL     1      -0.551  10.557  20.726  0.00  0.00    +0.000 F 
ATOM     28  F   UNL     1       0.871  11.451  19.348  0.00  0.00    +0.000 F 
ENDBRANCH  21  25
ENDBRANCH  16  18
ENDBRANCH   8  16
TORSDOF 4
ENDMDL
MODEL 4
REMARK VINA RESULT:      -8.0      0.431      1.187
REMARK  Name = 
REMARK  4 active torsions:
REMARK  status: ('A' for Active; 'I' for Inactive)
REMARK    1  A    between atoms: C_2  and  C_3
REMARK    2  A    between atoms: C_14  and  N_15
REMARK    3  A    between atoms: N_15  and  C_16
REMARK    4  A    between atoms: C_19  and  C_20
REMARK                            x       y       z     vdW  Elec       q    Type
REMARK                         _______ _______ _______ _____ _____    ______ ____
ROOT
ATOM      1  O   UNL     1       4.468   4.984  16.317  0.00  0.00    +0.000 OA
ATOM      2  C   UNL     1       4.659   4.489  17.434  0.00  0.00    +0.000 C 
ATOM      3  N   UNL     1       3.703   3.738  18.107  0.00  0.00    +0.000 N 
ATOM      4  C   UNL     1       2.381   3.676  17.525  0.00  0.00    +0.000 C 
ATOM      5  C   UNL     1       1.578   4.444  18.569  0.00  0.00    +0.000 C 
ATOM      6  C   UNL     1       0.594   3.526  19.350  0.00  0.00    +0.000 C 
ATOM      7  C   UNL     1       1.087   4.203  20.632  0.00  0.00    +0.000 C 
ATOM      8  C   UNL     1       2.418   4.541  19.879  0.00  0.00    +0.000 C 
ATOM      9  C   UNL     1       3.594   3.600  19.564  0.00  0.00    +0.000 C 
ENDROOT
BRANCH   2  10
ATOM     10  C   UNL     1       5.980   4.733  18.046  0.00  0.00    +0.000 A 
ATOM     11  C   UNL     1       7.131   4.319  17.389  0.00  0.00    +0.000 A 
ATOM     12  C   UNL     1       8.339   4.549  18.011  0.00  0.00    +0.000 A 
ATOM     13  N   UNL     1       8.435   5.146  19.216  0.00  0.00    +0.000 NA
ATOM     14  N   UNL     1       7.301   5.517  19.877  0.00  0.00    +0.000 NA
ATOM     15  C   UNL     1       6.102   5.293  19.301  0.00  0.00    +0.000 A 
ENDBRANCH   2  10
BRANCH   8  16
ATOM     16  N   UNL     1       2.891   5.855  20.289  0.00  0.00    +0.000 N 
ATOM     17  H   UNL     1       3.817   6.093  19.943  0.00  0.00    +0.000 HD
BRANCH  16  18
ATOM     18  C   UNL     1       2.029   6.983  20.147  0.00  0.00    +0.000 A 
ATOM     19  N   UNL     1       1.159   7.240  21.158  0.00  0.00    +0.000 NA
ATOM     20  C   UNL     1       0.454   8.395  21.146  0.00  0.00    +0.000 A 
ATOM     21  C   UNL     1       0.550   9.347  20.150  0.00  0.00    +0.000 A 
ATOM     22  C   UNL     1       1.415   9.065  19.084  0.00  0.00    +0.000 A 
ATOM     23  C   UNL     1       2.155   7.875  19.077  0.00  0.00    +0.000 A 
ATOM     24 CL   UNL     1       3.195   7.554  17.740  0.00  0.00    +0.000 Cl
BRANCH  21  25
ATOM     25  C   UNL     1      -0.238  10.618  20.228  0.00  0.00    +0.000 C 
ATOM     26  F   UNL     1      -1.388  10.591  19.500  0.00  0.00    +0.000 F 
ATOM     27  F   UNL     1      -0.608  10.927  21.500  0.00  0.00    +0.000 F 
ATOM     28  F   UNL     1       0.464  11.692  19.772  0.00  0.00    +0.000 F 
ENDBRANCH  21  25
ENDBRANCH  16  18
ENDBRANCH   8  16
TORSDOF 4
ENDMDL
MODEL 5
REMARK VINA RESULT:      -7.9      1.052      1.336
REMARK  Name = 
REMARK  4 active torsions:
REMARK  status: ('A' for Active; 'I' for Inactive)
REMARK    1  A    between atoms: C_2  and  C_3
REMARK    2  A    between atoms: C_14  and  N_15
REMARK    3  A    between atoms: N_15  and  C_16
REMARK    4  A    between atoms: C_19  and  C_20
REMARK                            x       y       z     vdW  Elec       q    Type
REMARK                         _______ _______ _______ _____ _____    ______ ____
ROOT
ATOM      1  O   UNL     1       4.540   5.537  16.277  0.00  0.00    +0.000 OA
ATOM      2  C   UNL     1       4.819   5.229  17.442  0.00  0.00    +0.000 C 
ATOM      3  N   UNL     1       3.989   4.457  18.244  0.00  0.00    +0.000 N 
ATOM      4  C   UNL     1       2.676   4.139  17.727  0.00  0.00    +0.000 C 
ATOM      5  C   UNL     1       1.796   4.928  18.689  0.00  0.00    +0.000 C 
ATOM      6  C   UNL     1       0.963   4.002  19.621  0.00  0.00    +0.000 C 
ATOM      7  C   UNL     1       1.383   4.908  20.783  0.00  0.00    +0.000 C 
ATOM      8  C   UNL     1       2.640   5.315  19.942  0.00  0.00    +0.000 C 
ATOM      9  C   UNL     1       3.928   4.505  19.710  0.00  0.00    +0.000 C 
ENDROOT
BRANCH   2  10
ATOM     10  C   UNL     1       6.105   5.730  17.966  0.00  0.00    +0.000 A 
ATOM     11  C   UNL     1       6.626   6.925  17.487  0.00  0.00    +0.000 A 
ATOM     12  C   UNL     1       7.841   7.338  17.991  0.00  0.00    +0.000 A 
ATOM     13  N   UNL     1       8.527   6.630  18.910  0.00  0.00    +0.000 NA
ATOM     14  N   UNL     1       8.031   5.437  19.350  0.00  0.00    +0.000 NA
ATOM     15  C   UNL     1       6.851   4.998  18.866  0.00  0.00    +0.000 A 
ENDBRANCH   2  10
BRANCH   8  16
ATOM     16  N   UNL     1       2.935   6.724  20.156  0.00  0.00    +0.000 N 
ATOM     17  H   UNL     1       3.790   7.045  19.707  0.00  0.00    +0.000 HD
BRANCH  16  18
ATOM     18  C   UNL     1       1.905   7.691  19.957  0.00  0.00    +0.000 A 
ATOM     19  N   UNL     1       1.062   7.933  20.993  0.00  0.00    +0.000 NA
ATOM     20  C   UNL     1       0.190   8.965  20.910  0.00  0.00    +0.000 A 
ATOM     21  C   UNL     1       0.086   9.800  19.814  0.00  0.00    +0.000 A 
ATOM     22  C   UNL     1       0.925   9.526  18.726  0.00  0.00    +0.000 A 
ATOM     23  C   UNL     1       1.836   8.463  18.792  0.00  0.00    +0.000 A 
ATOM     24 CL   UNL     1       2.839   8.145  17.426  0.00  0.00    +0.000 Cl
BRANCH  21  25
ATOM     25  C   UNL     1      -0.880  10.944  19.814  0.00  0.00    +0.000 C 
ATOM     26  F   UNL     1      -1.370  11.242  21.050  0.00  0.00    +0.000 F 
ATOM     27  F   UNL     1      -0.330  12.094  19.342  0.00  0.00    +0.000 F 
ATOM     28  F   UNL     1      -1.969  10.702  19.034  0.00  0.00    +0.000 F 
ENDBRANCH  21  25
ENDBRANCH  16  18
ENDBRANCH   8  16
TORSDOF 4
ENDMDL
MODEL 6
REMARK VINA RESULT:      -7.8      1.501      1.685
REMARK  Name = 
REMARK  4 active torsions:
REMARK  status: ('A' for Active; 'I' for Inactive)
REMARK    1  A    between atoms: C_2  and  C_3
REMARK    2  A    between atoms: C_14  and  N_15
REMARK    3  A    between atoms: N_15  and  C_16
REMARK    4  A    between atoms: C_19  and  C_20
REMARK                            x       y       z     vdW  Elec       q    Type
REMARK                         _______ _______ _______ _____ _____    ______ ____
ROOT
ATOM      1  O   UNL     1       4.752   4.637  16.242  0.00  0.00    +0.000 OA
ATOM      2  C   UNL     1       4.957   4.888  17.435  0.00  0.00    +0.000 C 
ATOM      3  N   UNL     1       4.176   4.378  18.465  0.00  0.00    +0.000 N 
ATOM      4  C   UNL     1       2.983   3.651  18.094  0.00  0.00    +0.000 C 
ATOM      5  C   UNL     1       1.905   4.595  18.611  0.00  0.00    +0.000 C 
ATOM      6  C   UNL     1       1.132   4.002  19.823  0.00  0.00    +0.000 C 
ATOM      7  C   UNL     1       1.296   5.362  20.507  0.00  0.00    +0.000 C 
ATOM      8  C   UNL     1       2.555   5.603  19.607  0.00  0.00    +0.000 C 
ATOM      9  C   UNL     1       3.965   5.012  19.772  0.00  0.00    +0.000 C 
ENDROOT
BRANCH   2  10
ATOM     10  C   UNL     1       6.097   5.777  17.735  0.00  0.00    +0.000 A 
ATOM     11  C   UNL     1       7.017   5.413  18.710  0.00  0.00    +0.000 A 
ATOM     12  C   UNL     1       8.051   6.287  18.969  0.00  0.00    +0.000 A 
ATOM     13  N   UNL     1       8.189   7.463  18.323  0.00  0.00    +0.000 NA
ATOM     14  N   UNL     1       7.263   7.835  17.394  0.00  0.00    +0.000 NA
ATOM     15  C   UNL     1       6.231   7.008  17.127  0.00  0.00    +0.000 A 
ENDBRANCH   2  10
BRANCH   8  16
ATOM     16  N   UNL     1       2.614   7.005  19.217  0.00  0.00    +0.000 N 
ATOM     17  H   UNL     1       2.597   7.159  18.212  0.00  0.00    +0.000 HD
BRANCH  16  18
ATOM     18  C   UNL     1       1.749   7.944  19.854  0.00  0.00    +0.000 A 
ATOM     19  N   UNL     1       1.583   7.835  21.197  0.00  0.00    +0.000 NA
ATOM     20  C   UNL     1       0.920   8.808  21.863  0.00  0.00    +0.000 A 
ATOM     21  C   UNL     1       0.377   9.925  21.257  0.00  0.00    +0.000 A 
ATOM     22  C   UNL     1       0.510  10.019  19.866  0.00  0.00    +0.000 A 
ATOM     23  C   UNL     1       1.194   9.022  19.157  0.00  0.00    +0.000 A 
ATOM     24 CL   UNL     1       1.321   9.164  17.443  0.00  0.00    +0.000 Cl
BRANCH  21  25
ATOM     25  C   UNL     1      -0.311  10.977  22.071  0.00  0.00    +0.000 C 
ATOM     26  F   UNL     1       0.305  12.191  22.023  0.00  0.00    +0.000 F 
ATOM     27  F   UNL     1      -1.593  11.192  21.671  0.00  0.00    +0.000 F 
ATOM     28  F   UNL     1      -0.381  10.649  23.390  0.00  0.00    +0.000 F 
ENDBRANCH  21  25
ENDBRANCH  16  18
ENDBRANCH   8  16
TORSDOF 4
ENDMDL
MODEL 7
REMARK VINA RESULT:      -7.8      1.141      1.232
REMARK  Name = 
REMARK  4 active torsions:
REMARK  status: ('A' for Active; 'I' for Inactive)
REMARK    1  A    between atoms: C_2  and  C_3
REMARK    2  A    between atoms: C_14  and  N_15
REMARK    3  A    between atoms: N_15  and  C_16
REMARK    4  A    between atoms: C_19  and  C_20
REMARK                            x       y       z     vdW  Elec       q    Type
REMARK                         _______ _______ _______ _____ _____    ______ ____
ROOT
ATOM      1  O   UNL     1       4.473   5.677  16.218  0.00  0.00    +0.000 OA
ATOM      2  C   UNL     1       4.792   5.357  17.370  0.00  0.00    +0.000 C 
ATOM      3  N   UNL     1       4.001   4.555  18.183  0.00  0.00    +0.000 N 
ATOM      4  C   UNL     1       2.681   4.220  17.699  0.00  0.00    +0.000 C 
ATOM      5  C   UNL     1       1.813   4.975  18.699  0.00  0.00    +0.000 C 
ATOM      6  C   UNL     1       1.027   4.019  19.640  0.00  0.00    +0.000 C 
ATOM      7  C   UNL     1       1.463   4.914  20.803  0.00  0.00    +0.000 C 
ATOM      8  C   UNL     1       2.687   5.359  19.932  0.00  0.00    +0.000 C 
ATOM      9  C   UNL     1       3.983   4.580  19.650  0.00  0.00    +0.000 C 
ENDROOT
BRANCH   2  10
ATOM     10  C   UNL     1       6.083   5.875  17.864  0.00  0.00    +0.000 A 
ATOM     11  C   UNL     1       6.724   5.235  18.917  0.00  0.00    +0.000 A 
ATOM     12  C   UNL     1       7.916   5.769  19.358  0.00  0.00    +0.000 A 
ATOM     13  N   UNL     1       8.464   6.874  18.813  0.00  0.00    +0.000 NA
ATOM     14  N   UNL     1       7.813   7.523  17.805  0.00  0.00    +0.000 NA
ATOM     15  C   UNL     1       6.637   7.033  17.360  0.00  0.00    +0.000 A 
ENDBRANCH   2  10
BRANCH   8  16
ATOM     16  N   UNL     1       2.960   6.771  20.161  0.00  0.00    +0.000 N 
ATOM     17  H   UNL     1       3.813   7.108  19.721  0.00  0.00    +0.000 HD
BRANCH  16  18
ATOM     18  C   UNL     1       1.918   7.725  19.964  0.00  0.00    +0.000 A 
ATOM     19  N   UNL     1       1.072   7.954  21.000  0.00  0.00    +0.000 NA
ATOM     20  C   UNL     1       0.187   8.975  20.919  0.00  0.00    +0.000 A 
ATOM     21  C   UNL     1       0.073   9.810  19.825  0.00  0.00    +0.000 A 
ATOM     22  C   UNL     1       0.915   9.550  18.736  0.00  0.00    +0.000 A 
ATOM     23  C   UNL     1       1.839   8.498  18.800  0.00  0.00    +0.000 A 
ATOM     24 CL   UNL     1       2.847   8.196  17.434  0.00  0.00    +0.000 Cl
BRANCH  21  25
ATOM     25  C   UNL     1      -0.909  10.942  19.826  0.00  0.00    +0.000 C 
ATOM     26  F   UNL     1      -0.400  12.104  19.330  0.00  0.00    +0.000 F 
ATOM     27  F   UNL     1      -2.018  10.673  19.088  0.00  0.00    +0.000 F 
ATOM     28  F   UNL     1      -1.356  11.238  21.078  0.00  0.00    +0.000 F 
ENDBRANCH  21  25
ENDBRANCH  16  18
ENDBRANCH   8  16
TORSDOF 4
ENDMDL
MODEL 8
REMARK VINA RESULT:      -7.6      1.549      1.992
REMARK  Name = 
REMARK  4 active torsions:
REMARK  status: ('A' for Active; 'I' for Inactive)
REMARK    1  A    between atoms: C_2  and  C_3
REMARK    2  A    between atoms: C_14  and  N_15
REMARK    3  A    between atoms: N_15  and  C_16
REMARK    4  A    between atoms: C_19  and  C_20
REMARK                            x       y       z     vdW  Elec       q    Type
REMARK                         _______ _______ _______ _____ _____    ______ ____
ROOT
ATOM      1  O   UNL     1       5.743   4.146  15.859  0.00  0.00    +0.000 OA
ATOM      2  C   UNL     1       5.660   4.368  17.073  0.00  0.00    +0.000 C 
ATOM      3  N   UNL     1       4.794   3.680  17.914  0.00  0.00    +0.000 N 
ATOM      4  C   UNL     1       3.847   2.779  17.296  0.00  0.00    +0.000 C 
ATOM      5  C   UNL     1       2.537   3.498  17.597  0.00  0.00    +0.000 C 
ATOM      6  C   UNL     1       1.657   2.721  18.617  0.00  0.00    +0.000 C 
ATOM      7  C   UNL     1       1.439   4.052  19.341  0.00  0.00    +0.000 C 
ATOM      8  C   UNL     1       2.787   4.551  18.721  0.00  0.00    +0.000 C 
ATOM      9  C   UNL     1       4.220   4.201  19.160  0.00  0.00    +0.000 C 
ENDROOT
BRANCH   2  10
ATOM     10  C   UNL     1       6.542   5.422  17.612  0.00  0.00    +0.000 A 
ATOM     11  C   UNL     1       6.579   6.669  17.001  0.00  0.00    +0.000 A 
ATOM     12  C   UNL     1       7.434   7.612  17.528  0.00  0.00    +0.000 A 
ATOM     13  N   UNL     1       8.224   7.366  18.592  0.00  0.00    +0.000 NA
ATOM     14  N   UNL     1       8.214   6.128  19.167  0.00  0.00    +0.000 NA
ATOM     15  C   UNL     1       7.397   5.178  18.666  0.00  0.00    +0.000 A 
ENDBRANCH   2  10
BRANCH   8  16
ATOM     16  N   UNL     1       2.673   5.959  18.372  0.00  0.00    +0.000 N 
ATOM     17  H   UNL     1       2.345   6.130  17.424  0.00  0.00    +0.000 HD
BRANCH  16  18
ATOM     18  C   UNL     1       2.010   6.849  19.269  0.00  0.00    +0.000 A 
ATOM     19  N   UNL     1       1.627   6.356  20.474  0.00  0.00    +0.000 NA
ATOM     20  C   UNL     1       1.160   7.205  21.419  0.00  0.00    +0.000 A 
ATOM     21  C   UNL     1       1.032   8.568  21.234  0.00  0.00    +0.000 A 
ATOM     22  C   UNL     1       1.386   9.074  19.977  0.00  0.00    +0.000 A 
ATOM     23  C   UNL     1       1.872   8.212  18.985  0.00  0.00    +0.000 A 
ATOM     24 CL   UNL     1       2.281   8.869  17.444  0.00  0.00    +0.000 Cl
BRANCH  21  25
ATOM     25  C   UNL     1       0.541   9.447  22.343  0.00  0.00    +0.000 C 
ATOM     26  F   UNL     1      -0.627   9.019  22.899  0.00  0.00    +0.000 F 
ATOM     27  F   UNL     1       1.430   9.542  23.368  0.00  0.00    +0.000 F 
ATOM     28  F   UNL     1       0.308  10.722  21.930  0.00  0.00    +0.000 F 
ENDBRANCH  21  25
ENDBRANCH  16  18
ENDBRANCH   8  16
TORSDOF 4
ENDMDL
MODEL 9
REMARK VINA RESULT:      -7.4      6.797      9.491
REMARK  Name = 
REMARK  4 active torsions:
REMARK  status: ('A' for Active; 'I' for Inactive)
REMARK    1  A    between atoms: C_2  and  C_3
REMARK    2  A    between atoms: C_14  and  N_15
REMARK    3  A    between atoms: N_15  and  C_16
REMARK    4  A    between atoms: C_19  and  C_20
REMARK                            x       y       z     vdW  Elec       q    Type
REMARK                         _______ _______ _______ _____ _____    ______ ____
ROOT
ATOM      1  O   UNL     1       0.547  13.703  22.010  0.00  0.00    +0.000 OA
ATOM      2  C   UNL     1      -0.241  12.768  21.821  0.00  0.00    +0.000 C 
ATOM      3  N   UNL     1       0.131  11.567  21.231  0.00  0.00    +0.000 N 
ATOM      4  C   UNL     1       1.466  11.485  20.680  0.00  0.00    +0.000 C 
ATOM      5  C   UNL     1       1.151  11.375  19.194  0.00  0.00    +0.000 C 
ATOM      6  C   UNL     1       1.505   9.974  18.618  0.00  0.00    +0.000 C 
ATOM      7  C   UNL     1       0.141   9.989  17.922  0.00  0.00    +0.000 C 
ATOM      8  C   UNL     1      -0.350  10.988  19.025  0.00  0.00    +0.000 C 
ATOM      9  C   UNL     1      -0.755  10.675  20.476  0.00  0.00    +0.000 C 
ENDROOT
BRANCH   2  10
ATOM     10  C   UNL     1      -1.635  12.983  22.258  0.00  0.00    +0.000 A 
ATOM     11  C   UNL     1      -2.261  14.195  21.994  0.00  0.00    +0.000 A 
ATOM     12  C   UNL     1      -3.554  14.355  22.442  0.00  0.00    +0.000 A 
ATOM     13  N   UNL     1      -4.215  13.394  23.118  0.00  0.00    +0.000 NA
ATOM     14  N   UNL     1      -3.585  12.220  23.410  0.00  0.00    +0.000 NA
ATOM     15  C   UNL     1      -2.313  12.037  22.997  0.00  0.00    +0.000 A 
ENDBRANCH   2  10
BRANCH   8  16
ATOM     16  N   UNL     1      -1.244  11.971  18.429  0.00  0.00    +0.000 N 
ATOM     17  H   UNL     1      -0.957  12.292  17.507  0.00  0.00    +0.000 HD
BRANCH  16  18
ATOM     18  C   UNL     1      -2.650  11.728  18.429  0.00  0.00    +0.000 A 
ATOM     19  N   UNL     1      -3.366  12.184  19.489  0.00  0.00    +0.000 NA
ATOM     20  C   UNL     1      -4.717  12.134  19.444  0.00  0.00    +0.000 A 
ATOM     21  C   UNL     1      -5.435  11.629  18.378  0.00  0.00    +0.000 A 
ATOM     22  C   UNL     1      -4.699  11.118  17.301  0.00  0.00    +0.000 A 
ATOM     23  C   UNL     1      -3.298  11.161  17.327  0.00  0.00    +0.000 A 
ATOM     24 CL   UNL     1      -2.424  10.506  15.992  0.00  0.00    +0.000 Cl
BRANCH  21  25
ATOM     25  C   UNL     1      -6.933  11.642  18.390  0.00  0.00    +0.000 C 
ATOM     26  F   UNL     1      -7.463  12.244  19.491  0.00  0.00    +0.000 F 
ATOM     27  F   UNL     1      -7.459  12.294  17.318  0.00  0.00    +0.000 F 
ATOM     28  F   UNL     1      -7.463  10.389  18.362  0.00  0.00    +0.000 F 
ENDBRANCH  21  25
ENDBRANCH  16  18
ENDBRANCH   8  16
TORSDOF 4
ENDMDL
