MODEL 1
REMARK VINA RESULT:      -7.7      0.000      0.000
REMARK  Name = 
REMARK  9 active torsions:
REMARK  status: ('A' for Active; 'I' for Inactive)
REMARK    1  A    between atoms: N_1  and  S_2
REMARK    2  A    between atoms: S_2  and  N_5
REMARK    3  A    between atoms: N_5  and  C_6
REMARK    4  A    between atoms: C_6  and  C_7
REMARK    5  A    between atoms: C_7  and  C_8
REMARK    6  A    between atoms: C_8  and  N_9
REMARK    7  A    between atoms: C_14  and  C_15
REMARK    8  A    between atoms: N_16  and  O_17
REMARK    9  A    between atoms: N_18  and  C_19
REMARK                            x       y       z     vdW  Elec       q    Type
REMARK                         _______ _______ _______ _____ _____    ______ ____
ROOT
ATOM      1  N   UNL     1       4.655   2.516  19.498  0.00  0.00    +0.000 N 
ATOM      2  C   UNL     1       3.690   2.729  20.440  0.00  0.00    +0.000 A 
ATOM      3  N   UNL     1       3.647   2.011  21.565  0.00  0.00    +0.000 NA
ATOM      4  O   UNL     1       2.634   2.563  22.330  0.00  0.00    +0.000 OA
ATOM      5  N   UNL     1       2.046   3.642  21.687  0.00  0.00    +0.000 NA
ATOM      6  C   UNL     1       2.645   3.707  20.489  0.00  0.00    +0.000 A 
ATOM      7  H   UNL     1       5.358   1.832  19.767  0.00  0.00    +0.000 HD
ENDROOT
BRANCH   6   8
ATOM      8  C   UNL     1       2.224   4.710  19.510  0.00  0.00    +0.000 C 
ATOM      9  N   UNL     1       1.429   4.300  18.571  0.00  0.00    +0.000 NA
ATOM     10  N   UNL     1       2.803   5.949  19.736  0.00  0.00    +0.000 N 
ATOM     11  H   UNL     1       3.513   6.001  20.460  0.00  0.00    +0.000 HD
BRANCH  10  12
ATOM     12  C   UNL     1       2.242   7.195  19.395  0.00  0.00    +0.000 A 
ATOM     13  C   UNL     1       2.510   7.822  18.164  0.00  0.00    +0.000 A 
ATOM     14  C   UNL     1       2.078   9.124  17.913  0.00  0.00    +0.000 A 
ATOM     15  C   UNL     1       1.363   9.808  18.887  0.00  0.00    +0.000 A 
ATOM     16  F   UNL     1       1.003  11.078  18.648  0.00  0.00    +0.000 F 
ATOM     17  C   UNL     1       1.043   9.188  20.091  0.00  0.00    +0.000 A 
ATOM     18 BR   UNL     1       0.083  10.121  21.426  0.00  0.00    +0.000 Br
ATOM     19  C   UNL     1       1.468   7.878  20.340  0.00  0.00    +0.000 A 
ENDBRANCH  10  12
BRANCH   9  20
ATOM     20  O   UNL     1       1.277   5.236  17.543  0.00  0.00    +0.000 OA
ATOM     21  H   UNL     1       2.139   5.685  17.523  0.00  0.00    +0.000 HD
ENDBRANCH   9  20
ENDBRANCH   6   8
BRANCH   1  22
ATOM     22  C   UNL     1       5.153   3.611  18.679  0.00  0.00    +0.000 C 
BRANCH  22  23
ATOM     23  C   UNL     1       4.611   3.577  17.254  0.00  0.00    +0.000 C 
BRANCH  23  24
ATOM     24  C   UNL     1       4.786   4.934  16.563  0.00  0.00    +0.000 C 
BRANCH  24  25
ATOM     25  N   UNL     1       5.640   4.801  15.356  0.00  0.00    +0.000 NA
ATOM     26  H   UNL     1       5.676   3.837  15.023  0.00  0.00    +0.000 HD
BRANCH  25  27
ATOM     27  S   UNL     1       7.243   5.220  15.593  0.00  0.00    +0.000 S 
ATOM     28  O   UNL     1       7.820   5.549  14.319  0.00  0.00    +0.000 OA
ATOM     29  O   UNL     1       7.838   4.321  16.542  0.00  0.00    +0.000 OA
BRANCH  27  30
ATOM     30  N   UNL     1       6.926   6.643  16.390  0.00  0.00    +0.000 NA
ATOM     31  H   UNL     1       5.922   6.720  16.558  0.00  0.00    +0.000 HD
ATOM     32  H   UNL     1       7.258   7.422  15.818  0.00  0.00    +0.000 HD
ENDBRANCH  27  30
ENDBRANCH  25  27
ENDBRANCH  24  25
ENDBRANCH  23  24
ENDBRANCH  22  23
ENDBRANCH   1  22
TORSDOF 9
ENDMDL
MODEL 2
REMARK VINA RESULT:      -7.6      3.664      6.637
REMARK  Name = 
REMARK  9 active torsions:
REMARK  status: ('A' for Active; 'I' for Inactive)
REMARK    1  A    between atoms: N_1  and  S_2
REMARK    2  A    between atoms: S_2  and  N_5
REMARK    3  A    between atoms: N_5  and  C_6
REMARK    4  A    between atoms: C_6  and  C_7
REMARK    5  A    between atoms: C_7  and  C_8
REMARK    6  A    between atoms: C_8  and  N_9
REMARK    7  A    between atoms: C_14  and  C_15
REMARK    8  A    between atoms: N_16  and  O_17
REMARK    9  A    between atoms: N_18  and  C_19
REMARK                            x       y       z     vdW  Elec       q    Type
REMARK                         _______ _______ _______ _____ _____    ______ ____
ROOT
ATOM      1  N   UNL     1       4.913   6.536  15.764  0.00  0.00    +0.000 N 
ATOM      2  C   UNL     1       6.011   5.729  15.671  0.00  0.00    +0.000 A 
ATOM      3  N   UNL     1       6.685   5.603  14.526  0.00  0.00    +0.000 NA
ATOM      4  O   UNL     1       7.787   4.818  14.819  0.00  0.00    +0.000 OA
ATOM      5  N   UNL     1       7.811   4.461  16.158  0.00  0.00    +0.000 NA
ATOM      6  C   UNL     1       6.680   4.960  16.677  0.00  0.00    +0.000 A 
ATOM      7  H   UNL     1       4.714   7.071  14.922  0.00  0.00    +0.000 HD
ENDROOT
BRANCH   6   8
ATOM      8  C   UNL     1       6.345   4.719  18.080  0.00  0.00    +0.000 C 
ATOM      9  N   UNL     1       6.994   5.422  18.956  0.00  0.00    +0.000 NA
ATOM     10  N   UNL     1       5.399   3.718  18.237  0.00  0.00    +0.000 N 
ATOM     11  H   UNL     1       5.131   3.203  17.403  0.00  0.00    +0.000 HD
BRANCH  10  12
ATOM     12  C   UNL     1       4.477   3.615  19.295  0.00  0.00    +0.000 A 
ATOM     13  C   UNL     1       4.326   2.432  20.043  0.00  0.00    +0.000 A 
ATOM     14  C   UNL     1       3.298   2.298  20.975  0.00  0.00    +0.000 A 
ATOM     15  C   UNL     1       2.416   3.352  21.179  0.00  0.00    +0.000 A 
ATOM     16  F   UNL     1       1.402   3.184  22.039  0.00  0.00    +0.000 F 
ATOM     17  C   UNL     1       2.578   4.548  20.487  0.00  0.00    +0.000 A 
ATOM     18 BR   UNL     1       1.370   5.980  20.749  0.00  0.00    +0.000 Br
ATOM     19  C   UNL     1       3.615   4.687  19.558  0.00  0.00    +0.000 A 
ENDBRANCH  10  12
BRANCH   9  20
ATOM     20  O   UNL     1       6.809   4.963  20.264  0.00  0.00    +0.000 OA
ATOM     21  H   UNL     1       7.669   4.565  20.483  0.00  0.00    +0.000 HD
ENDBRANCH   9  20
ENDBRANCH   6   8
BRANCH   1  22
ATOM     22  C   UNL     1       4.590   7.218  17.008  0.00  0.00    +0.000 C 
BRANCH  22  23
ATOM     23  C   UNL     1       3.088   7.348  17.239  0.00  0.00    +0.000 C 
BRANCH  23  24
ATOM     24  C   UNL     1       2.772   8.509  18.188  0.00  0.00    +0.000 C 
BRANCH  24  25
ATOM     25  N   UNL     1       1.865   9.488  17.536  0.00  0.00    +0.000 NA
ATOM     26  H   UNL     1       2.386  10.212  17.040  0.00  0.00    +0.000 HD
BRANCH  25  27
ATOM     27  S   UNL     1       0.882  10.330  18.595  0.00  0.00    +0.000 S 
ATOM     28  O   UNL     1       1.282  11.710  18.587  0.00  0.00    +0.000 OA
ATOM     29  O   UNL     1       0.685   9.554  19.787  0.00  0.00    +0.000 OA
BRANCH  27  30
ATOM     30  N   UNL     1      -0.499  10.196  17.682  0.00  0.00    +0.000 NA
ATOM     31  H   UNL     1      -1.300  10.052  18.298  0.00  0.00    +0.000 HD
ATOM     32  H   UNL     1      -0.393   9.411  17.037  0.00  0.00    +0.000 HD
ENDBRANCH  27  30
ENDBRANCH  25  27
ENDBRANCH  24  25
ENDBRANCH  23  24
ENDBRANCH  22  23
ENDBRANCH   1  22
TORSDOF 9
ENDMDL
MODEL 3
REMARK VINA RESULT:      -7.5      0.916      1.106
REMARK  Name = 
REMARK  9 active torsions:
REMARK  status: ('A' for Active; 'I' for Inactive)
REMARK    1  A    between atoms: N_1  and  S_2
REMARK    2  A    between atoms: S_2  and  N_5
REMARK    3  A    between atoms: N_5  and  C_6
REMARK    4  A    between atoms: C_6  and  C_7
REMARK    5  A    between atoms: C_7  and  C_8
REMARK    6  A    between atoms: C_8  and  N_9
REMARK    7  A    between atoms: C_14  and  C_15
REMARK    8  A    between atoms: N_16  and  O_17
REMARK    9  A    between atoms: N_18  and  C_19
REMARK                            x       y       z     vdW  Elec       q    Type
REMARK                         _______ _______ _______ _____ _____    ______ ____
ROOT
ATOM      1  N   UNL     1       4.515   2.466  19.305  0.00  0.00    +0.000 N 
ATOM      2  C   UNL     1       3.626   2.743  20.303  0.00  0.00    +0.000 A 
ATOM      3  N   UNL     1       3.612   2.036  21.436  0.00  0.00    +0.000 NA
ATOM      4  O   UNL     1       2.684   2.653  22.257  0.00  0.00    +0.000 OA
ATOM      5  N   UNL     1       2.121   3.760  21.641  0.00  0.00    +0.000 NA
ATOM      6  C   UNL     1       2.645   3.781  20.407  0.00  0.00    +0.000 A 
ATOM      7  H   UNL     1       5.192   1.744  19.535  0.00  0.00    +0.000 HD
ENDROOT
BRANCH   6   8
ATOM      8  C   UNL     1       2.223   4.800  19.446  0.00  0.00    +0.000 C 
ATOM      9  N   UNL     1       1.448   4.400  18.486  0.00  0.00    +0.000 NA
ATOM     10  N   UNL     1       2.778   6.043  19.710  0.00  0.00    +0.000 N 
ATOM     11  H   UNL     1       3.477   6.088  20.445  0.00  0.00    +0.000 HD
BRANCH  10  12
ATOM     12  C   UNL     1       2.202   7.287  19.389  0.00  0.00    +0.000 A 
ATOM     13  C   UNL     1       2.458   7.936  18.168  0.00  0.00    +0.000 A 
ATOM     14  C   UNL     1       2.011   9.236  17.938  0.00  0.00    +0.000 A 
ATOM     15  C   UNL     1       1.292   9.898  18.924  0.00  0.00    +0.000 A 
ATOM     16  F   UNL     1       0.918  11.167  18.706  0.00  0.00    +0.000 F 
ATOM     17  C   UNL     1       0.984   9.256  20.120  0.00  0.00    +0.000 A 
ATOM     18 BR   UNL     1       0.019  10.158  21.473  0.00  0.00    +0.000 Br
ATOM     19  C   UNL     1       1.424   7.947  20.348  0.00  0.00    +0.000 A 
ENDBRANCH  10  12
BRANCH   9  20
ATOM     20  O   UNL     1       1.295   5.357  17.478  0.00  0.00    +0.000 OA
ATOM     21  H   UNL     1       2.212   5.606  17.268  0.00  0.00    +0.000 HD
ENDBRANCH   9  20
ENDBRANCH   6   8
BRANCH   1  22
ATOM     22  C   UNL     1       5.023   3.524  18.444  0.00  0.00    +0.000 C 
BRANCH  22  23
ATOM     23  C   UNL     1       6.016   4.438  19.153  0.00  0.00    +0.000 C 
BRANCH  23  24
ATOM     24  C   UNL     1       6.863   5.224  18.146  0.00  0.00    +0.000 C 
BRANCH  24  25
ATOM     25  N   UNL     1       7.215   4.374  16.980  0.00  0.00    +0.000 NA
ATOM     26  H   UNL     1       8.226   4.272  16.879  0.00  0.00    +0.000 HD
BRANCH  25  27
ATOM     27  S   UNL     1       6.707   4.979  15.505  0.00  0.00    +0.000 S 
ATOM     28  O   UNL     1       5.618   4.168  15.032  0.00  0.00    +0.000 OA
ATOM     29  O   UNL     1       7.851   5.337  14.714  0.00  0.00    +0.000 OA
BRANCH  27  30
ATOM     30  N   UNL     1       6.065   6.385  16.115  0.00  0.00    +0.000 NA
ATOM     31  H   UNL     1       5.454   6.165  16.902  0.00  0.00    +0.000 HD
ATOM     32  H   UNL     1       5.546   6.859  15.374  0.00  0.00    +0.000 HD
ENDBRANCH  27  30
ENDBRANCH  25  27
ENDBRANCH  24  25
ENDBRANCH  23  24
ENDBRANCH  22  23
ENDBRANCH   1  22
TORSDOF 9
ENDMDL
MODEL 4
REMARK VINA RESULT:      -7.2      1.517      1.674
REMARK  Name = 
REMARK  9 active torsions:
REMARK  status: ('A' for Active; 'I' for Inactive)
REMARK    1  A    between atoms: N_1  and  S_2
REMARK    2  A    between atoms: S_2  and  N_5
REMARK    3  A    between atoms: N_5  and  C_6
REMARK    4  A    between atoms: C_6  and  C_7
REMARK    5  A    between atoms: C_7  and  C_8
REMARK    6  A    between atoms: C_8  and  N_9
REMARK    7  A    between atoms: C_14  and  C_15
REMARK    8  A    between atoms: N_16  and  O_17
REMARK    9  A    between atoms: N_18  and  C_19
REMARK                            x       y       z     vdW  Elec       q    Type
REMARK                         _______ _______ _______ _____ _____    ______ ____
ROOT
ATOM      1  N   UNL     1       4.683   2.715  17.551  0.00  0.00    +0.000 N 
ATOM      2  C   UNL     1       4.223   2.793  18.834  0.00  0.00    +0.000 A 
ATOM      3  N   UNL     1       4.670   1.967  19.783  0.00  0.00    +0.000 NA
ATOM      4  O   UNL     1       4.092   2.398  20.965  0.00  0.00    +0.000 OA
ATOM      5  N   UNL     1       3.288   3.508  20.758  0.00  0.00    +0.000 NA
ATOM      6  C   UNL     1       3.307   3.716  19.433  0.00  0.00    +0.000 A 
ATOM      7  H   UNL     1       5.430   2.039  17.414  0.00  0.00    +0.000 HD
ENDROOT
BRANCH   6   8
ATOM      8  C   UNL     1       2.507   4.790  18.846  0.00  0.00    +0.000 C 
ATOM      9  N   UNL     1       1.480   4.425  18.142  0.00  0.00    +0.000 NA
ATOM     10  N   UNL     1       3.027   6.047  19.112  0.00  0.00    +0.000 N 
ATOM     11  H   UNL     1       3.931   6.083  19.573  0.00  0.00    +0.000 HD
BRANCH  10  12
ATOM     12  C   UNL     1       2.288   7.242  19.207  0.00  0.00    +0.000 A 
ATOM     13  C   UNL     1       2.223   8.167  18.150  0.00  0.00    +0.000 A 
ATOM     14  C   UNL     1       1.623   9.414  18.322  0.00  0.00    +0.000 A 
ATOM     15  C   UNL     1       1.069   9.743  19.552  0.00  0.00    +0.000 A 
ATOM     16  F   UNL     1       0.545  10.967  19.714  0.00  0.00    +0.000 F 
ATOM     17  C   UNL     1       1.077   8.823  20.596  0.00  0.00    +0.000 A 
ATOM     18 BR   UNL     1       0.338   9.274  22.278  0.00  0.00    +0.000 Br
ATOM     19  C   UNL     1       1.671   7.569  20.422  0.00  0.00    +0.000 A 
ENDBRANCH  10  12
BRANCH   9  20
ATOM     20  O   UNL     1       0.920   5.479  17.413  0.00  0.00    +0.000 OA
ATOM     21  H   UNL     1       0.130   5.077  17.014  0.00  0.00    +0.000 HD
ENDBRANCH   9  20
ENDBRANCH   6   8
BRANCH   1  22
ATOM     22  C   UNL     1       4.780   3.905  16.719  0.00  0.00    +0.000 C 
BRANCH  22  23
ATOM     23  C   UNL     1       5.883   3.806  15.671  0.00  0.00    +0.000 C 
BRANCH  23  24
ATOM     24  C   UNL     1       7.195   4.405  16.189  0.00  0.00    +0.000 C 
BRANCH  24  25
ATOM     25  N   UNL     1       7.223   5.874  15.975  0.00  0.00    +0.000 NA
ATOM     26  H   UNL     1       8.086   6.171  15.517  0.00  0.00    +0.000 HD
BRANCH  25  27
ATOM     27  S   UNL     1       7.163   6.778  17.381  0.00  0.00    +0.000 S 
ATOM     28  O   UNL     1       7.870   8.010  17.160  0.00  0.00    +0.000 OA
ATOM     29  O   UNL     1       7.370   5.919  18.513  0.00  0.00    +0.000 OA
BRANCH  27  30
ATOM     30  N   UNL     1       5.536   7.105  17.298  0.00  0.00    +0.000 NA
ATOM     31  H   UNL     1       5.207   7.421  18.212  0.00  0.00    +0.000 HD
ATOM     32  H   UNL     1       5.044   6.258  17.010  0.00  0.00    +0.000 HD
ENDBRANCH  27  30
ENDBRANCH  25  27
ENDBRANCH  24  25
ENDBRANCH  23  24
ENDBRANCH  22  23
ENDBRANCH   1  22
TORSDOF 9
ENDMDL
MODEL 5
REMARK VINA RESULT:      -7.2      4.851      7.385
REMARK  Name = 
REMARK  9 active torsions:
REMARK  status: ('A' for Active; 'I' for Inactive)
REMARK    1  A    between atoms: N_1  and  S_2
REMARK    2  A    between atoms: S_2  and  N_5
REMARK    3  A    between atoms: N_5  and  C_6
REMARK    4  A    between atoms: C_6  and  C_7
REMARK    5  A    between atoms: C_7  and  C_8
REMARK    6  A    between atoms: C_8  and  N_9
REMARK    7  A    between atoms: C_14  and  C_15
REMARK    8  A    between atoms: N_16  and  O_17
REMARK    9  A    between atoms: N_18  and  C_19
REMARK                            x       y       z     vdW  Elec       q    Type
REMARK                         _______ _______ _______ _____ _____    ______ ____
ROOT
ATOM      1  N   UNL     1       3.777   4.872  19.047  0.00  0.00    +0.000 N 
ATOM      2  C   UNL     1       5.131   5.044  19.108  0.00  0.00    +0.000 A 
ATOM      3  N   UNL     1       5.795   4.915  20.258  0.00  0.00    +0.000 NA
ATOM      4  O   UNL     1       7.137   5.035  19.937  0.00  0.00    +0.000 OA
ATOM      5  N   UNL     1       7.315   5.228  18.576  0.00  0.00    +0.000 NA
ATOM      6  C   UNL     1       6.077   5.306  18.066  0.00  0.00    +0.000 A 
ATOM      7  H   UNL     1       3.354   4.571  19.921  0.00  0.00    +0.000 HD
ENDROOT
BRANCH   6   8
ATOM      8  C   UNL     1       5.885   5.568  16.640  0.00  0.00    +0.000 C 
ATOM      9  N   UNL     1       5.611   6.793  16.311  0.00  0.00    +0.000 NA
ATOM     10  N   UNL     1       5.984   4.420  15.870  0.00  0.00    +0.000 N 
ATOM     11  H   UNL     1       6.067   3.538  16.367  0.00  0.00    +0.000 HD
BRANCH  10  12
ATOM     12  C   UNL     1       6.404   4.362  14.527  0.00  0.00    +0.000 A 
ATOM     13  C   UNL     1       7.558   5.029  14.076  0.00  0.00    +0.000 A 
ATOM     14  C   UNL     1       7.865   5.094  12.717  0.00  0.00    +0.000 A 
ATOM     15  C   UNL     1       7.026   4.481  11.796  0.00  0.00    +0.000 A 
ATOM     16  F   UNL     1       7.307   4.601  10.490  0.00  0.00    +0.000 F 
ATOM     17  C   UNL     1       5.907   3.773  12.225  0.00  0.00    +0.000 A 
ATOM     18 BR   UNL     1       4.753   2.951  10.972  0.00  0.00    +0.000 Br
ATOM     19  C   UNL     1       5.603   3.700  13.589  0.00  0.00    +0.000 A 
ENDBRANCH  10  12
BRANCH   9  20
ATOM     20  O   UNL     1       5.195   6.918  14.982  0.00  0.00    +0.000 OA
ATOM     21  H   UNL     1       4.351   6.435  14.969  0.00  0.00    +0.000 HD
ENDBRANCH   9  20
ENDBRANCH   6   8
BRANCH   1  22
ATOM     22  C   UNL     1       3.146   4.339  17.850  0.00  0.00    +0.000 C 
BRANCH  22  23
ATOM     23  C   UNL     1       1.650   4.103  18.025  0.00  0.00    +0.000 C 
BRANCH  23  24
ATOM     24  C   UNL     1       1.380   2.798  18.783  0.00  0.00    +0.000 C 
BRANCH  24  25
ATOM     25  N   UNL     1       0.732   3.074  20.090  0.00  0.00    +0.000 NA
ATOM     26  H   UNL     1       0.236   3.966  20.083  0.00  0.00    +0.000 HD
BRANCH  25  27
ATOM     27  S   UNL     1       1.794   3.195  21.377  0.00  0.00    +0.000 S 
ATOM     28  O   UNL     1       1.287   2.399  22.460  0.00  0.00    +0.000 OA
ATOM     29  O   UNL     1       2.232   4.556  21.510  0.00  0.00    +0.000 OA
BRANCH  27  30
ATOM     30  N   UNL     1       3.026   2.346  20.655  0.00  0.00    +0.000 NA
ATOM     31  H   UNL     1       3.921   2.761  20.917  0.00  0.00    +0.000 HD
ATOM     32  H   UNL     1       2.897   2.374  19.643  0.00  0.00    +0.000 HD
ENDBRANCH  27  30
ENDBRANCH  25  27
ENDBRANCH  24  25
ENDBRANCH  23  24
ENDBRANCH  22  23
ENDBRANCH   1  22
TORSDOF 9
ENDMDL
MODEL 6
REMARK VINA RESULT:      -7.2      4.324      6.447
REMARK  Name = 
REMARK  9 active torsions:
REMARK  status: ('A' for Active; 'I' for Inactive)
REMARK    1  A    between atoms: N_1  and  S_2
REMARK    2  A    between atoms: S_2  and  N_5
REMARK    3  A    between atoms: N_5  and  C_6
REMARK    4  A    between atoms: C_6  and  C_7
REMARK    5  A    between atoms: C_7  and  C_8
REMARK    6  A    between atoms: C_8  and  N_9
REMARK    7  A    between atoms: C_14  and  C_15
REMARK    8  A    between atoms: N_16  and  O_17
REMARK    9  A    between atoms: N_18  and  C_19
REMARK                            x       y       z     vdW  Elec       q    Type
REMARK                         _______ _______ _______ _____ _____    ______ ____
ROOT
ATOM      1  N   UNL     1       1.450   4.283  20.759  0.00  0.00    +0.000 N 
ATOM      2  C   UNL     1       1.324   3.409  19.717  0.00  0.00    +0.000 A 
ATOM      3  N   UNL     1       0.184   2.750  19.498  0.00  0.00    +0.000 NA
ATOM      4  O   UNL     1       0.368   2.057  18.314  0.00  0.00    +0.000 OA
ATOM      5  N   UNL     1       1.626   2.292  17.781  0.00  0.00    +0.000 NA
ATOM      6  C   UNL     1       2.249   3.069  18.678  0.00  0.00    +0.000 A 
ATOM      7  H   UNL     1       0.593   4.433  21.285  0.00  0.00    +0.000 HD
ENDROOT
BRANCH   6   8
ATOM      8  C   UNL     1       3.639   3.471  18.464  0.00  0.00    +0.000 C 
ATOM      9  N   UNL     1       4.518   2.959  19.269  0.00  0.00    +0.000 NA
ATOM     10  N   UNL     1       3.774   4.393  17.437  0.00  0.00    +0.000 N 
ATOM     11  H   UNL     1       2.918   4.760  17.032  0.00  0.00    +0.000 HD
BRANCH  10  12
ATOM     12  C   UNL     1       4.910   4.555  16.620  0.00  0.00    +0.000 A 
ATOM     13  C   UNL     1       5.972   5.405  16.979  0.00  0.00    +0.000 A 
ATOM     14  C   UNL     1       7.007   5.677  16.085  0.00  0.00    +0.000 A 
ATOM     15  C   UNL     1       6.996   5.092  14.826  0.00  0.00    +0.000 A 
ATOM     16  F   UNL     1       7.971   5.408  13.961  0.00  0.00    +0.000 F 
ATOM     17  C   UNL     1       5.981   4.209  14.469  0.00  0.00    +0.000 A 
ATOM     18 BR   UNL     1       5.954   3.422  12.750  0.00  0.00    +0.000 Br
ATOM     19  C   UNL     1       4.947   3.928  15.369  0.00  0.00    +0.000 A 
ENDBRANCH  10  12
BRANCH   9  20
ATOM     20  O   UNL     1       5.769   3.575  19.170  0.00  0.00    +0.000 OA
ATOM     21  H   UNL     1       5.791   4.159  19.947  0.00  0.00    +0.000 HD
ENDBRANCH   9  20
ENDBRANCH   6   8
BRANCH   1  22
ATOM     22  C   UNL     1       2.312   5.450  20.654  0.00  0.00    +0.000 C 
BRANCH  22  23
ATOM     23  C   UNL     1       1.539   6.763  20.709  0.00  0.00    +0.000 C 
BRANCH  23  24
ATOM     24  C   UNL     1       2.018   7.734  19.624  0.00  0.00    +0.000 C 
BRANCH  24  25
ATOM     25  N   UNL     1       1.294   9.027  19.719  0.00  0.00    +0.000 NA
ATOM     26  H   UNL     1       0.345   8.902  20.074  0.00  0.00    +0.000 HD
BRANCH  25  27
ATOM     27  S   UNL     1       1.093   9.817  18.258  0.00  0.00    +0.000 S 
ATOM     28  O   UNL     1      -0.309   9.852  17.949  0.00  0.00    +0.000 OA
ATOM     29  O   UNL     1       2.113   9.391  17.340  0.00  0.00    +0.000 OA
BRANCH  27  30
ATOM     30  N   UNL     1       1.528  11.318  18.820  0.00  0.00    +0.000 NA
ATOM     31  H   UNL     1       2.546  11.389  18.845  0.00  0.00    +0.000 HD
ATOM     32  H   UNL     1       1.133  11.448  19.753  0.00  0.00    +0.000 HD
ENDBRANCH  27  30
ENDBRANCH  25  27
ENDBRANCH  24  25
ENDBRANCH  23  24
ENDBRANCH  22  23
ENDBRANCH   1  22
TORSDOF 9
ENDMDL
MODEL 7
REMARK VINA RESULT:      -7.2      2.322      4.726
REMARK  Name = 
REMARK  9 active torsions:
REMARK  status: ('A' for Active; 'I' for Inactive)
REMARK    1  A    between atoms: N_1  and  S_2
REMARK    2  A    between atoms: S_2  and  N_5
REMARK    3  A    between atoms: N_5  and  C_6
REMARK    4  A    between atoms: C_6  and  C_7
REMARK    5  A    between atoms: C_7  and  C_8
REMARK    6  A    between atoms: C_8  and  N_9
REMARK    7  A    between atoms: C_14  and  C_15
REMARK    8  A    between atoms: N_16  and  O_17
REMARK    9  A    between atoms: N_18  and  C_19
REMARK                            x       y       z     vdW  Elec       q    Type
REMARK                         _______ _______ _______ _____ _____    ______ ____
ROOT
ATOM      1  N   UNL     1       5.393   3.589  17.704  0.00  0.00    +0.000 N 
ATOM      2  C   UNL     1       5.777   4.888  17.527  0.00  0.00    +0.000 A 
ATOM      3  N   UNL     1       7.045   5.206  17.258  0.00  0.00    +0.000 NA
ATOM      4  O   UNL     1       7.053   6.571  17.026  0.00  0.00    +0.000 OA
ATOM      5  N   UNL     1       5.781   7.110  17.138  0.00  0.00    +0.000 NA
ATOM      6  C   UNL     1       4.998   6.089  17.518  0.00  0.00    +0.000 A 
ATOM      7  H   UNL     1       6.129   2.908  17.538  0.00  0.00    +0.000 HD
ENDROOT
BRANCH   6   8
ATOM      8  C   UNL     1       3.578   6.314  17.790  0.00  0.00    +0.000 C 
ATOM      9  N   UNL     1       2.885   5.271  18.129  0.00  0.00    +0.000 NA
ATOM     10  N   UNL     1       3.199   7.632  17.587  0.00  0.00    +0.000 N 
ATOM     11  H   UNL     1       3.893   8.253  17.180  0.00  0.00    +0.000 HD
BRANCH  10  12
ATOM     12  C   UNL     1       2.150   8.298  18.247  0.00  0.00    +0.000 A 
ATOM     13  C   UNL     1       1.219   9.096  17.557  0.00  0.00    +0.000 A 
ATOM     14  C   UNL     1       0.291   9.875  18.245  0.00  0.00    +0.000 A 
ATOM     15  C   UNL     1       0.276   9.856  19.634  0.00  0.00    +0.000 A 
ATOM     16  F   UNL     1      -0.588  10.654  20.279  0.00  0.00    +0.000 F 
ATOM     17  C   UNL     1       1.154   9.035  20.335  0.00  0.00    +0.000 A 
ATOM     18 BR   UNL     1       1.148   9.018  22.227  0.00  0.00    +0.000 Br
ATOM     19  C   UNL     1       2.080   8.246  19.645  0.00  0.00    +0.000 A 
ENDBRANCH  10  12
BRANCH   9  20
ATOM     20  O   UNL     1       1.507   5.511  18.125  0.00  0.00    +0.000 OA
ATOM     21  H   UNL     1       1.331   5.807  19.034  0.00  0.00    +0.000 HD
ENDBRANCH   9  20
ENDBRANCH   6   8
BRANCH   1  22
ATOM     22  C   UNL     1       4.059   3.147  17.324  0.00  0.00    +0.000 C 
BRANCH  22  23
ATOM     23  C   UNL     1       3.656   1.839  17.995  0.00  0.00    +0.000 C 
BRANCH  23  24
ATOM     24  C   UNL     1       2.532   2.062  19.013  0.00  0.00    +0.000 C 
BRANCH  24  25
ATOM     25  N   UNL     1       2.949   3.038  20.051  0.00  0.00    +0.000 NA
ATOM     26  H   UNL     1       3.659   2.647  20.672  0.00  0.00    +0.000 HD
BRANCH  25  27
ATOM     27  S   UNL     1       1.719   3.525  21.076  0.00  0.00    +0.000 S 
ATOM     28  O   UNL     1       1.744   4.958  21.167  0.00  0.00    +0.000 OA
ATOM     29  O   UNL     1       1.662   2.644  22.209  0.00  0.00    +0.000 OA
BRANCH  27  30
ATOM     30  N   UNL     1       0.477   3.102  20.056  0.00  0.00    +0.000 NA
ATOM     31  H   UNL     1       0.836   2.495  19.319  0.00  0.00    +0.000 HD
ATOM     32  H   UNL     1       0.072   3.952  19.660  0.00  0.00    +0.000 HD
ENDBRANCH  27  30
ENDBRANCH  25  27
ENDBRANCH  24  25
ENDBRANCH  23  24
ENDBRANCH  22  23
ENDBRANCH   1  22
TORSDOF 9
ENDMDL
MODEL 8
REMARK VINA RESULT:      -7.1      1.369      1.591
REMARK  Name = 
REMARK  9 active torsions:
REMARK  status: ('A' for Active; 'I' for Inactive)
REMARK    1  A    between atoms: N_1  and  S_2
REMARK    2  A    between atoms: S_2  and  N_5
REMARK    3  A    between atoms: N_5  and  C_6
REMARK    4  A    between atoms: C_6  and  C_7
REMARK    5  A    between atoms: C_7  and  C_8
REMARK    6  A    between atoms: C_8  and  N_9
REMARK    7  A    between atoms: C_14  and  C_15
REMARK    8  A    between atoms: N_16  and  O_17
REMARK    9  A    between atoms: N_18  and  C_19
REMARK                            x       y       z     vdW  Elec       q    Type
REMARK                         _______ _______ _______ _____ _____    ______ ____
ROOT
ATOM      1  N   UNL     1       5.674   3.795  19.402  0.00  0.00    +0.000 N 
ATOM      2  C   UNL     1       4.599   3.300  20.083  0.00  0.00    +0.000 A 
ATOM      3  N   UNL     1       4.720   2.258  20.908  0.00  0.00    +0.000 NA
ATOM      4  O   UNL     1       3.483   2.104  21.510  0.00  0.00    +0.000 OA
ATOM      5  N   UNL     1       2.584   3.063  21.069  0.00  0.00    +0.000 NA
ATOM      6  C   UNL     1       3.245   3.762  20.135  0.00  0.00    +0.000 A 
ATOM      7  H   UNL     1       6.559   3.353  19.638  0.00  0.00    +0.000 HD
ENDROOT
BRANCH   6   8
ATOM      8  C   UNL     1       2.570   4.835  19.406  0.00  0.00    +0.000 C 
ATOM      9  N   UNL     1       1.776   4.470  18.447  0.00  0.00    +0.000 NA
ATOM     10  N   UNL     1       2.942   6.095  19.848  0.00  0.00    +0.000 N 
ATOM     11  H   UNL     1       3.695   6.141  20.527  0.00  0.00    +0.000 HD
BRANCH  10  12
ATOM     12  C   UNL     1       2.145   7.255  19.798  0.00  0.00    +0.000 A 
ATOM     13  C   UNL     1       2.152   8.120  18.688  0.00  0.00    +0.000 A 
ATOM     14  C   UNL     1       1.483   9.342  18.726  0.00  0.00    +0.000 A 
ATOM     15  C   UNL     1       0.788   9.708  19.871  0.00  0.00    +0.000 A 
ATOM     16  F   UNL     1       0.197  10.910  19.909  0.00  0.00    +0.000 F 
ATOM     17  C   UNL     1       0.726   8.844  20.962  0.00  0.00    +0.000 A 
ATOM     18 BR   UNL     1      -0.206   9.345  22.529  0.00  0.00    +0.000 Br
ATOM     19  C   UNL     1       1.389   7.613  20.921  0.00  0.00    +0.000 A 
ENDBRANCH  10  12
BRANCH   9  20
ATOM     20  O   UNL     1       1.371   5.538  17.641  0.00  0.00    +0.000 OA
ATOM     21  H   UNL     1       1.332   6.283  18.264  0.00  0.00    +0.000 HD
ENDBRANCH   9  20
ENDBRANCH   6   8
BRANCH   1  22
ATOM     22  C   UNL     1       5.768   5.211  19.083  0.00  0.00    +0.000 C 
BRANCH  22  23
ATOM     23  C   UNL     1       6.728   5.496  17.933  0.00  0.00    +0.000 C 
BRANCH  23  24
ATOM     24  C   UNL     1       6.799   4.311  16.963  0.00  0.00    +0.000 C 
BRANCH  24  25
ATOM     25  N   UNL     1       7.721   4.607  15.838  0.00  0.00    +0.000 NA
ATOM     26  H   UNL     1       8.367   5.364  16.069  0.00  0.00    +0.000 HD
BRANCH  25  27
ATOM     27  S   UNL     1       6.962   5.118  14.438  0.00  0.00    +0.000 S 
ATOM     28  O   UNL     1       7.970   5.521  13.496  0.00  0.00    +0.000 OA
ATOM     29  O   UNL     1       5.811   5.907  14.777  0.00  0.00    +0.000 OA
BRANCH  27  30
ATOM     30  N   UNL     1       6.417   3.614  13.987  0.00  0.00    +0.000 NA
ATOM     31  H   UNL     1       5.468   3.695  13.621  0.00  0.00    +0.000 HD
ATOM     32  H   UNL     1       6.441   2.998  14.800  0.00  0.00    +0.000 HD
ENDBRANCH  27  30
ENDBRANCH  25  27
ENDBRANCH  24  25
ENDBRANCH  23  24
ENDBRANCH  22  23
ENDBRANCH   1  22
TORSDOF 9
ENDMDL
MODEL 9
REMARK VINA RESULT:      -7.1      4.521      6.512
REMARK  Name = 
REMARK  9 active torsions:
REMARK  status: ('A' for Active; 'I' for Inactive)
REMARK    1  A    between atoms: N_1  and  S_2
REMARK    2  A    between atoms: S_2  and  N_5
REMARK    3  A    between atoms: N_5  and  C_6
REMARK    4  A    between atoms: C_6  and  C_7
REMARK    5  A    between atoms: C_7  and  C_8
REMARK    6  A    between atoms: C_8  and  N_9
REMARK    7  A    between atoms: C_14  and  C_15
REMARK    8  A    between atoms: N_16  and  O_17
REMARK    9  A    between atoms: N_18  and  C_19
REMARK                            x       y       z     vdW  Elec       q    Type
REMARK                         _______ _______ _______ _____ _____    ______ ____
ROOT
ATOM      1  N   UNL     1       1.852   4.931  20.286  0.00  0.00    +0.000 N 
ATOM      2  C   UNL     1       1.810   3.795  19.530  0.00  0.00    +0.000 A 
ATOM      3  N   UNL     1       0.733   3.006  19.522  0.00  0.00    +0.000 NA
ATOM      4  O   UNL     1       0.986   2.029  18.574  0.00  0.00    +0.000 OA
ATOM      5  N   UNL     1       2.222   2.214  17.975  0.00  0.00    +0.000 NA
ATOM      6  C   UNL     1       2.769   3.261  18.610  0.00  0.00    +0.000 A 
ATOM      7  H   UNL     1       0.981   5.148  20.765  0.00  0.00    +0.000 HD
ENDROOT
BRANCH   6   8
ATOM      8  C   UNL     1       4.120   3.705  18.269  0.00  0.00    +0.000 C 
ATOM      9  N   UNL     1       5.068   3.339  19.075  0.00  0.00    +0.000 NA
ATOM     10  N   UNL     1       4.147   4.502  17.135  0.00  0.00    +0.000 N 
ATOM     11  H   UNL     1       3.251   4.774  16.741  0.00  0.00    +0.000 HD
BRANCH  10  12
ATOM     12  C   UNL     1       5.227   4.624  16.239  0.00  0.00    +0.000 A 
ATOM     13  C   UNL     1       6.293   5.513  16.471  0.00  0.00    +0.000 A 
ATOM     14  C   UNL     1       7.265   5.737  15.497  0.00  0.00    +0.000 A 
ATOM     15  C   UNL     1       7.188   5.065  14.285  0.00  0.00    +0.000 A 
ATOM     16  F   UNL     1       8.101   5.334  13.340  0.00  0.00    +0.000 F 
ATOM     17  C   UNL     1       6.170   4.143  14.055  0.00  0.00    +0.000 A 
ATOM     18 BR   UNL     1       6.053   3.237  12.399  0.00  0.00    +0.000 Br
ATOM     19  C   UNL     1       5.199   3.911  15.035  0.00  0.00    +0.000 A 
ENDBRANCH  10  12
BRANCH   9  20
ATOM     20  O   UNL     1       6.274   4.003  18.831  0.00  0.00    +0.000 OA
ATOM     21  H   UNL     1       6.756   3.382  18.259  0.00  0.00    +0.000 HD
ENDBRANCH   9  20
ENDBRANCH   6   8
BRANCH   1  22
ATOM     22  C   UNL     1       2.609   6.093  19.847  0.00  0.00    +0.000 C 
BRANCH  22  23
ATOM     23  C   UNL     1       2.007   6.760  18.614  0.00  0.00    +0.000 C 
BRANCH  23  24
ATOM     24  C   UNL     1       2.834   7.976  18.183  0.00  0.00    +0.000 C 
BRANCH  24  25
ATOM     25  N   UNL     1       1.983   8.963  17.471  0.00  0.00    +0.000 NA
ATOM     26  H   UNL     1       2.508   9.465  16.753  0.00  0.00    +0.000 HD
BRANCH  25  27
ATOM     27  S   UNL     1       1.355  10.167  18.448  0.00  0.00    +0.000 S 
ATOM     28  O   UNL     1       2.073  11.384  18.189  0.00  0.00    +0.000 OA
ATOM     29  O   UNL     1       1.107   9.639  19.760  0.00  0.00    +0.000 OA
BRANCH  27  30
ATOM     30  N   UNL     1      -0.109  10.266  17.668  0.00  0.00    +0.000 NA
ATOM     31  H   UNL     1      -0.661   9.433  17.878  0.00  0.00    +0.000 HD
ATOM     32  H   UNL     1       0.057  10.346  16.664  0.00  0.00    +0.000 HD
ENDBRANCH  27  30
ENDBRANCH  25  27
ENDBRANCH  24  25
ENDBRANCH  23  24
ENDBRANCH  22  23
ENDBRANCH   1  22
TORSDOF 9
ENDMDL
