MODEL 1
REMARK VINA RESULT:      -7.3      0.000      0.000
REMARK  Name = 
REMARK  13 active torsions:
REMARK  status: ('A' for Active; 'I' for Inactive)
REMARK    1  A    between atoms: C_1  and  C_2
REMARK    2  A    between atoms: C_2  and  C_3
REMARK    3  A    between atoms: C_3  and  C_4
REMARK    4  A    between atoms: C_4  and  C_5
REMARK    5  A    between atoms: C_5  and  C_6
REMARK    6  A    between atoms: C_6  and  C_7
REMARK    7  A    between atoms: C_10  and  C_11
REMARK    8  A    between atoms: C_11  and  O_12
REMARK    9  A    between atoms: O_12  and  C_13
REMARK   10  A    between atoms: C_15  and  C_16
REMARK   11  A    between atoms: N_18  and  O_19
REMARK   12  A    between atoms: C_22  and  O_23
REMARK   13  A    between atoms: O_23  and  C_24
REMARK                            x       y       z     vdW  Elec       q    Type
REMARK                         _______ _______ _______ _____ _____    ______ ____
ROOT
ATOM      1  O   UNL     1       4.086   4.895  16.743  0.00  0.00    +0.000 OA
ENDROOT
BRANCH   1   2
ATOM      2  C   UNL     1       3.404   5.142  17.919  0.00  0.00    +0.000 A 
ATOM      3  C   UNL     1       2.942   4.079  18.719  0.00  0.00    +0.000 A 
ATOM      4  C   UNL     1       2.174   4.306  19.864  0.00  0.00    +0.000 A 
ATOM      5  C   UNL     1       1.949   5.609  20.292  0.00  0.00    +0.000 A 
ATOM      6  C   UNL     1       2.467   6.666  19.546  0.00  0.00    +0.000 A 
ATOM      7  C   UNL     1       3.182   6.458  18.353  0.00  0.00    +0.000 A 
BRANCH   4   8
ATOM      8  C   UNL     1       1.601   3.131  20.566  0.00  0.00    +0.000 C 
ATOM      9  O   UNL     1       0.897   2.308  19.990  0.00  0.00    +0.000 OA
ATOM     10  N   UNL     1       1.833   3.084  21.929  0.00  0.00    +0.000 N 
ATOM     11  H   UNL     1       2.071   3.918  22.455  0.00  0.00    +0.000 HD
BRANCH  10  12
ATOM     12  O   UNL     1       1.079   2.113  22.628  0.00  0.00    +0.000 OA
ATOM     13  H   UNL     1       1.061   1.362  21.994  0.00  0.00    +0.000 HD
ENDBRANCH  10  12
ENDBRANCH   4   8
BRANCH   7  14
ATOM     14  O   UNL     1       3.533   7.651  17.791  0.00  0.00    +0.000 OA
ATOM     15  C   UNL     1       2.635   8.746  17.780  0.00  0.00    +0.000 C 
ENDBRANCH   7  14
ENDBRANCH   1   2
BRANCH   1  16
ATOM     16  C   UNL     1       5.385   4.316  16.941  0.00  0.00    +0.000 C 
BRANCH  16  20
ATOM     17  C   UNL     1       8.056   7.412  18.277  0.00  0.00    +0.000 A 
ATOM     18  C   UNL     1       7.309   7.575  17.104  0.00  0.00    +0.000 A 
ATOM     19  C   UNL     1       6.478   6.556  16.655  0.00  0.00    +0.000 A 
ATOM     20  C   UNL     1       6.395   5.348  17.361  0.00  0.00    +0.000 A 
ATOM     21  C   UNL     1       7.191   5.159  18.496  0.00  0.00    +0.000 A 
ATOM     22  C   UNL     1       8.014   6.187  18.954  0.00  0.00    +0.000 A 
BRANCH  17  23
ATOM     23  C   UNL     1       8.788   8.595  18.863  0.00  0.00    +0.000 C 
BRANCH  23  24
ATOM     24  C   UNL     1       8.477   9.830  18.016  0.00  0.00    +0.000 C 
BRANCH  24  25
ATOM     25  C   UNL     1       9.023  11.119  18.614  0.00  0.00    +0.000 C 
BRANCH  25  26
ATOM     26  C   UNL     1      10.289  11.530  17.861  0.00  0.00    +0.000 C 
BRANCH  26  28
ATOM     27  C   UNL     1      11.088  11.674  20.231  0.00  0.00    +0.000 C 
ATOM     28  C   UNL     1      11.507  11.554  18.776  0.00  0.00    +0.000 C 
ENDBRANCH  26  28
ENDBRANCH  25  26
ENDBRANCH  24  25
ENDBRANCH  23  24
ENDBRANCH  17  23
ENDBRANCH  16  20
ENDBRANCH   1  16
TORSDOF 11
ENDMDL
MODEL 2
REMARK VINA RESULT:      -7.1      3.239      7.109
REMARK  Name = 
REMARK  13 active torsions:
REMARK  status: ('A' for Active; 'I' for Inactive)
REMARK    1  A    between atoms: C_1  and  C_2
REMARK    2  A    between atoms: C_2  and  C_3
REMARK    3  A    between atoms: C_3  and  C_4
REMARK    4  A    between atoms: C_4  and  C_5
REMARK    5  A    between atoms: C_5  and  C_6
REMARK    6  A    between atoms: C_6  and  C_7
REMARK    7  A    between atoms: C_10  and  C_11
REMARK    8  A    between atoms: C_11  and  O_12
REMARK    9  A    between atoms: O_12  and  C_13
REMARK   10  A    between atoms: C_15  and  C_16
REMARK   11  A    between atoms: N_18  and  O_19
REMARK   12  A    between atoms: C_22  and  O_23
REMARK   13  A    between atoms: O_23  and  C_24
REMARK                            x       y       z     vdW  Elec       q    Type
REMARK                         _______ _______ _______ _____ _____    ______ ____
ROOT
ATOM      1  O   UNL     1       3.081   8.294  18.181  0.00  0.00    +0.000 OA
ENDROOT
BRANCH   1   2
ATOM      2  C   UNL     1       3.342   6.968  17.896  0.00  0.00    +0.000 A 
ATOM      3  C   UNL     1       2.427   5.961  18.257  0.00  0.00    +0.000 A 
ATOM      4  C   UNL     1       2.712   4.608  18.058  0.00  0.00    +0.000 A 
ATOM      5  C   UNL     1       3.874   4.243  17.389  0.00  0.00    +0.000 A 
ATOM      6  C   UNL     1       4.750   5.238  16.961  0.00  0.00    +0.000 A 
ATOM      7  C   UNL     1       4.513   6.601  17.215  0.00  0.00    +0.000 A 
BRANCH   4   8
ATOM      8  C   UNL     1       1.763   3.605  18.602  0.00  0.00    +0.000 C 
ATOM      9  O   UNL     1       1.323   2.686  17.918  0.00  0.00    +0.000 OA
ATOM     10  N   UNL     1       1.334   3.836  19.897  0.00  0.00    +0.000 N 
ATOM     11  H   UNL     1       1.388   4.758  20.315  0.00  0.00    +0.000 HD
BRANCH  10  12
ATOM     12  O   UNL     1       0.248   3.034  20.317  0.00  0.00    +0.000 OA
ATOM     13  H   UNL     1      -0.412   3.703  20.604  0.00  0.00    +0.000 HD
ENDBRANCH  10  12
ENDBRANCH   4   8
BRANCH   7  14
ATOM     14  O   UNL     1       5.542   7.362  16.740  0.00  0.00    +0.000 OA
ATOM     15  C   UNL     1       6.826   7.308  17.333  0.00  0.00    +0.000 C 
ENDBRANCH   7  14
ENDBRANCH   1   2
BRANCH   1  16
ATOM     16  C   UNL     1       2.033   8.860  17.378  0.00  0.00    +0.000 C 
BRANCH  16  20
ATOM     17  C   UNL     1      -0.422  11.391  19.843  0.00  0.00    +0.000 A 
ATOM     18  C   UNL     1      -1.007  10.466  18.968  0.00  0.00    +0.000 A 
ATOM     19  C   UNL     1      -0.210   9.680  18.144  0.00  0.00    +0.000 A 
ATOM     20  C   UNL     1       1.184   9.818  18.167  0.00  0.00    +0.000 A 
ATOM     21  C   UNL     1       1.766  10.787  18.991  0.00  0.00    +0.000 A 
ATOM     22  C   UNL     1       0.967  11.566  19.828  0.00  0.00    +0.000 A 
BRANCH  17  23
ATOM     23  C   UNL     1      -1.278  12.084  20.873  0.00  0.00    +0.000 C 
BRANCH  23  24
ATOM     24  C   UNL     1      -0.609  11.941  22.241  0.00  0.00    +0.000 C 
BRANCH  24  25
ATOM     25  C   UNL     1      -1.171  10.791  23.066  0.00  0.00    +0.000 C 
BRANCH  25  26
ATOM     26  C   UNL     1      -0.132   9.674  23.150  0.00  0.00    +0.000 C 
BRANCH  26  28
ATOM     27  C   UNL     1       0.932   8.239  21.393  0.00  0.00    +0.000 C 
ATOM     28  C   UNL     1      -0.367   8.603  22.092  0.00  0.00    +0.000 C 
ENDBRANCH  26  28
ENDBRANCH  25  26
ENDBRANCH  24  25
ENDBRANCH  23  24
ENDBRANCH  17  23
ENDBRANCH  16  20
ENDBRANCH   1  16
TORSDOF 11
ENDMDL
MODEL 3
REMARK VINA RESULT:      -7.1      3.642      6.538
REMARK  Name = 
REMARK  13 active torsions:
REMARK  status: ('A' for Active; 'I' for Inactive)
REMARK    1  A    between atoms: C_1  and  C_2
REMARK    2  A    between atoms: C_2  and  C_3
REMARK    3  A    between atoms: C_3  and  C_4
REMARK    4  A    between atoms: C_4  and  C_5
REMARK    5  A    between atoms: C_5  and  C_6
REMARK    6  A    between atoms: C_6  and  C_7
REMARK    7  A    between atoms: C_10  and  C_11
REMARK    8  A    between atoms: C_11  and  O_12
REMARK    9  A    between atoms: O_12  and  C_13
REMARK   10  A    between atoms: C_15  and  C_16
REMARK   11  A    between atoms: N_18  and  O_19
REMARK   12  A    between atoms: C_22  and  O_23
REMARK   13  A    between atoms: O_23  and  C_24
REMARK                            x       y       z     vdW  Elec       q    Type
REMARK                         _______ _______ _______ _____ _____    ______ ____
ROOT
ATOM      1  O   UNL     1       4.356   7.110  17.796  0.00  0.00    +0.000 OA
ENDROOT
BRANCH   1   2
ATOM      2  C   UNL     1       3.759   6.213  18.659  0.00  0.00    +0.000 A 
ATOM      3  C   UNL     1       4.228   4.889  18.759  0.00  0.00    +0.000 A 
ATOM      4  C   UNL     1       3.582   3.944  19.560  0.00  0.00    +0.000 A 
ATOM      5  C   UNL     1       2.520   4.336  20.364  0.00  0.00    +0.000 A 
ATOM      6  C   UNL     1       2.097   5.663  20.328  0.00  0.00    +0.000 A 
ATOM      7  C   UNL     1       2.689   6.613  19.476  0.00  0.00    +0.000 A 
BRANCH   4   8
ATOM      8  C   UNL     1       4.048   2.536  19.493  0.00  0.00    +0.000 C 
ATOM      9  O   UNL     1       4.983   2.127  20.174  0.00  0.00    +0.000 OA
ATOM     10  N   UNL     1       3.423   1.749  18.542  0.00  0.00    +0.000 N 
ATOM     11  H   UNL     1       2.944   2.159  17.748  0.00  0.00    +0.000 HD
BRANCH  10  12
ATOM     12  O   UNL     1       4.038   0.497  18.308  0.00  0.00    +0.000 OA
ATOM     13  H   UNL     1       3.910   0.035  19.166  0.00  0.00    +0.000 HD
ENDBRANCH  10  12
ENDBRANCH   4   8
BRANCH   7  14
ATOM     14  O   UNL     1       2.061   7.818  19.593  0.00  0.00    +0.000 OA
ATOM     15  C   UNL     1       1.856   8.649  18.465  0.00  0.00    +0.000 C 
ENDBRANCH   7  14
ENDBRANCH   1   2
BRANCH   1  16
ATOM     16  C   UNL     1       5.752   6.855  17.576  0.00  0.00    +0.000 C 
BRANCH  16  20
ATOM     17  C   UNL     1       6.250   4.179  14.245  0.00  0.00    +0.000 A 
ATOM     18  C   UNL     1       7.146   4.149  15.321  0.00  0.00    +0.000 A 
ATOM     19  C   UNL     1       7.005   5.043  16.376  0.00  0.00    +0.000 A 
ATOM     20  C   UNL     1       5.977   5.996  16.363  0.00  0.00    +0.000 A 
ATOM     21  C   UNL     1       5.122   6.071  15.258  0.00  0.00    +0.000 A 
ATOM     22  C   UNL     1       5.255   5.164  14.206  0.00  0.00    +0.000 A 
BRANCH  17  23
ATOM     23  C   UNL     1       6.287   3.076  13.216  0.00  0.00    +0.000 C 
BRANCH  23  24
ATOM     24  C   UNL     1       5.788   3.636  11.882  0.00  0.00    +0.000 C 
BRANCH  24  25
ATOM     25  C   UNL     1       4.608   2.862  11.312  0.00  0.00    +0.000 C 
BRANCH  25  26
ATOM     26  C   UNL     1       3.504   3.842  10.915  0.00  0.00    +0.000 C 
BRANCH  26  28
ATOM     27  C   UNL     1       2.243   4.876   9.013  0.00  0.00    +0.000 C 
ATOM     28  C   UNL     1       3.175   3.751   9.430  0.00  0.00    +0.000 C 
ENDBRANCH  26  28
ENDBRANCH  25  26
ENDBRANCH  24  25
ENDBRANCH  23  24
ENDBRANCH  17  23
ENDBRANCH  16  20
ENDBRANCH   1  16
TORSDOF 11
ENDMDL
MODEL 4
REMARK VINA RESULT:      -7.1      4.394      7.486
REMARK  Name = 
REMARK  13 active torsions:
REMARK  status: ('A' for Active; 'I' for Inactive)
REMARK    1  A    between atoms: C_1  and  C_2
REMARK    2  A    between atoms: C_2  and  C_3
REMARK    3  A    between atoms: C_3  and  C_4
REMARK    4  A    between atoms: C_4  and  C_5
REMARK    5  A    between atoms: C_5  and  C_6
REMARK    6  A    between atoms: C_6  and  C_7
REMARK    7  A    between atoms: C_10  and  C_11
REMARK    8  A    between atoms: C_11  and  O_12
REMARK    9  A    between atoms: O_12  and  C_13
REMARK   10  A    between atoms: C_15  and  C_16
REMARK   11  A    between atoms: N_18  and  O_19
REMARK   12  A    between atoms: C_22  and  O_23
REMARK   13  A    between atoms: O_23  and  C_24
REMARK                            x       y       z     vdW  Elec       q    Type
REMARK                         _______ _______ _______ _____ _____    ______ ____
ROOT
ATOM      1  O   UNL     1       3.276   3.132  17.472  0.00  0.00    +0.000 OA
ENDROOT
BRANCH   1   2
ATOM      2  C   UNL     1       4.547   3.650  17.323  0.00  0.00    +0.000 A 
ATOM      3  C   UNL     1       5.059   3.942  16.044  0.00  0.00    +0.000 A 
ATOM      4  C   UNL     1       6.373   4.383  15.865  0.00  0.00    +0.000 A 
ATOM      5  C   UNL     1       7.164   4.649  16.976  0.00  0.00    +0.000 A 
ATOM      6  C   UNL     1       6.640   4.434  18.248  0.00  0.00    +0.000 A 
ATOM      7  C   UNL     1       5.344   3.924  18.446  0.00  0.00    +0.000 A 
BRANCH   4   8
ATOM      8  C   UNL     1       6.881   4.524  14.478  0.00  0.00    +0.000 C 
ATOM      9  O   UNL     1       7.592   5.464  14.137  0.00  0.00    +0.000 OA
ATOM     10  N   UNL     1       6.417   3.581  13.578  0.00  0.00    +0.000 N 
ATOM     11  H   UNL     1       5.566   3.056  13.753  0.00  0.00    +0.000 HD
BRANCH  10  12
ATOM     12  O   UNL     1       6.695   3.865  12.221  0.00  0.00    +0.000 OA
ATOM     13  H   UNL     1       7.678   3.862  12.201  0.00  0.00    +0.000 HD
ENDBRANCH  10  12
ENDBRANCH   4   8
BRANCH   7  14
ATOM     14  O   UNL     1       5.092   3.759  19.776  0.00  0.00    +0.000 OA
ATOM     15  C   UNL     1       4.584   2.537  20.279  0.00  0.00    +0.000 C 
ENDBRANCH   7  14
ENDBRANCH   1   2
BRANCH   1  16
ATOM     16  C   UNL     1       2.232   4.093  17.257  0.00  0.00    +0.000 C 
BRANCH  16  20
ATOM     17  C   UNL     1       1.856   7.131  20.280  0.00  0.00    +0.000 A 
ATOM     18  C   UNL     1       2.340   7.452  19.006  0.00  0.00    +0.000 A 
ATOM     19  C   UNL     1       2.499   6.460  18.045  0.00  0.00    +0.000 A 
ATOM     20  C   UNL     1       2.193   5.126  18.349  0.00  0.00    +0.000 A 
ATOM     21  C   UNL     1       1.772   4.794  19.641  0.00  0.00    +0.000 A 
ATOM     22  C   UNL     1       1.600   5.792  20.600  0.00  0.00    +0.000 A 
BRANCH  17  23
ATOM     23  C   UNL     1       1.493   8.238  21.238  0.00  0.00    +0.000 C 
BRANCH  23  24
ATOM     24  C   UNL     1       0.593   9.239  20.511  0.00  0.00    +0.000 C 
BRANCH  24  25
ATOM     25  C   UNL     1      -0.301  10.034  21.452  0.00  0.00    +0.000 C 
BRANCH  25  26
ATOM     26  C   UNL     1       0.167  11.488  21.487  0.00  0.00    +0.000 C 
BRANCH  26  28
ATOM     27  C   UNL     1      -1.750  11.567  23.097  0.00  0.00    +0.000 C 
ATOM     28  C   UNL     1      -0.832  12.386  22.206  0.00  0.00    +0.000 C 
ENDBRANCH  26  28
ENDBRANCH  25  26
ENDBRANCH  24  25
ENDBRANCH  23  24
ENDBRANCH  17  23
ENDBRANCH  16  20
ENDBRANCH   1  16
TORSDOF 11
ENDMDL
MODEL 5
REMARK VINA RESULT:      -7.0      5.120      8.141
REMARK  Name = 
REMARK  13 active torsions:
REMARK  status: ('A' for Active; 'I' for Inactive)
REMARK    1  A    between atoms: C_1  and  C_2
REMARK    2  A    between atoms: C_2  and  C_3
REMARK    3  A    between atoms: C_3  and  C_4
REMARK    4  A    between atoms: C_4  and  C_5
REMARK    5  A    between atoms: C_5  and  C_6
REMARK    6  A    between atoms: C_6  and  C_7
REMARK    7  A    between atoms: C_10  and  C_11
REMARK    8  A    between atoms: C_11  and  O_12
REMARK    9  A    between atoms: O_12  and  C_13
REMARK   10  A    between atoms: C_15  and  C_16
REMARK   11  A    between atoms: N_18  and  O_19
REMARK   12  A    between atoms: C_22  and  O_23
REMARK   13  A    between atoms: O_23  and  C_24
REMARK                            x       y       z     vdW  Elec       q    Type
REMARK                         _______ _______ _______ _____ _____    ______ ____
ROOT
ATOM      1  O   UNL     1       1.473   9.565  19.070  0.00  0.00    +0.000 OA
ENDROOT
BRANCH   1   2
ATOM      2  C   UNL     1       0.617  10.621  18.824  0.00  0.00    +0.000 A 
ATOM      3  C   UNL     1      -0.644  10.402  18.236  0.00  0.00    +0.000 A 
ATOM      4  C   UNL     1      -1.487  11.463  17.898  0.00  0.00    +0.000 A 
ATOM      5  C   UNL     1      -1.130  12.760  18.246  0.00  0.00    +0.000 A 
ATOM      6  C   UNL     1       0.083  12.978  18.896  0.00  0.00    +0.000 A 
ATOM      7  C   UNL     1       0.976  11.930  19.181  0.00  0.00    +0.000 A 
BRANCH   4   8
ATOM      8  C   UNL     1      -2.729  11.158  17.146  0.00  0.00    +0.000 C 
ATOM      9  O   UNL     1      -3.757  10.791  17.708  0.00  0.00    +0.000 OA
ATOM     10  N   UNL     1      -2.619  11.218  15.769  0.00  0.00    +0.000 N 
ATOM     11  H   UNL     1      -1.719  11.144  15.306  0.00  0.00    +0.000 HD
BRANCH  10  12
ATOM     12  O   UNL     1      -3.719  10.683  15.059  0.00  0.00    +0.000 OA
ATOM     13  H   UNL     1      -3.520   9.721  15.052  0.00  0.00    +0.000 HD
ENDBRANCH  10  12
ENDBRANCH   4   8
BRANCH   7  14
ATOM     14  O   UNL     1       2.107  12.412  19.772  0.00  0.00    +0.000 OA
ATOM     15  C   UNL     1       2.045  13.439  20.745  0.00  0.00    +0.000 C 
ENDBRANCH   7  14
ENDBRANCH   1   2
BRANCH   1  16
ATOM     16  C   UNL     1       2.105   9.047  17.889  0.00  0.00    +0.000 C 
BRANCH  16  20
ATOM     17  C   UNL     1       4.217   5.399  18.747  0.00  0.00    +0.000 A 
ATOM     18  C   UNL     1       4.490   6.121  17.578  0.00  0.00    +0.000 A 
ATOM     19  C   UNL     1       3.776   7.277  17.285  0.00  0.00    +0.000 A 
ATOM     20  C   UNL     1       2.764   7.721  18.147  0.00  0.00    +0.000 A 
ATOM     21  C   UNL     1       2.445   6.965  19.280  0.00  0.00    +0.000 A 
ATOM     22  C   UNL     1       3.171   5.813  19.581  0.00  0.00    +0.000 A 
BRANCH  17  23
ATOM     23  C   UNL     1       5.133   4.272  19.156  0.00  0.00    +0.000 C 
BRANCH  23  24
ATOM     24  C   UNL     1       4.321   2.976  19.203  0.00  0.00    +0.000 C 
BRANCH  24  25
ATOM     25  C   UNL     1       3.702   2.608  17.862  0.00  0.00    +0.000 C 
BRANCH  25  26
ATOM     26  C   UNL     1       2.211   2.329  18.052  0.00  0.00    +0.000 C 
BRANCH  26  28
ATOM     27  C   UNL     1       0.729   3.168  19.889  0.00  0.00    +0.000 C 
ATOM     28  C   UNL     1       1.844   2.203  19.526  0.00  0.00    +0.000 C 
ENDBRANCH  26  28
ENDBRANCH  25  26
ENDBRANCH  24  25
ENDBRANCH  23  24
ENDBRANCH  17  23
ENDBRANCH  16  20
ENDBRANCH   1  16
TORSDOF 11
ENDMDL
MODEL 6
REMARK VINA RESULT:      -6.9      3.816      7.994
REMARK  Name = 
REMARK  13 active torsions:
REMARK  status: ('A' for Active; 'I' for Inactive)
REMARK    1  A    between atoms: C_1  and  C_2
REMARK    2  A    between atoms: C_2  and  C_3
REMARK    3  A    between atoms: C_3  and  C_4
REMARK    4  A    between atoms: C_4  and  C_5
REMARK    5  A    between atoms: C_5  and  C_6
REMARK    6  A    between atoms: C_6  and  C_7
REMARK    7  A    between atoms: C_10  and  C_11
REMARK    8  A    between atoms: C_11  and  O_12
REMARK    9  A    between atoms: O_12  and  C_13
REMARK   10  A    between atoms: C_15  and  C_16
REMARK   11  A    between atoms: N_18  and  O_19
REMARK   12  A    between atoms: C_22  and  O_23
REMARK   13  A    between atoms: O_23  and  C_24
REMARK                            x       y       z     vdW  Elec       q    Type
REMARK                         _______ _______ _______ _____ _____    ______ ____
ROOT
ATOM      1  O   UNL     1       1.675   5.777  19.483  0.00  0.00    +0.000 OA
ENDROOT
BRANCH   1   2
ATOM      2  C   UNL     1       2.739   5.087  18.936  0.00  0.00    +0.000 A 
ATOM      3  C   UNL     1       4.062   5.522  19.145  0.00  0.00    +0.000 A 
ATOM      4  C   UNL     1       5.145   4.892  18.528  0.00  0.00    +0.000 A 
ATOM      5  C   UNL     1       4.933   3.741  17.779  0.00  0.00    +0.000 A 
ATOM      6  C   UNL     1       3.634   3.260  17.629  0.00  0.00    +0.000 A 
ATOM      7  C   UNL     1       2.524   3.922  18.184  0.00  0.00    +0.000 A 
BRANCH   4   8
ATOM      8  C   UNL     1       6.489   5.503  18.680  0.00  0.00    +0.000 C 
ATOM      9  O   UNL     1       6.997   6.186  17.795  0.00  0.00    +0.000 OA
ATOM     10  N   UNL     1       7.166   5.168  19.839  0.00  0.00    +0.000 N 
ATOM     11  H   UNL     1       6.927   4.337  20.369  0.00  0.00    +0.000 HD
BRANCH  10  12
ATOM     12  O   UNL     1       8.530   5.540  19.861  0.00  0.00    +0.000 OA
ATOM     13  H   UNL     1       8.958   4.804  19.370  0.00  0.00    +0.000 HD
ENDBRANCH  10  12
ENDBRANCH   4   8
BRANCH   7  14
ATOM     14  O   UNL     1       1.368   3.279  17.850  0.00  0.00    +0.000 OA
ATOM     15  C   UNL     1       0.808   2.291  18.697  0.00  0.00    +0.000 C 
ENDBRANCH   7  14
ENDBRANCH   1   2
BRANCH   1  16
ATOM     16  C   UNL     1       2.064   6.768  20.447  0.00  0.00    +0.000 C 
BRANCH  16  20
ATOM     17  C   UNL     1       0.505  10.569  19.171  0.00  0.00    +0.000 A 
ATOM     18  C   UNL     1       1.352   9.831  18.335  0.00  0.00    +0.000 A 
ATOM     19  C   UNL     1       1.886   8.623  18.767  0.00  0.00    +0.000 A 
ATOM     20  C   UNL     1       1.597   8.141  20.051  0.00  0.00    +0.000 A 
ATOM     21  C   UNL     1       0.805   8.909  20.912  0.00  0.00    +0.000 A 
ATOM     22  C   UNL     1       0.258  10.114  20.472  0.00  0.00    +0.000 A 
BRANCH  17  23
ATOM     23  C   UNL     1      -0.230  11.765  18.617  0.00  0.00    +0.000 C 
BRANCH  23  24
ATOM     24  C   UNL     1      -1.675  11.357  18.321  0.00  0.00    +0.000 C 
BRANCH  24  25
ATOM     25  C   UNL     1      -1.781  10.066  17.521  0.00  0.00    +0.000 C 
BRANCH  25  26
ATOM     26  C   UNL     1      -3.103  10.055  16.753  0.00  0.00    +0.000 C 
BRANCH  26  28
ATOM     27  C   UNL     1      -3.504  10.093  14.280  0.00  0.00    +0.000 C 
ATOM     28  C   UNL     1      -3.023  10.890  15.481  0.00  0.00    +0.000 C 
ENDBRANCH  26  28
ENDBRANCH  25  26
ENDBRANCH  24  25
ENDBRANCH  23  24
ENDBRANCH  17  23
ENDBRANCH  16  20
ENDBRANCH   1  16
TORSDOF 11
ENDMDL
MODEL 7
REMARK VINA RESULT:      -6.9      1.957      3.596
REMARK  Name = 
REMARK  13 active torsions:
REMARK  status: ('A' for Active; 'I' for Inactive)
REMARK    1  A    between atoms: C_1  and  C_2
REMARK    2  A    between atoms: C_2  and  C_3
REMARK    3  A    between atoms: C_3  and  C_4
REMARK    4  A    between atoms: C_4  and  C_5
REMARK    5  A    between atoms: C_5  and  C_6
REMARK    6  A    between atoms: C_6  and  C_7
REMARK    7  A    between atoms: C_10  and  C_11
REMARK    8  A    between atoms: C_11  and  O_12
REMARK    9  A    between atoms: O_12  and  C_13
REMARK   10  A    between atoms: C_15  and  C_16
REMARK   11  A    between atoms: N_18  and  O_19
REMARK   12  A    between atoms: C_22  and  O_23
REMARK   13  A    between atoms: O_23  and  C_24
REMARK                            x       y       z     vdW  Elec       q    Type
REMARK                         _______ _______ _______ _____ _____    ______ ____
ROOT
ATOM      1  O   UNL     1       4.058   4.050  16.517  0.00  0.00    +0.000 OA
ENDROOT
BRANCH   1   2
ATOM      2  C   UNL     1       3.525   4.594  17.669  0.00  0.00    +0.000 A 
ATOM      3  C   UNL     1       3.021   5.909  17.678  0.00  0.00    +0.000 A 
ATOM      4  C   UNL     1       2.560   6.507  18.853  0.00  0.00    +0.000 A 
ATOM      5  C   UNL     1       2.489   5.759  20.022  0.00  0.00    +0.000 A 
ATOM      6  C   UNL     1       2.915   4.433  20.004  0.00  0.00    +0.000 A 
ATOM      7  C   UNL     1       3.447   3.835  18.848  0.00  0.00    +0.000 A 
BRANCH   4   8
ATOM      8  C   UNL     1       2.188   7.943  18.807  0.00  0.00    +0.000 C 
ATOM      9  O   UNL     1       1.593   8.492  19.730  0.00  0.00    +0.000 OA
ATOM     10  N   UNL     1       2.469   8.591  17.617  0.00  0.00    +0.000 N 
ATOM     11  H   UNL     1       2.600   8.076  16.753  0.00  0.00    +0.000 HD
BRANCH  10  12
ATOM     12  O   UNL     1       1.888   9.874  17.486  0.00  0.00    +0.000 OA
ATOM     13  H   UNL     1       2.564  10.456  17.899  0.00  0.00    +0.000 HD
ENDBRANCH  10  12
ENDBRANCH   4   8
BRANCH   7  14
ATOM     14  O   UNL     1       3.835   2.553  19.107  0.00  0.00    +0.000 OA
ATOM     15  C   UNL     1       4.399   2.197  20.356  0.00  0.00    +0.000 C 
ENDBRANCH   7  14
ENDBRANCH   1   2
BRANCH   1  16
ATOM     16  C   UNL     1       5.485   3.899  16.558  0.00  0.00    +0.000 C 
BRANCH  16  20
ATOM     17  C   UNL     1       7.648   7.231  18.209  0.00  0.00    +0.000 A 
ATOM     18  C   UNL     1       7.668   5.984  18.846  0.00  0.00    +0.000 A 
ATOM     19  C   UNL     1       6.935   4.922  18.331  0.00  0.00    +0.000 A 
ATOM     20  C   UNL     1       6.153   5.094  17.181  0.00  0.00    +0.000 A 
ATOM     21  C   UNL     1       6.079   6.356  16.582  0.00  0.00    +0.000 A 
ATOM     22  C   UNL     1       6.826   7.418  17.090  0.00  0.00    +0.000 A 
BRANCH  17  23
ATOM     23  C   UNL     1       8.604   8.310  18.655  0.00  0.00    +0.000 C 
BRANCH  23  24
ATOM     24  C   UNL     1       8.397   9.542  17.772  0.00  0.00    +0.000 C 
BRANCH  24  25
ATOM     25  C   UNL     1       8.789  10.843  18.458  0.00  0.00    +0.000 C 
BRANCH  25  26
ATOM     26  C   UNL     1      10.273  11.116  18.216  0.00  0.00    +0.000 C 
BRANCH  26  28
ATOM     27  C   UNL     1      12.318  12.135  19.243  0.00  0.00    +0.000 C 
ATOM     28  C   UNL     1      11.013  11.407  19.515  0.00  0.00    +0.000 C 
ENDBRANCH  26  28
ENDBRANCH  25  26
ENDBRANCH  24  25
ENDBRANCH  23  24
ENDBRANCH  17  23
ENDBRANCH  16  20
ENDBRANCH   1  16
TORSDOF 11
ENDMDL
MODEL 8
REMARK VINA RESULT:      -6.9      1.699      3.485
REMARK  Name = 
REMARK  13 active torsions:
REMARK  status: ('A' for Active; 'I' for Inactive)
REMARK    1  A    between atoms: C_1  and  C_2
REMARK    2  A    between atoms: C_2  and  C_3
REMARK    3  A    between atoms: C_3  and  C_4
REMARK    4  A    between atoms: C_4  and  C_5
REMARK    5  A    between atoms: C_5  and  C_6
REMARK    6  A    between atoms: C_6  and  C_7
REMARK    7  A    between atoms: C_10  and  C_11
REMARK    8  A    between atoms: C_11  and  O_12
REMARK    9  A    between atoms: O_12  and  C_13
REMARK   10  A    between atoms: C_15  and  C_16
REMARK   11  A    between atoms: N_18  and  O_19
REMARK   12  A    between atoms: C_22  and  O_23
REMARK   13  A    between atoms: O_23  and  C_24
REMARK                            x       y       z     vdW  Elec       q    Type
REMARK                         _______ _______ _______ _____ _____    ______ ____
ROOT
ATOM      1  O   UNL     1       4.553   3.863  18.177  0.00  0.00    +0.000 OA
ENDROOT
BRANCH   1   2
ATOM      2  C   UNL     1       3.628   4.657  18.825  0.00  0.00    +0.000 A 
ATOM      3  C   UNL     1       3.252   5.905  18.292  0.00  0.00    +0.000 A 
ATOM      4  C   UNL     1       2.386   6.761  18.975  0.00  0.00    +0.000 A 
ATOM      5  C   UNL     1       1.790   6.335  20.156  0.00  0.00    +0.000 A 
ATOM      6  C   UNL     1       2.098   5.070  20.652  0.00  0.00    +0.000 A 
ATOM      7  C   UNL     1       3.021   4.222  20.014  0.00  0.00    +0.000 A 
BRANCH   4   8
ATOM      8  C   UNL     1       2.159   8.118  18.418  0.00  0.00    +0.000 C 
ATOM      9  O   UNL     1       2.665   8.480  17.360  0.00  0.00    +0.000 OA
ATOM     10  N   UNL     1       1.426   8.974  19.220  0.00  0.00    +0.000 N 
ATOM     11  H   UNL     1       1.337   8.818  20.219  0.00  0.00    +0.000 HD
BRANCH  10  12
ATOM     12  O   UNL     1       1.430  10.326  18.808  0.00  0.00    +0.000 OA
ATOM     13  H   UNL     1       1.014  10.279  17.919  0.00  0.00    +0.000 HD
ENDBRANCH  10  12
ENDBRANCH   4   8
BRANCH   7  14
ATOM     14  O   UNL     1       3.183   3.070  20.726  0.00  0.00    +0.000 OA
ATOM     15  C   UNL     1       2.236   2.671  21.700  0.00  0.00    +0.000 C 
ENDBRANCH   7  14
ENDBRANCH   1   2
BRANCH   1  16
ATOM     16  C   UNL     1       5.144   4.487  17.027  0.00  0.00    +0.000 C 
BRANCH  16  20
ATOM     17  C   UNL     1       7.999   7.445  18.293  0.00  0.00    +0.000 A 
ATOM     18  C   UNL     1       7.184   7.675  17.179  0.00  0.00    +0.000 A 
ATOM     19  C   UNL     1       6.291   6.700  16.749  0.00  0.00    +0.000 A 
ATOM     20  C   UNL     1       6.214   5.470  17.415  0.00  0.00    +0.000 A 
ATOM     21  C   UNL     1       7.075   5.212  18.487  0.00  0.00    +0.000 A 
ATOM     22  C   UNL     1       7.960   6.196  18.927  0.00  0.00    +0.000 A 
BRANCH  17  23
ATOM     23  C   UNL     1       8.807   8.580  18.871  0.00  0.00    +0.000 C 
BRANCH  23  24
ATOM     24  C   UNL     1       8.589   9.824  18.007  0.00  0.00    +0.000 C 
BRANCH  24  25
ATOM     25  C   UNL     1       9.142  11.095  18.637  0.00  0.00    +0.000 C 
BRANCH  25  26
ATOM     26  C   UNL     1      10.471  11.454  17.970  0.00  0.00    +0.000 C 
BRANCH  26  28
ATOM     27  C   UNL     1      12.129  12.905  19.162  0.00  0.00    +0.000 C 
ATOM     28  C   UNL     1      11.615  11.488  18.975  0.00  0.00    +0.000 C 
ENDBRANCH  26  28
ENDBRANCH  25  26
ENDBRANCH  24  25
ENDBRANCH  23  24
ENDBRANCH  17  23
ENDBRANCH  16  20
ENDBRANCH   1  16
TORSDOF 11
ENDMDL
MODEL 9
REMARK VINA RESULT:      -6.8      1.929      3.460
REMARK  Name = 
REMARK  13 active torsions:
REMARK  status: ('A' for Active; 'I' for Inactive)
REMARK    1  A    between atoms: C_1  and  C_2
REMARK    2  A    between atoms: C_2  and  C_3
REMARK    3  A    between atoms: C_3  and  C_4
REMARK    4  A    between atoms: C_4  and  C_5
REMARK    5  A    between atoms: C_5  and  C_6
REMARK    6  A    between atoms: C_6  and  C_7
REMARK    7  A    between atoms: C_10  and  C_11
REMARK    8  A    between atoms: C_11  and  O_12
REMARK    9  A    between atoms: O_12  and  C_13
REMARK   10  A    between atoms: C_15  and  C_16
REMARK   11  A    between atoms: N_18  and  O_19
REMARK   12  A    between atoms: C_22  and  O_23
REMARK   13  A    between atoms: O_23  and  C_24
REMARK                            x       y       z     vdW  Elec       q    Type
REMARK                         _______ _______ _______ _____ _____    ______ ____
ROOT
ATOM      1  O   UNL     1       5.365   3.984  19.344  0.00  0.00    +0.000 OA
ENDROOT
BRANCH   1   2
ATOM      2  C   UNL     1       4.032   4.274  19.564  0.00  0.00    +0.000 A 
ATOM      3  C   UNL     1       3.593   5.608  19.661  0.00  0.00    +0.000 A 
ATOM      4  C   UNL     1       2.267   5.921  19.971  0.00  0.00    +0.000 A 
ATOM      5  C   UNL     1       1.330   4.902  20.079  0.00  0.00    +0.000 A 
ATOM      6  C   UNL     1       1.741   3.582  19.911  0.00  0.00    +0.000 A 
ATOM      7  C   UNL     1       3.085   3.244  19.667  0.00  0.00    +0.000 A 
BRANCH   4   8
ATOM      8  C   UNL     1       1.920   7.345  20.202  0.00  0.00    +0.000 C 
ATOM      9  O   UNL     1       1.993   8.186  19.311  0.00  0.00    +0.000 OA
ATOM     10  N   UNL     1       1.608   7.675  21.509  0.00  0.00    +0.000 N 
ATOM     11  H   UNL     1       1.906   7.096  22.286  0.00  0.00    +0.000 HD
BRANCH  10  12
ATOM     12  O   UNL     1       1.529   9.062  21.771  0.00  0.00    +0.000 OA
ATOM     13  H   UNL     1       1.174   9.418  20.926  0.00  0.00    +0.000 HD
ENDBRANCH  10  12
ENDBRANCH   4   8
BRANCH   7  14
ATOM     14  O   UNL     1       3.232   1.889  19.593  0.00  0.00    +0.000 OA
ATOM     15  C   UNL     1       3.604   1.259  18.382  0.00  0.00    +0.000 C 
ENDBRANCH   7  14
ENDBRANCH   1   2
BRANCH   1  16
ATOM     16  C   UNL     1       5.833   4.376  18.044  0.00  0.00    +0.000 C 
BRANCH  16  20
ATOM     17  C   UNL     1       7.796   8.202  17.912  0.00  0.00    +0.000 A 
ATOM     18  C   UNL     1       8.258   7.195  18.769  0.00  0.00    +0.000 A 
ATOM     19  C   UNL     1       7.596   5.975  18.838  0.00  0.00    +0.000 A 
ATOM     20  C   UNL     1       6.449   5.748  18.065  0.00  0.00    +0.000 A 
ATOM     21  C   UNL     1       5.948   6.776  17.259  0.00  0.00    +0.000 A 
ATOM     22  C   UNL     1       6.621   7.995  17.179  0.00  0.00    +0.000 A 
BRANCH  17  23
ATOM     23  C   UNL     1       8.638   9.434  17.692  0.00  0.00    +0.000 C 
BRANCH  23  24
ATOM     24  C   UNL     1       9.210   9.882  19.039  0.00  0.00    +0.000 C 
BRANCH  24  25
ATOM     25  C   UNL     1       9.496  11.376  19.100  0.00  0.00    +0.000 C 
BRANCH  25  26
ATOM     26  C   UNL     1      10.849  11.660  18.449  0.00  0.00    +0.000 C 
BRANCH  26  28
ATOM     27  C   UNL     1      12.113  13.227  16.958  0.00  0.00    +0.000 C 
ATOM     28  C   UNL     1      10.739  12.715  17.355  0.00  0.00    +0.000 C 
ENDBRANCH  26  28
ENDBRANCH  25  26
ENDBRANCH  24  25
ENDBRANCH  23  24
ENDBRANCH  17  23
ENDBRANCH  16  20
ENDBRANCH   1  16
TORSDOF 11
ENDMDL
