MODEL 1
REMARK VINA RESULT:      -7.3      0.000      0.000
REMARK  Name = 
REMARK  5 active torsions:
REMARK  status: ('A' for Active; 'I' for Inactive)
REMARK    1  A    between atoms: C_1  and  C_2
REMARK    2  A    between atoms: C_2  and  C_3
REMARK    3  A    between atoms: N_8  and  C_9
REMARK    4  A    between atoms: C_9  and  C_10
REMARK    5  A    between atoms: C_10  and  N_11
REMARK                            x       y       z     vdW  Elec       q    Type
REMARK                         _______ _______ _______ _____ _____    ______ ____
ROOT
ATOM      1  C   UNL     1       6.630   4.864  14.149  0.00  0.00    +0.000 C 
ATOM      2  O   UNL     1       7.664   5.513  13.991  0.00  0.00    +0.000 OA
ATOM      3  N   UNL     1       5.690   5.196  15.117  0.00  0.00    +0.000 N 
ATOM      4  C   UNL     1       4.492   4.416  15.451  0.00  0.00    +0.000 C 
ATOM      5  C   UNL     1       4.560   3.774  16.842  0.00  0.00    +0.000 C 
ATOM      6  N   UNL     1       4.504   4.737  17.937  0.00  0.00    +0.000 N 
ATOM      7  C   UNL     1       5.688   5.369  18.268  0.00  0.00    +0.000 A 
ATOM      8  N   UNL     1       6.106   5.209  19.545  0.00  0.00    +0.000 NA
ATOM      9  C   UNL     1       7.336   5.664  19.874  0.00  0.00    +0.000 A 
ATOM     10  C   UNL     1       8.181   6.310  18.992  0.00  0.00    +0.000 A 
ATOM     11  C   UNL     1       7.730   6.518  17.699  0.00  0.00    +0.000 A 
ATOM     12  C   UNL     1       6.460   6.054  17.319  0.00  0.00    +0.000 A 
ATOM     13  C   UNL     1       5.931   6.372  15.948  0.00  0.00    +0.000 C 
ENDROOT
BRANCH   1  15
ATOM     14  C   UNL     1       6.996   3.731  11.909  0.00  0.00    +0.000 C 
ATOM     15  C   UNL     1       6.314   3.664  13.268  0.00  0.00    +0.000 C 
ENDBRANCH   1  15
BRANCH   6  16
ATOM     16  C   UNL     1       3.263   5.276  18.502  0.00  0.00    +0.000 C 
BRANCH  16  17
ATOM     17  C   UNL     1       2.164   4.220  18.623  0.00  0.00    +0.000 C 
BRANCH  17  18
ATOM     18  N   UNL     1       2.129   3.580  19.922  0.00  0.00    +0.000 N 
ATOM     19  C   UNL     1       3.127   2.852  20.504  0.00  0.00    +0.000 A 
ATOM     20  C   UNL     1       2.590   2.322  21.654  0.00  0.00    +0.000 A 
ATOM     21  C   UNL     1       1.263   2.787  21.676  0.00  0.00    +0.000 A 
ATOM     22  N   UNL     1       0.978   3.561  20.625  0.00  0.00    +0.000 NA
ENDBRANCH  17  18
ENDBRANCH  16  17
ENDBRANCH   6  16
TORSDOF 4
ENDMDL
MODEL 2
REMARK VINA RESULT:      -7.2      3.002      6.826
REMARK  Name = 
REMARK  5 active torsions:
REMARK  status: ('A' for Active; 'I' for Inactive)
REMARK    1  A    between atoms: C_1  and  C_2
REMARK    2  A    between atoms: C_2  and  C_3
REMARK    3  A    between atoms: N_8  and  C_9
REMARK    4  A    between atoms: C_9  and  C_10
REMARK    5  A    between atoms: C_10  and  N_11
REMARK                            x       y       z     vdW  Elec       q    Type
REMARK                         _______ _______ _______ _____ _____    ______ ____
ROOT
ATOM      1  C   UNL     1       4.027   3.399  18.724  0.00  0.00    +0.000 C 
ATOM      2  O   UNL     1       3.262   2.837  17.940  0.00  0.00    +0.000 OA
ATOM      3  N   UNL     1       4.652   4.602  18.413  0.00  0.00    +0.000 N 
ATOM      4  C   UNL     1       5.662   5.279  19.235  0.00  0.00    +0.000 C 
ATOM      5  C   UNL     1       7.056   5.280  18.597  0.00  0.00    +0.000 C 
ATOM      6  N   UNL     1       7.155   6.112  17.401  0.00  0.00    +0.000 N 
ATOM      7  C   UNL     1       6.710   5.552  16.218  0.00  0.00    +0.000 A 
ATOM      8  N   UNL     1       7.621   5.478  15.220  0.00  0.00    +0.000 NA
ATOM      9  C   UNL     1       7.289   4.792  14.104  0.00  0.00    +0.000 A 
ATOM     10  C   UNL     1       6.063   4.185  13.908  0.00  0.00    +0.000 A 
ATOM     11  C   UNL     1       5.114   4.305  14.910  0.00  0.00    +0.000 A 
ATOM     12  C   UNL     1       5.425   5.007  16.087  0.00  0.00    +0.000 A 
ATOM     13  C   UNL     1       4.361   5.225  17.126  0.00  0.00    +0.000 C 
ENDROOT
BRANCH   1  15
ATOM     14  C   UNL     1       3.053   2.553  20.907  0.00  0.00    +0.000 C 
ATOM     15  C   UNL     1       4.315   2.811  20.098  0.00  0.00    +0.000 C 
ENDBRANCH   1  15
BRANCH   6  16
ATOM     16  C   UNL     1       7.416   7.555  17.417  0.00  0.00    +0.000 C 
BRANCH  16  17
ATOM     17  C   UNL     1       8.349   7.971  18.553  0.00  0.00    +0.000 C 
BRANCH  17  18
ATOM     18  N   UNL     1       8.711   9.373  18.510  0.00  0.00    +0.000 N 
ATOM     19  C   UNL     1       9.452  10.056  19.432  0.00  0.00    +0.000 A 
ATOM     20  C   UNL     1       9.408  11.377  19.051  0.00  0.00    +0.000 A 
ATOM     21  C   UNL     1       8.615  11.388  17.890  0.00  0.00    +0.000 A 
ATOM     22  N   UNL     1       8.193  10.166  17.551  0.00  0.00    +0.000 NA
ENDBRANCH  17  18
ENDBRANCH  16  17
ENDBRANCH   6  16
TORSDOF 4
ENDMDL
MODEL 3
REMARK VINA RESULT:      -7.0      2.874      6.567
REMARK  Name = 
REMARK  5 active torsions:
REMARK  status: ('A' for Active; 'I' for Inactive)
REMARK    1  A    between atoms: C_1  and  C_2
REMARK    2  A    between atoms: C_2  and  C_3
REMARK    3  A    between atoms: N_8  and  C_9
REMARK    4  A    between atoms: C_9  and  C_10
REMARK    5  A    between atoms: C_10  and  N_11
REMARK                            x       y       z     vdW  Elec       q    Type
REMARK                         _______ _______ _______ _____ _____    ______ ____
ROOT
ATOM      1  C   UNL     1       2.026   3.562  20.215  0.00  0.00    +0.000 C 
ATOM      2  O   UNL     1       1.363   4.061  21.125  0.00  0.00    +0.000 OA
ATOM      3  N   UNL     1       3.085   4.236  19.617  0.00  0.00    +0.000 N 
ATOM      4  C   UNL     1       3.851   3.768  18.456  0.00  0.00    +0.000 C 
ATOM      5  C   UNL     1       3.615   4.614  17.199  0.00  0.00    +0.000 C 
ATOM      6  N   UNL     1       4.159   5.965  17.288  0.00  0.00    +0.000 N 
ATOM      7  C   UNL     1       3.389   6.901  17.954  0.00  0.00    +0.000 A 
ATOM      8  N   UNL     1       3.037   7.994  17.238  0.00  0.00    +0.000 NA
ATOM      9  C   UNL     1       2.150   8.855  17.786  0.00  0.00    +0.000 A 
ATOM     10  C   UNL     1       1.604   8.702  19.046  0.00  0.00    +0.000 A 
ATOM     11  C   UNL     1       2.005   7.609  19.796  0.00  0.00    +0.000 A 
ATOM     12  C   UNL     1       2.921   6.690  19.259  0.00  0.00    +0.000 A 
ATOM     13  C   UNL     1       3.434   5.564  20.112  0.00  0.00    +0.000 C 
ENDROOT
BRANCH   1  15
ATOM     14  C   UNL     1       0.643   2.133  18.642  0.00  0.00    +0.000 C 
ATOM     15  C   UNL     1       1.730   2.159  19.706  0.00  0.00    +0.000 C 
ENDBRANCH   1  15
BRANCH   6  16
ATOM     16  C   UNL     1       5.549   6.319  16.981  0.00  0.00    +0.000 C 
BRANCH  16  17
ATOM     17  C   UNL     1       6.413   5.097  16.675  0.00  0.00    +0.000 C 
BRANCH  17  18
ATOM     18  N   UNL     1       6.556   4.840  15.257  0.00  0.00    +0.000 N 
ATOM     19  C   UNL     1       5.869   3.919  14.519  0.00  0.00    +0.000 A 
ATOM     20  C   UNL     1       6.442   3.931  13.268  0.00  0.00    +0.000 A 
ATOM     21  C   UNL     1       7.467   4.890  13.354  0.00  0.00    +0.000 A 
ATOM     22  N   UNL     1       7.537   5.453  14.564  0.00  0.00    +0.000 NA
ENDBRANCH  17  18
ENDBRANCH  16  17
ENDBRANCH   6  16
TORSDOF 4
ENDMDL
MODEL 4
REMARK VINA RESULT:      -6.9      1.840      2.503
REMARK  Name = 
REMARK  5 active torsions:
REMARK  status: ('A' for Active; 'I' for Inactive)
REMARK    1  A    between atoms: C_1  and  C_2
REMARK    2  A    between atoms: C_2  and  C_3
REMARK    3  A    between atoms: N_8  and  C_9
REMARK    4  A    between atoms: C_9  and  C_10
REMARK    5  A    between atoms: C_10  and  N_11
REMARK                            x       y       z     vdW  Elec       q    Type
REMARK                         _______ _______ _______ _____ _____    ______ ____
ROOT
ATOM      1  C   UNL     1       6.208   4.806  14.305  0.00  0.00    +0.000 C 
ATOM      2  O   UNL     1       7.078   5.617  13.985  0.00  0.00    +0.000 OA
ATOM      3  N   UNL     1       5.390   4.997  15.413  0.00  0.00    +0.000 N 
ATOM      4  C   UNL     1       4.412   4.033  15.931  0.00  0.00    +0.000 C 
ATOM      5  C   UNL     1       4.808   3.445  17.291  0.00  0.00    +0.000 C 
ATOM      6  N   UNL     1       4.763   4.411  18.384  0.00  0.00    +0.000 N 
ATOM      7  C   UNL     1       5.859   5.241  18.524  0.00  0.00    +0.000 A 
ATOM      8  N   UNL     1       6.496   5.185  19.716  0.00  0.00    +0.000 NA
ATOM      9  C   UNL     1       7.666   5.849  19.846  0.00  0.00    +0.000 A 
ATOM     10  C   UNL     1       8.237   6.608  18.842  0.00  0.00    +0.000 A 
ATOM     11  C   UNL     1       7.558   6.705  17.639  0.00  0.00    +0.000 A 
ATOM     12  C   UNL     1       6.342   6.025  17.466  0.00  0.00    +0.000 A 
ATOM     13  C   UNL     1       5.556   6.216  16.198  0.00  0.00    +0.000 C 
ENDROOT
BRANCH   1  15
ATOM     14  C   UNL     1       6.640   3.596  12.118  0.00  0.00    +0.000 C 
ATOM     15  C   UNL     1       5.966   3.549  13.481  0.00  0.00    +0.000 C 
ENDBRANCH   1  15
BRANCH   6  16
ATOM     16  C   UNL     1       3.553   4.745  19.143  0.00  0.00    +0.000 C 
BRANCH  16  17
ATOM     17  C   UNL     1       2.635   5.709  18.393  0.00  0.00    +0.000 C 
BRANCH  17  18
ATOM     18  N   UNL     1       2.237   6.853  19.186  0.00  0.00    +0.000 N 
ATOM     19  C   UNL     1       1.832   6.843  20.491  0.00  0.00    +0.000 A 
ATOM     20  C   UNL     1       1.416   8.124  20.769  0.00  0.00    +0.000 A 
ATOM     21  C   UNL     1       1.606   8.830  19.568  0.00  0.00    +0.000 A 
ATOM     22  N   UNL     1       2.114   8.061  18.600  0.00  0.00    +0.000 NA
ENDBRANCH  17  18
ENDBRANCH  16  17
ENDBRANCH   6  16
TORSDOF 4
ENDMDL
MODEL 5
REMARK VINA RESULT:      -6.9      3.663      6.032
REMARK  Name = 
REMARK  5 active torsions:
REMARK  status: ('A' for Active; 'I' for Inactive)
REMARK    1  A    between atoms: C_1  and  C_2
REMARK    2  A    between atoms: C_2  and  C_3
REMARK    3  A    between atoms: N_8  and  C_9
REMARK    4  A    between atoms: C_9  and  C_10
REMARK    5  A    between atoms: C_10  and  N_11
REMARK                            x       y       z     vdW  Elec       q    Type
REMARK                         _______ _______ _______ _____ _____    ______ ____
ROOT
ATOM      1  C   UNL     1       2.864   2.890  19.909  0.00  0.00    +0.000 C 
ATOM      2  O   UNL     1       3.322   1.886  19.361  0.00  0.00    +0.000 OA
ATOM      3  N   UNL     1       2.493   4.020  19.189  0.00  0.00    +0.000 N 
ATOM      4  C   UNL     1       2.050   5.295  19.766  0.00  0.00    +0.000 C 
ATOM      5  C   UNL     1       3.053   6.434  19.551  0.00  0.00    +0.000 C 
ATOM      6  N   UNL     1       3.176   6.856  18.160  0.00  0.00    +0.000 N 
ATOM      7  C   UNL     1       4.001   6.096  17.352  0.00  0.00    +0.000 A 
ATOM      8  N   UNL     1       5.025   6.757  16.764  0.00  0.00    +0.000 NA
ATOM      9  C   UNL     1       5.954   6.032  16.102  0.00  0.00    +0.000 A 
ATOM     10  C   UNL     1       5.905   4.659  15.962  0.00  0.00    +0.000 A 
ATOM     11  C   UNL     1       4.829   3.990  16.521  0.00  0.00    +0.000 A 
ATOM     12  C   UNL     1       3.846   4.709  17.222  0.00  0.00    +0.000 A 
ATOM     13  C   UNL     1       2.627   3.995  17.736  0.00  0.00    +0.000 C 
ENDROOT
BRANCH   1  15
ATOM     14  C   UNL     1       1.280   2.448  21.840  0.00  0.00    +0.000 C 
ATOM     15  C   UNL     1       2.657   2.937  21.416  0.00  0.00    +0.000 C 
ENDBRANCH   1  15
BRANCH   6  16
ATOM     16  C   UNL     1       2.290   7.827  17.508  0.00  0.00    +0.000 C 
BRANCH  16  17
ATOM     17  C   UNL     1       2.304   9.191  18.197  0.00  0.00    +0.000 C 
BRANCH  17  18
ATOM     18  N   UNL     1       1.065   9.499  18.880  0.00  0.00    +0.000 N 
ATOM     19  C   UNL     1      -0.028  10.125  18.351  0.00  0.00    +0.000 A 
ATOM     20  C   UNL     1      -0.893  10.331  19.400  0.00  0.00    +0.000 A 
ATOM     21  C   UNL     1      -0.230   9.797  20.520  0.00  0.00    +0.000 A 
ATOM     22  N   UNL     1       0.962   9.281  20.207  0.00  0.00    +0.000 NA
ENDBRANCH  17  18
ENDBRANCH  16  17
ENDBRANCH   6  16
TORSDOF 4
ENDMDL
MODEL 6
REMARK VINA RESULT:      -6.7      3.772      5.306
REMARK  Name = 
REMARK  5 active torsions:
REMARK  status: ('A' for Active; 'I' for Inactive)
REMARK    1  A    between atoms: C_1  and  C_2
REMARK    2  A    between atoms: C_2  and  C_3
REMARK    3  A    between atoms: N_8  and  C_9
REMARK    4  A    between atoms: C_9  and  C_10
REMARK    5  A    between atoms: C_10  and  N_11
REMARK                            x       y       z     vdW  Elec       q    Type
REMARK                         _______ _______ _______ _____ _____    ______ ____
ROOT
ATOM      1  C   UNL     1       5.293   5.064  16.985  0.00  0.00    +0.000 C 
ATOM      2  O   UNL     1       5.825   3.970  17.180  0.00  0.00    +0.000 OA
ATOM      3  N   UNL     1       4.692   5.785  18.010  0.00  0.00    +0.000 N 
ATOM      4  C   UNL     1       3.937   7.034  17.849  0.00  0.00    +0.000 C 
ATOM      5  C   UNL     1       2.438   6.872  18.128  0.00  0.00    +0.000 C 
ATOM      6  N   UNL     1       2.126   6.609  19.529  0.00  0.00    +0.000 N 
ATOM      7  C   UNL     1       2.256   5.301  19.958  0.00  0.00    +0.000 A 
ATOM      8  N   UNL     1       1.142   4.734  20.475  0.00  0.00    +0.000 NA
ATOM      9  C   UNL     1       1.171   3.412  20.753  0.00  0.00    +0.000 A 
ATOM     10  C   UNL     1       2.280   2.609  20.571  0.00  0.00    +0.000 A 
ATOM     11  C   UNL     1       3.435   3.202  20.089  0.00  0.00    +0.000 A 
ATOM     12  C   UNL     1       3.442   4.573  19.783  0.00  0.00    +0.000 A 
ATOM     13  C   UNL     1       4.724   5.235  19.361  0.00  0.00    +0.000 C 
ENDROOT
BRANCH   1  15
ATOM     14  C   UNL     1       5.705   4.731  14.505  0.00  0.00    +0.000 C 
ATOM     15  C   UNL     1       5.285   5.698  15.602  0.00  0.00    +0.000 C 
ENDBRANCH   1  15
BRANCH   6  16
ATOM     16  C   UNL     1       1.966   7.649  20.550  0.00  0.00    +0.000 C 
BRANCH  16  17
ATOM     17  C   UNL     1       1.156   8.845  20.051  0.00  0.00    +0.000 C 
BRANCH  17  18
ATOM     18  N   UNL     1       0.376   9.481  21.092  0.00  0.00    +0.000 N 
ATOM     19  C   UNL     1      -0.327  10.648  20.991  0.00  0.00    +0.000 A 
ATOM     20  C   UNL     1      -0.777  10.931  22.259  0.00  0.00    +0.000 A 
ATOM     21  C   UNL     1      -0.291   9.877  23.054  0.00  0.00    +0.000 A 
ATOM     22  N   UNL     1       0.407   8.986  22.345  0.00  0.00    +0.000 NA
ENDBRANCH  17  18
ENDBRANCH  16  17
ENDBRANCH   6  16
TORSDOF 4
ENDMDL
MODEL 7
REMARK VINA RESULT:      -6.7      2.779      6.574
REMARK  Name = 
REMARK  5 active torsions:
REMARK  status: ('A' for Active; 'I' for Inactive)
REMARK    1  A    between atoms: C_1  and  C_2
REMARK    2  A    between atoms: C_2  and  C_3
REMARK    3  A    between atoms: N_8  and  C_9
REMARK    4  A    between atoms: C_9  and  C_10
REMARK    5  A    between atoms: C_10  and  N_11
REMARK                            x       y       z     vdW  Elec       q    Type
REMARK                         _______ _______ _______ _____ _____    ______ ____
ROOT
ATOM      1  C   UNL     1       2.621   4.657  18.376  0.00  0.00    +0.000 C 
ATOM      2  O   UNL     1       1.910   4.579  17.373  0.00  0.00    +0.000 OA
ATOM      3  N   UNL     1       3.797   5.398  18.390  0.00  0.00    +0.000 N 
ATOM      4  C   UNL     1       4.760   5.453  19.497  0.00  0.00    +0.000 C 
ATOM      5  C   UNL     1       6.097   4.780  19.166  0.00  0.00    +0.000 C 
ATOM      6  N   UNL     1       6.881   5.492  18.161  0.00  0.00    +0.000 N 
ATOM      7  C   UNL     1       6.542   5.269  16.839  0.00  0.00    +0.000 A 
ATOM      8  N   UNL     1       7.529   4.785  16.050  0.00  0.00    +0.000 NA
ATOM      9  C   UNL     1       7.208   4.393  14.796  0.00  0.00    +0.000 A 
ATOM     10  C   UNL     1       5.937   4.486  14.262  0.00  0.00    +0.000 A 
ATOM     11  C   UNL     1       4.940   5.029  15.054  0.00  0.00    +0.000 A 
ATOM     12  C   UNL     1       5.235   5.442  16.364  0.00  0.00    +0.000 A 
ATOM     13  C   UNL     1       4.177   6.126  17.184  0.00  0.00    +0.000 C 
ENDROOT
BRANCH   1  15
ATOM     14  C   UNL     1       1.104   2.955  19.486  0.00  0.00    +0.000 C 
ATOM     15  C   UNL     1       2.233   3.958  19.670  0.00  0.00    +0.000 C 
ENDBRANCH   1  15
BRANCH   6  16
ATOM     16  C   UNL     1       7.783   6.610  18.454  0.00  0.00    +0.000 C 
BRANCH  16  17
ATOM     17  C   UNL     1       7.539   7.816  17.547  0.00  0.00    +0.000 C 
BRANCH  17  18
ATOM     18  N   UNL     1       8.130   9.038  18.051  0.00  0.00    +0.000 N 
ATOM     19  C   UNL     1       8.073  10.274  17.473  0.00  0.00    +0.000 A 
ATOM     20  C   UNL     1       8.895  11.083  18.223  0.00  0.00    +0.000 A 
ATOM     21  C   UNL     1       9.404  10.241  19.228  0.00  0.00    +0.000 A 
ATOM     22  N   UNL     1       8.934   8.993  19.132  0.00  0.00    +0.000 NA
ENDBRANCH  17  18
ENDBRANCH  16  17
ENDBRANCH   6  16
TORSDOF 4
ENDMDL
MODEL 8
REMARK VINA RESULT:      -6.6      2.733      6.348
REMARK  Name = 
REMARK  5 active torsions:
REMARK  status: ('A' for Active; 'I' for Inactive)
REMARK    1  A    between atoms: C_1  and  C_2
REMARK    2  A    between atoms: C_2  and  C_3
REMARK    3  A    between atoms: N_8  and  C_9
REMARK    4  A    between atoms: C_9  and  C_10
REMARK    5  A    between atoms: C_10  and  N_11
REMARK                            x       y       z     vdW  Elec       q    Type
REMARK                         _______ _______ _______ _____ _____    ______ ____
ROOT
ATOM      1  C   UNL     1       1.576   3.623  20.262  0.00  0.00    +0.000 C 
ATOM      2  O   UNL     1       0.669   4.381  20.608  0.00  0.00    +0.000 OA
ATOM      3  N   UNL     1       2.880   4.068  20.072  0.00  0.00    +0.000 N 
ATOM      4  C   UNL     1       3.992   3.264  19.553  0.00  0.00    +0.000 C 
ATOM      5  C   UNL     1       4.459   3.709  18.162  0.00  0.00    +0.000 C 
ATOM      6  N   UNL     1       5.111   5.015  18.150  0.00  0.00    +0.000 N 
ATOM      7  C   UNL     1       4.282   6.121  18.129  0.00  0.00    +0.000 A 
ATOM      8  N   UNL     1       4.449   6.965  17.085  0.00  0.00    +0.000 NA
ATOM      9  C   UNL     1       3.557   7.968  16.927  0.00  0.00    +0.000 A 
ATOM     10  C   UNL     1       2.502   8.203  17.788  0.00  0.00    +0.000 A 
ATOM     11  C   UNL     1       2.363   7.369  18.885  0.00  0.00    +0.000 A 
ATOM     12  C   UNL     1       3.268   6.312  19.078  0.00  0.00    +0.000 A 
ATOM     13  C   UNL     1       3.178   5.474  20.323  0.00  0.00    +0.000 C 
ENDROOT
BRANCH   1  15
ATOM     14  C   UNL     1       0.922   1.813  18.611  0.00  0.00    +0.000 C 
ATOM     15  C   UNL     1       1.319   2.139  20.043  0.00  0.00    +0.000 C 
ENDBRANCH   1  15
BRANCH   6  16
ATOM     16  C   UNL     1       6.532   5.232  18.441  0.00  0.00    +0.000 C 
BRANCH  16  17
ATOM     17  C   UNL     1       7.450   4.439  17.511  0.00  0.00    +0.000 C 
BRANCH  17  18
ATOM     18  N   UNL     1       7.069   4.533  16.117  0.00  0.00    +0.000 N 
ATOM     19  C   UNL     1       6.322   3.635  15.410  0.00  0.00    +0.000 A 
ATOM     20  C   UNL     1       6.347   4.064  14.103  0.00  0.00    +0.000 A 
ATOM     21  C   UNL     1       7.138   5.227  14.125  0.00  0.00    +0.000 A 
ATOM     22  N   UNL     1       7.576   5.522  15.352  0.00  0.00    +0.000 NA
ENDBRANCH  17  18
ENDBRANCH  16  17
ENDBRANCH   6  16
TORSDOF 4
ENDMDL
MODEL 9
REMARK VINA RESULT:      -6.5      3.986      6.350
REMARK  Name = 
REMARK  5 active torsions:
REMARK  status: ('A' for Active; 'I' for Inactive)
REMARK    1  A    between atoms: C_1  and  C_2
REMARK    2  A    between atoms: C_2  and  C_3
REMARK    3  A    between atoms: N_8  and  C_9
REMARK    4  A    between atoms: C_9  and  C_10
REMARK    5  A    between atoms: C_10  and  N_11
REMARK                            x       y       z     vdW  Elec       q    Type
REMARK                         _______ _______ _______ _____ _____    ______ ____
ROOT
ATOM      1  C   UNL     1       1.650   2.758  19.549  0.00  0.00    +0.000 C 
ATOM      2  O   UNL     1       1.999   1.808  18.847  0.00  0.00    +0.000 OA
ATOM      3  N   UNL     1       1.567   4.053  19.050  0.00  0.00    +0.000 N 
ATOM      4  C   UNL     1       1.274   5.257  19.837  0.00  0.00    +0.000 C 
ATOM      5  C   UNL     1       2.472   6.206  19.954  0.00  0.00    +0.000 C 
ATOM      6  N   UNL     1       2.836   6.852  18.697  0.00  0.00    +0.000 N 
ATOM      7  C   UNL     1       3.617   6.116  17.825  0.00  0.00    +0.000 A 
ATOM      8  N   UNL     1       4.802   6.671  17.481  0.00  0.00    +0.000 NA
ATOM      9  C   UNL     1       5.672   5.922  16.767  0.00  0.00    +0.000 A 
ATOM     10  C   UNL     1       5.412   4.634  16.342  0.00  0.00    +0.000 A 
ATOM     11  C   UNL     1       4.178   4.087  16.651  0.00  0.00    +0.000 A 
ATOM     12  C   UNL     1       3.250   4.833  17.396  0.00  0.00    +0.000 A 
ATOM     13  C   UNL     1       1.875   4.278  17.641  0.00  0.00    +0.000 C 
ENDROOT
BRANCH   1  15
ATOM     14  C   UNL     1       2.442   2.746  21.958  0.00  0.00    +0.000 C 
ATOM     15  C   UNL     1       1.268   2.559  21.008  0.00  0.00    +0.000 C 
ENDBRANCH   1  15
BRANCH   6  16
ATOM     16  C   UNL     1       2.213   8.077  18.186  0.00  0.00    +0.000 C 
BRANCH  16  17
ATOM     17  C   UNL     1       1.772   9.023  19.303  0.00  0.00    +0.000 C 
BRANCH  17  18
ATOM     18  N   UNL     1       0.553   9.741  18.995  0.00  0.00    +0.000 N 
ATOM     19  C   UNL     1      -0.220  10.455  19.866  0.00  0.00    +0.000 A 
ATOM     20  C   UNL     1      -1.341  10.829  19.162  0.00  0.00    +0.000 A 
ATOM     21  C   UNL     1      -1.151  10.291  17.877  0.00  0.00    +0.000 A 
ATOM     22  N   UNL     1       0.007   9.632  17.767  0.00  0.00    +0.000 NA
ENDBRANCH  17  18
ENDBRANCH  16  17
ENDBRANCH   6  16
TORSDOF 4
ENDMDL
