MODEL 1
REMARK VINA RESULT:      -8.6      0.000      0.000
REMARK  Name = 
REMARK  6 active torsions:
REMARK  status: ('A' for Active; 'I' for Inactive)
REMARK    1  A    between atoms: C_8  and  C_9
REMARK    2  A    between atoms: C_9  and  C_11
REMARK    3  A    between atoms: C_11  and  O_12
REMARK    4  A    between atoms: O_12  and  C_13
REMARK    5  A    between atoms: C_13  and  C_15
REMARK    6  A    between atoms: C_16  and  C_17
REMARK                            x       y       z     vdW  Elec       q    Type
REMARK                         _______ _______ _______ _____ _____    ______ ____
ROOT
ATOM      1  C   UNL     1       7.166   4.896  18.026  0.00  0.00    +0.000 C 
ATOM      2  O   UNL     1       7.999   4.390  17.270  0.00  0.00    +0.000 OA
ENDROOT
BRANCH   1  10
ATOM      3  O   UNL     1       1.100   2.651  21.278  0.00  0.00    +0.000 OA
ATOM      4  C   UNL     1       1.704   2.937  20.252  0.00  0.00    +0.000 C 
ATOM      5  C   UNL     1       1.047   2.991  18.874  0.00  0.00    +0.000 C 
ATOM      6  O   UNL     1       1.863   2.886  17.717  0.00  0.00    +0.000 OA
ATOM      7  C   UNL     1       3.125   3.389  17.871  0.00  0.00    +0.000 A 
ATOM      8  C   UNL     1       3.842   3.633  16.705  0.00  0.00    +0.000 A 
ATOM      9  C   UNL     1       5.150   4.122  16.781  0.00  0.00    +0.000 A 
ATOM     10  C   UNL     1       5.762   4.361  18.023  0.00  0.00    +0.000 A 
ATOM     11  C   UNL     1       5.041   4.091  19.197  0.00  0.00    +0.000 A 
ATOM     12  C   UNL     1       3.726   3.611  19.113  0.00  0.00    +0.000 A 
ATOM     13  N   UNL     1       3.021   3.320  20.282  0.00  0.00    +0.000 N 
ATOM     14  H   UNL     1       3.454   3.369  21.194  0.00  0.00    +0.000 HD
ENDBRANCH   1  10
BRANCH   1  15
ATOM     15  C   UNL     1       7.514   6.053  18.957  0.00  0.00    +0.000 C 
BRANCH  15  16
ATOM     16  O   UNL     1       8.375   7.015  18.339  0.00  0.00    +0.000 OA
BRANCH  16  17
ATOM     17  C   UNL     1       7.730   8.020  17.688  0.00  0.00    +0.000 C 
ATOM     18  O   UNL     1       6.779   7.889  16.930  0.00  0.00    +0.000 OA
BRANCH  17  19
ATOM     19  C   UNL     1       8.320   9.318  18.053  0.00  0.00    +0.000 C 
ATOM     20  C   UNL     1       9.084   9.415  19.153  0.00  0.00    +0.000 C 
BRANCH  20  21
ATOM     21  C   UNL     1       9.657  10.658  19.544  0.00  0.00    +0.000 A 
ATOM     22  C   UNL     1       9.435  11.413  20.694  0.00  0.00    +0.000 A 
ATOM     23  C   UNL     1      10.250  12.571  20.619  0.00  0.00    +0.000 A 
ATOM     24  C   UNL     1      10.927  12.475  19.431  0.00  0.00    +0.000 A 
ATOM     25 BR   UNL     1      12.148  13.724  18.779  0.00  0.00    +0.000 Br
ATOM     26  O   UNL     1      10.588  11.333  18.786  0.00  0.00    +0.000 OA
ENDBRANCH  20  21
ENDBRANCH  17  19
ENDBRANCH  16  17
ENDBRANCH  15  16
ENDBRANCH   1  15
TORSDOF 6
ENDMDL
MODEL 2
REMARK VINA RESULT:      -8.4      0.825      1.021
REMARK  Name = 
REMARK  6 active torsions:
REMARK  status: ('A' for Active; 'I' for Inactive)
REMARK    1  A    between atoms: C_8  and  C_9
REMARK    2  A    between atoms: C_9  and  C_11
REMARK    3  A    between atoms: C_11  and  O_12
REMARK    4  A    between atoms: O_12  and  C_13
REMARK    5  A    between atoms: C_13  and  C_15
REMARK    6  A    between atoms: C_16  and  C_17
REMARK                            x       y       z     vdW  Elec       q    Type
REMARK                         _______ _______ _______ _____ _____    ______ ____
ROOT
ATOM      1  C   UNL     1       7.125   4.776  18.060  0.00  0.00    +0.000 C 
ATOM      2  O   UNL     1       7.926   4.306  17.249  0.00  0.00    +0.000 OA
ENDROOT
BRANCH   1  10
ATOM      3  O   UNL     1       1.064   2.555  21.339  0.00  0.00    +0.000 OA
ATOM      4  C   UNL     1       1.659   2.857  20.313  0.00  0.00    +0.000 C 
ATOM      5  C   UNL     1       0.983   2.963  18.946  0.00  0.00    +0.000 C 
ATOM      6  O   UNL     1       1.780   2.875  17.774  0.00  0.00    +0.000 OA
ATOM      7  C   UNL     1       3.054   3.351  17.924  0.00  0.00    +0.000 A 
ATOM      8  C   UNL     1       3.758   3.614  16.755  0.00  0.00    +0.000 A 
ATOM      9  C   UNL     1       5.077   4.076  16.824  0.00  0.00    +0.000 A 
ATOM     10  C   UNL     1       5.711   4.268  18.064  0.00  0.00    +0.000 A 
ATOM     11  C   UNL     1       5.002   3.979  19.240  0.00  0.00    +0.000 A 
ATOM     12  C   UNL     1       3.677   3.526  19.162  0.00  0.00    +0.000 A 
ATOM     13  N   UNL     1       2.983   3.215  20.334  0.00  0.00    +0.000 N 
ATOM     14  H   UNL     1       3.430   3.230  21.240  0.00  0.00    +0.000 HD
ENDBRANCH   1  10
BRANCH   1  15
ATOM     15  C   UNL     1       7.521   5.863  19.055  0.00  0.00    +0.000 C 
BRANCH  15  16
ATOM     16  O   UNL     1       8.335   6.881  18.460  0.00  0.00    +0.000 OA
BRANCH  16  17
ATOM     17  C   UNL     1       7.650   7.796  17.724  0.00  0.00    +0.000 C 
ATOM     18  O   UNL     1       6.567   7.618  17.185  0.00  0.00    +0.000 OA
BRANCH  17  19
ATOM     19  C   UNL     1       8.387   9.070  17.690  0.00  0.00    +0.000 C 
ATOM     20  C   UNL     1       8.763   9.650  18.841  0.00  0.00    +0.000 C 
BRANCH  20  21
ATOM     21  C   UNL     1       9.464  10.890  18.846  0.00  0.00    +0.000 A 
ATOM     22  C   UNL     1      10.261  11.460  17.855  0.00  0.00    +0.000 A 
ATOM     23  C   UNL     1      10.731  12.707  18.339  0.00  0.00    +0.000 A 
ATOM     24  C   UNL     1      10.207  12.841  19.598  0.00  0.00    +0.000 A 
ATOM     25 BR   UNL     1      10.492  14.288  20.739  0.00  0.00    +0.000 Br
ATOM     26  O   UNL     1       9.442  11.766  19.907  0.00  0.00    +0.000 OA
ENDBRANCH  20  21
ENDBRANCH  17  19
ENDBRANCH  16  17
ENDBRANCH  15  16
ENDBRANCH   1  15
TORSDOF 6
ENDMDL
MODEL 3
REMARK VINA RESULT:      -8.2      1.539      1.775
REMARK  Name = 
REMARK  6 active torsions:
REMARK  status: ('A' for Active; 'I' for Inactive)
REMARK    1  A    between atoms: C_8  and  C_9
REMARK    2  A    between atoms: C_9  and  C_11
REMARK    3  A    between atoms: C_11  and  O_12
REMARK    4  A    between atoms: O_12  and  C_13
REMARK    5  A    between atoms: C_13  and  C_15
REMARK    6  A    between atoms: C_16  and  C_17
REMARK                            x       y       z     vdW  Elec       q    Type
REMARK                         _______ _______ _______ _____ _____    ______ ____
ROOT
ATOM      1  C   UNL     1       6.810   4.811  17.590  0.00  0.00    +0.000 C 
ATOM      2  O   UNL     1       7.757   4.231  18.126  0.00  0.00    +0.000 OA
ENDROOT
BRANCH   1  10
ATOM      3  O   UNL     1       1.597   2.497  22.050  0.00  0.00    +0.000 OA
ATOM      4  C   UNL     1       1.944   2.877  20.939  0.00  0.00    +0.000 C 
ATOM      5  C   UNL     1       0.966   3.140  19.794  0.00  0.00    +0.000 C 
ATOM      6  O   UNL     1       1.452   3.139  18.460  0.00  0.00    +0.000 OA
ATOM      7  C   UNL     1       2.749   3.552  18.333  0.00  0.00    +0.000 A 
ATOM      8  C   UNL     1       3.166   3.902  17.054  0.00  0.00    +0.000 A 
ATOM      9  C   UNL     1       4.487   4.309  16.838  0.00  0.00    +0.000 A 
ATOM     10  C   UNL     1       5.411   4.356  17.896  0.00  0.00    +0.000 A 
ATOM     11  C   UNL     1       4.990   3.979  19.181  0.00  0.00    +0.000 A 
ATOM     12  C   UNL     1       3.661   3.582  19.391  0.00  0.00    +0.000 A 
ATOM     13  N   UNL     1       3.253   3.184  20.665  0.00  0.00    +0.000 N 
ATOM     14  H   UNL     1       3.905   3.094  21.432  0.00  0.00    +0.000 HD
ENDBRANCH   1  10
BRANCH   1  15
ATOM     15  C   UNL     1       7.013   5.970  16.619  0.00  0.00    +0.000 C 
BRANCH  15  16
ATOM     16  O   UNL     1       6.760   7.244  17.225  0.00  0.00    +0.000 OA
BRANCH  16  17
ATOM     17  C   UNL     1       7.767   7.710  18.008  0.00  0.00    +0.000 C 
ATOM     18  O   UNL     1       8.394   7.060  18.834  0.00  0.00    +0.000 OA
BRANCH  17  19
ATOM     19  C   UNL     1       8.034   9.124  17.700  0.00  0.00    +0.000 C 
ATOM     20  C   UNL     1       8.958   9.795  18.408  0.00  0.00    +0.000 C 
BRANCH  20  21
ATOM     21  C   UNL     1       9.232  11.168  18.147  0.00  0.00    +0.000 A 
ATOM     22  C   UNL     1      10.433  11.779  17.792  0.00  0.00    +0.000 A 
ATOM     23  C   UNL     1      10.187  13.167  17.640  0.00  0.00    +0.000 A 
ATOM     24  C   UNL     1       8.854  13.341  17.911  0.00  0.00    +0.000 A 
ATOM     25 BR   UNL     1       7.950  14.972  17.882  0.00  0.00    +0.000 Br
ATOM     26  O   UNL     1       8.273  12.154  18.207  0.00  0.00    +0.000 OA
ENDBRANCH  20  21
ENDBRANCH  17  19
ENDBRANCH  16  17
ENDBRANCH  15  16
ENDBRANCH   1  15
TORSDOF 6
ENDMDL
MODEL 4
REMARK VINA RESULT:      -8.2      4.597      5.273
REMARK  Name = 
REMARK  6 active torsions:
REMARK  status: ('A' for Active; 'I' for Inactive)
REMARK    1  A    between atoms: C_8  and  C_9
REMARK    2  A    between atoms: C_9  and  C_11
REMARK    3  A    between atoms: C_11  and  O_12
REMARK    4  A    between atoms: O_12  and  C_13
REMARK    5  A    between atoms: C_13  and  C_15
REMARK    6  A    between atoms: C_16  and  C_17
REMARK                            x       y       z     vdW  Elec       q    Type
REMARK                         _______ _______ _______ _____ _____    ______ ____
ROOT
ATOM      1  C   UNL     1       6.613   4.507  17.693  0.00  0.00    +0.000 C 
ATOM      2  O   UNL     1       7.526   4.323  18.502  0.00  0.00    +0.000 OA
ENDROOT
BRANCH   1  10
ATOM      3  O   UNL     1       1.372   2.491  22.263  0.00  0.00    +0.000 OA
ATOM      4  C   UNL     1       1.747   2.716  21.119  0.00  0.00    +0.000 C 
ATOM      5  C   UNL     1       0.814   2.703  19.909  0.00  0.00    +0.000 C 
ATOM      6  O   UNL     1       1.369   2.529  18.614  0.00  0.00    +0.000 OA
ATOM      7  C   UNL     1       2.634   3.029  18.472  0.00  0.00    +0.000 A 
ATOM      8  C   UNL     1       3.089   3.205  17.170  0.00  0.00    +0.000 A 
ATOM      9  C   UNL     1       4.382   3.686  16.943  0.00  0.00    +0.000 A 
ATOM     10  C   UNL     1       5.241   3.985  18.015  0.00  0.00    +0.000 A 
ATOM     11  C   UNL     1       4.784   3.784  19.327  0.00  0.00    +0.000 A 
ATOM     12  C   UNL     1       3.482   3.311  19.546  0.00  0.00    +0.000 A 
ATOM     13  N   UNL     1       3.039   3.089  20.852  0.00  0.00    +0.000 N 
ATOM     14  H   UNL     1       3.654   3.183  21.648  0.00  0.00    +0.000 HD
ENDBRANCH   1  10
BRANCH   1  15
ATOM     15  C   UNL     1       6.834   5.240  16.374  0.00  0.00    +0.000 C 
BRANCH  15  16
ATOM     16  O   UNL     1       6.565   6.643  16.474  0.00  0.00    +0.000 OA
BRANCH  16  17
ATOM     17  C   UNL     1       5.277   6.994  16.217  0.00  0.00    +0.000 C 
ATOM     18  O   UNL     1       4.781   7.142  15.109  0.00  0.00    +0.000 OA
BRANCH  17  19
ATOM     19  C   UNL     1       4.533   7.141  17.478  0.00  0.00    +0.000 C 
ATOM     20  C   UNL     1       3.257   7.562  17.451  0.00  0.00    +0.000 C 
BRANCH  20  21
ATOM     21  C   UNL     1       2.511   7.731  18.652  0.00  0.00    +0.000 A 
ATOM     22  C   UNL     1       2.402   6.882  19.753  0.00  0.00    +0.000 A 
ATOM     23  C   UNL     1       1.544   7.502  20.696  0.00  0.00    +0.000 A 
ATOM     24  C   UNL     1       1.166   8.692  20.131  0.00  0.00    +0.000 A 
ATOM     25 BR   UNL     1       0.021   9.942  20.909  0.00  0.00    +0.000 Br
ATOM     26  O   UNL     1       1.744   8.843  18.915  0.00  0.00    +0.000 OA
ENDBRANCH  20  21
ENDBRANCH  17  19
ENDBRANCH  16  17
ENDBRANCH  15  16
ENDBRANCH   1  15
TORSDOF 6
ENDMDL
MODEL 5
REMARK VINA RESULT:      -8.0      3.763      7.137
REMARK  Name = 
REMARK  6 active torsions:
REMARK  status: ('A' for Active; 'I' for Inactive)
REMARK    1  A    between atoms: C_8  and  C_9
REMARK    2  A    between atoms: C_9  and  C_11
REMARK    3  A    between atoms: C_11  and  O_12
REMARK    4  A    between atoms: O_12  and  C_13
REMARK    5  A    between atoms: C_13  and  C_15
REMARK    6  A    between atoms: C_16  and  C_17
REMARK                            x       y       z     vdW  Elec       q    Type
REMARK                         _______ _______ _______ _____ _____    ______ ____
ROOT
ATOM      1  C   UNL     1       3.506   2.405  18.563  0.00  0.00    +0.000 C 
ATOM      2  O   UNL     1       2.789   1.760  17.795  0.00  0.00    +0.000 OA
ENDROOT
BRANCH   1  10
ATOM      3  O   UNL     1       8.639   7.491  19.006  0.00  0.00    +0.000 OA
ATOM      4  C   UNL     1       7.797   6.896  18.346  0.00  0.00    +0.000 C 
ATOM      5  C   UNL     1       7.601   7.102  16.844  0.00  0.00    +0.000 C 
ATOM      6  O   UNL     1       6.362   6.737  16.255  0.00  0.00    +0.000 OA
ATOM      7  C   UNL     1       5.735   5.688  16.868  0.00  0.00    +0.000 A 
ATOM      8  C   UNL     1       4.720   5.067  16.149  0.00  0.00    +0.000 A 
ATOM      9  C   UNL     1       4.012   4.004  16.720  0.00  0.00    +0.000 A 
ATOM     10  C   UNL     1       4.302   3.558  18.020  0.00  0.00    +0.000 A 
ATOM     11  C   UNL     1       5.313   4.204  18.750  0.00  0.00    +0.000 A 
ATOM     12  C   UNL     1       6.025   5.262  18.167  0.00  0.00    +0.000 A 
ATOM     13  N   UNL     1       7.013   5.919  18.904  0.00  0.00    +0.000 N 
ATOM     14  H   UNL     1       7.181   5.709  19.878  0.00  0.00    +0.000 HD
ENDBRANCH   1  10
BRANCH   1  15
ATOM     15  C   UNL     1       3.618   2.063  20.046  0.00  0.00    +0.000 C 
BRANCH  15  16
ATOM     16  O   UNL     1       3.171   3.131  20.890  0.00  0.00    +0.000 OA
BRANCH  16  17
ATOM     17  C   UNL     1       1.841   3.397  20.812  0.00  0.00    +0.000 C 
ATOM     18  O   UNL     1       0.948   2.756  21.349  0.00  0.00    +0.000 OA
BRANCH  17  19
ATOM     19  C   UNL     1       1.614   4.607  20.005  0.00  0.00    +0.000 C 
ATOM     20  C   UNL     1       2.339   5.712  20.246  0.00  0.00    +0.000 C 
BRANCH  20  21
ATOM     21  C   UNL     1       2.136   6.905  19.495  0.00  0.00    +0.000 A 
ATOM     22  C   UNL     1       2.370   7.150  18.144  0.00  0.00    +0.000 A 
ATOM     23  C   UNL     1       2.004   8.493  17.876  0.00  0.00    +0.000 A 
ATOM     24  C   UNL     1       1.568   9.007  19.070  0.00  0.00    +0.000 A 
ATOM     25 BR   UNL     1       0.963  10.750  19.340  0.00  0.00    +0.000 Br
ATOM     26  O   UNL     1       1.634   8.065  20.041  0.00  0.00    +0.000 OA
ENDBRANCH  20  21
ENDBRANCH  17  19
ENDBRANCH  16  17
ENDBRANCH  15  16
ENDBRANCH   1  15
TORSDOF 6
ENDMDL
MODEL 6
REMARK VINA RESULT:      -7.9      1.388      1.852
REMARK  Name = 
REMARK  6 active torsions:
REMARK  status: ('A' for Active; 'I' for Inactive)
REMARK    1  A    between atoms: C_8  and  C_9
REMARK    2  A    between atoms: C_9  and  C_11
REMARK    3  A    between atoms: C_11  and  O_12
REMARK    4  A    between atoms: O_12  and  C_13
REMARK    5  A    between atoms: C_13  and  C_15
REMARK    6  A    between atoms: C_16  and  C_17
REMARK                            x       y       z     vdW  Elec       q    Type
REMARK                         _______ _______ _______ _____ _____    ______ ____
ROOT
ATOM      1  C   UNL     1       4.980   6.451  17.349  0.00  0.00    +0.000 C 
ATOM      2  O   UNL     1       4.460   7.568  17.297  0.00  0.00    +0.000 OA
ENDROOT
BRANCH   1  10
ATOM      3  O   UNL     1       1.446   2.690  22.426  0.00  0.00    +0.000 OA
ATOM      4  C   UNL     1       1.750   2.850  21.250  0.00  0.00    +0.000 C 
ATOM      5  C   UNL     1       1.163   2.022  20.107  0.00  0.00    +0.000 C 
ATOM      6  O   UNL     1       1.866   1.953  18.876  0.00  0.00    +0.000 OA
ATOM      7  C   UNL     1       2.594   3.073  18.580  0.00  0.00    +0.000 A 
ATOM      8  C   UNL     1       3.011   3.210  17.261  0.00  0.00    +0.000 A 
ATOM      9  C   UNL     1       3.783   4.314  16.885  0.00  0.00    +0.000 A 
ATOM     10  C   UNL     1       4.158   5.288  17.827  0.00  0.00    +0.000 A 
ATOM     11  C   UNL     1       3.753   5.132  19.162  0.00  0.00    +0.000 A 
ATOM     12  C   UNL     1       2.970   4.027  19.528  0.00  0.00    +0.000 A 
ATOM     13  N   UNL     1       2.590   3.862  20.862  0.00  0.00    +0.000 N 
ATOM     14  H   UNL     1       2.927   4.472  21.593  0.00  0.00    +0.000 HD
ENDBRANCH   1  10
BRANCH   1  15
ATOM     15  C   UNL     1       6.433   6.214  16.951  0.00  0.00    +0.000 C 
BRANCH  15  16
ATOM     16  O   UNL     1       7.156   7.436  16.761  0.00  0.00    +0.000 OA
BRANCH  16  17
ATOM     17  C   UNL     1       7.899   7.829  17.829  0.00  0.00    +0.000 C 
ATOM     18  O   UNL     1       8.225   7.124  18.775  0.00  0.00    +0.000 OA
BRANCH  17  19
ATOM     19  C   UNL     1       8.298   9.237  17.677  0.00  0.00    +0.000 C 
ATOM     20  C   UNL     1       8.952   9.853  18.676  0.00  0.00    +0.000 C 
BRANCH  20  21
ATOM     21  C   UNL     1       9.340  11.219  18.570  0.00  0.00    +0.000 A 
ATOM     22  C   UNL     1       8.737  12.258  17.862  0.00  0.00    +0.000 A 
ATOM     23  C   UNL     1       9.502  13.432  18.078  0.00  0.00    +0.000 A 
ATOM     24  C   UNL     1      10.535  13.059  18.899  0.00  0.00    +0.000 A 
ATOM     25 BR   UNL     1      11.883  14.188  19.520  0.00  0.00    +0.000 Br
ATOM     26  O   UNL     1      10.443  11.743  19.206  0.00  0.00    +0.000 OA
ENDBRANCH  20  21
ENDBRANCH  17  19
ENDBRANCH  16  17
ENDBRANCH  15  16
ENDBRANCH   1  15
TORSDOF 6
ENDMDL
MODEL 7
REMARK VINA RESULT:      -7.9      4.458      4.782
REMARK  Name = 
REMARK  6 active torsions:
REMARK  status: ('A' for Active; 'I' for Inactive)
REMARK    1  A    between atoms: C_8  and  C_9
REMARK    2  A    between atoms: C_9  and  C_11
REMARK    3  A    between atoms: C_11  and  O_12
REMARK    4  A    between atoms: O_12  and  C_13
REMARK    5  A    between atoms: C_13  and  C_15
REMARK    6  A    between atoms: C_16  and  C_17
REMARK                            x       y       z     vdW  Elec       q    Type
REMARK                         _______ _______ _______ _____ _____    ______ ____
ROOT
ATOM      1  C   UNL     1       3.336   6.355  17.887  0.00  0.00    +0.000 C 
ATOM      2  O   UNL     1       2.984   5.179  18.009  0.00  0.00    +0.000 OA
ENDROOT
BRANCH   1  10
ATOM      3  O   UNL     1       0.360   9.624  23.621  0.00  0.00    +0.000 OA
ATOM      4  C   UNL     1       0.607   9.614  22.422  0.00  0.00    +0.000 C 
ATOM      5  C   UNL     1       0.303  10.786  21.489  0.00  0.00    +0.000 C 
ATOM      6  O   UNL     1       0.199  10.545  20.093  0.00  0.00    +0.000 OA
ATOM      7  C   UNL     1       0.983   9.520  19.639  0.00  0.00    +0.000 A 
ATOM      8  C   UNL     1       1.192   9.462  18.266  0.00  0.00    +0.000 A 
ATOM      9  C   UNL     1       1.959   8.427  17.721  0.00  0.00    +0.000 A 
ATOM     10  C   UNL     1       2.515   7.430  18.542  0.00  0.00    +0.000 A 
ATOM     11  C   UNL     1       2.281   7.482  19.925  0.00  0.00    +0.000 A 
ATOM     12  C   UNL     1       1.519   8.529  20.465  0.00  0.00    +0.000 A 
ATOM     13  N   UNL     1       1.267   8.563  21.837  0.00  0.00    +0.000 N 
ATOM     14  H   UNL     1       1.549   7.813  22.452  0.00  0.00    +0.000 HD
ENDBRANCH   1  10
BRANCH   1  15
ATOM     15  C   UNL     1       4.571   6.754  17.087  0.00  0.00    +0.000 C 
BRANCH  15  16
ATOM     16  O   UNL     1       5.791   6.442  17.769  0.00  0.00    +0.000 OA
BRANCH  16  17
ATOM     17  C   UNL     1       6.921   6.720  17.066  0.00  0.00    +0.000 C 
ATOM     18  O   UNL     1       7.493   5.961  16.296  0.00  0.00    +0.000 OA
BRANCH  17  19
ATOM     19  C   UNL     1       7.357   8.100  17.335  0.00  0.00    +0.000 C 
ATOM     20  C   UNL     1       8.288   8.331  18.275  0.00  0.00    +0.000 C 
BRANCH  20  21
ATOM     21  C   UNL     1       8.722   9.654  18.572  0.00  0.00    +0.000 A 
ATOM     22  C   UNL     1       9.554  10.104  19.596  0.00  0.00    +0.000 A 
ATOM     23  C   UNL     1       9.687  11.509  19.463  0.00  0.00    +0.000 A 
ATOM     24  C   UNL     1       8.931  11.854  18.372  0.00  0.00    +0.000 A 
ATOM     25 BR   UNL     1       8.712  13.585  17.714  0.00  0.00    +0.000 Br
ATOM     26  O   UNL     1       8.358  10.754  17.828  0.00  0.00    +0.000 OA
ENDBRANCH  20  21
ENDBRANCH  17  19
ENDBRANCH  16  17
ENDBRANCH  15  16
ENDBRANCH   1  15
TORSDOF 6
ENDMDL
MODEL 8
REMARK VINA RESULT:      -7.9      1.769      2.229
REMARK  Name = 
REMARK  6 active torsions:
REMARK  status: ('A' for Active; 'I' for Inactive)
REMARK    1  A    between atoms: C_8  and  C_9
REMARK    2  A    between atoms: C_9  and  C_11
REMARK    3  A    between atoms: C_11  and  O_12
REMARK    4  A    between atoms: O_12  and  C_13
REMARK    5  A    between atoms: C_13  and  C_15
REMARK    6  A    between atoms: C_16  and  C_17
REMARK                            x       y       z     vdW  Elec       q    Type
REMARK                         _______ _______ _______ _____ _____    ______ ____
ROOT
ATOM      1  C   UNL     1       5.303   6.279  16.138  0.00  0.00    +0.000 C 
ATOM      2  O   UNL     1       4.960   6.961  15.170  0.00  0.00    +0.000 OA
ENDROOT
BRANCH   1  10
ATOM      3  O   UNL     1       1.108   1.603  19.737  0.00  0.00    +0.000 OA
ATOM      4  C   UNL     1       1.545   2.738  19.597  0.00  0.00    +0.000 C 
ATOM      5  C   UNL     1       1.273   3.873  20.584  0.00  0.00    +0.000 C 
ATOM      6  O   UNL     1       1.422   5.216  20.146  0.00  0.00    +0.000 OA
ATOM      7  C   UNL     1       2.373   5.390  19.180  0.00  0.00    +0.000 A 
ATOM      8  C   UNL     1       2.807   6.693  18.965  0.00  0.00    +0.000 A 
ATOM      9  C   UNL     1       3.759   6.956  17.974  0.00  0.00    +0.000 A 
ATOM     10  C   UNL     1       4.277   5.921  17.177  0.00  0.00    +0.000 A 
ATOM     11  C   UNL     1       3.818   4.611  17.383  0.00  0.00    +0.000 A 
ATOM     12  C   UNL     1       2.872   4.354  18.386  0.00  0.00    +0.000 A 
ATOM     13  N   UNL     1       2.399   3.053  18.572  0.00  0.00    +0.000 N 
ATOM     14  H   UNL     1       2.657   2.297  17.954  0.00  0.00    +0.000 HD
ENDBRANCH   1  10
BRANCH   1  15
ATOM     15  C   UNL     1       6.738   5.792  16.320  0.00  0.00    +0.000 C 
BRANCH  15  16
ATOM     16  O   UNL     1       7.662   6.870  16.509  0.00  0.00    +0.000 OA
BRANCH  16  17
ATOM     17  C   UNL     1       7.841   7.244  17.804  0.00  0.00    +0.000 C 
ATOM     18  O   UNL     1       7.592   6.562  18.789  0.00  0.00    +0.000 OA
BRANCH  17  19
ATOM     19  C   UNL     1       8.418   8.596  17.865  0.00  0.00    +0.000 C 
ATOM     20  C   UNL     1       8.754   9.122  19.054  0.00  0.00    +0.000 C 
BRANCH  20  21
ATOM     21  C   UNL     1       9.301  10.433  19.152  0.00  0.00    +0.000 A 
ATOM     22  C   UNL     1       9.583  11.192  20.286  0.00  0.00    +0.000 A 
ATOM     23  C   UNL     1      10.122  12.431  19.857  0.00  0.00    +0.000 A 
ATOM     24  C   UNL     1      10.140  12.376  18.488  0.00  0.00    +0.000 A 
ATOM     25 BR   UNL     1      10.738  13.736  17.360  0.00  0.00    +0.000 Br
ATOM     26  O   UNL     1       9.661  11.185  18.056  0.00  0.00    +0.000 OA
ENDBRANCH  20  21
ENDBRANCH  17  19
ENDBRANCH  16  17
ENDBRANCH  15  16
ENDBRANCH   1  15
TORSDOF 6
ENDMDL
MODEL 9
REMARK VINA RESULT:      -7.9      4.505      5.168
REMARK  Name = 
REMARK  6 active torsions:
REMARK  status: ('A' for Active; 'I' for Inactive)
REMARK    1  A    between atoms: C_8  and  C_9
REMARK    2  A    between atoms: C_9  and  C_11
REMARK    3  A    between atoms: C_11  and  O_12
REMARK    4  A    between atoms: O_12  and  C_13
REMARK    5  A    between atoms: C_13  and  C_15
REMARK    6  A    between atoms: C_16  and  C_17
REMARK                            x       y       z     vdW  Elec       q    Type
REMARK                         _______ _______ _______ _____ _____    ______ ____
ROOT
ATOM      1  C   UNL     1       6.641   4.840  18.460  0.00  0.00    +0.000 C 
ATOM      2  O   UNL     1       7.282   5.117  19.476  0.00  0.00    +0.000 OA
ENDROOT
BRANCH   1  10
ATOM      3  O   UNL     1       1.006   2.411  22.303  0.00  0.00    +0.000 OA
ATOM      4  C   UNL     1       1.534   2.617  21.217  0.00  0.00    +0.000 C 
ATOM      5  C   UNL     1       0.822   2.409  19.880  0.00  0.00    +0.000 C 
ATOM      6  O   UNL     1       1.600   2.235  18.706  0.00  0.00    +0.000 OA
ATOM      7  C   UNL     1       2.800   2.891  18.724  0.00  0.00    +0.000 A 
ATOM      8  C   UNL     1       3.438   3.049  17.499  0.00  0.00    +0.000 A 
ATOM      9  C   UNL     1       4.683   3.685  17.438  0.00  0.00    +0.000 A 
ATOM     10  C   UNL     1       5.309   4.158  18.604  0.00  0.00    +0.000 A 
ATOM     11  C   UNL     1       4.670   3.976  19.840  0.00  0.00    +0.000 A 
ATOM     12  C   UNL     1       3.418   3.346  19.891  0.00  0.00    +0.000 A 
ATOM     13  N   UNL     1       2.797   3.144  21.125  0.00  0.00    +0.000 N 
ATOM     14  H   UNL     1       3.256   3.366  21.997  0.00  0.00    +0.000 HD
ENDBRANCH   1  10
BRANCH   1  15
ATOM     15  C   UNL     1       7.160   5.158  17.061  0.00  0.00    +0.000 C 
BRANCH  15  16
ATOM     16  O   UNL     1       6.860   6.499  16.656  0.00  0.00    +0.000 OA
BRANCH  16  17
ATOM     17  C   UNL     1       5.623   6.666  16.119  0.00  0.00    +0.000 C 
ATOM     18  O   UNL     1       5.230   6.194  15.061  0.00  0.00    +0.000 OA
BRANCH  17  19
ATOM     19  C   UNL     1       4.787   7.479  17.018  0.00  0.00    +0.000 C 
ATOM     20  C   UNL     1       3.491   7.169  17.181  0.00  0.00    +0.000 C 
BRANCH  20  21
ATOM     21  C   UNL     1       2.650   7.943  18.030  0.00  0.00    +0.000 A 
ATOM     22  C   UNL     1       1.924   9.098  17.743  0.00  0.00    +0.000 A 
ATOM     23  C   UNL     1       1.240   9.486  18.922  0.00  0.00    +0.000 A 
ATOM     24  C   UNL     1       1.579   8.559  19.873  0.00  0.00    +0.000 A 
ATOM     25 BR   UNL     1       0.987   8.558  21.641  0.00  0.00    +0.000 Br
ATOM     26  O   UNL     1       2.413   7.629  19.349  0.00  0.00    +0.000 OA
ENDBRANCH  20  21
ENDBRANCH  17  19
ENDBRANCH  16  17
ENDBRANCH  15  16
ENDBRANCH   1  15
TORSDOF 6
ENDMDL
