MODEL 1
REMARK VINA RESULT:      -7.2      0.000      0.000
REMARK  Name = 
REMARK  4 active torsions:
REMARK  status: ('A' for Active; 'I' for Inactive)
REMARK    1  A    between atoms: C_1  and  N_2
REMARK    2  A    between atoms: N_2  and  C_3
REMARK    3  A    between atoms: C_3  and  C_4
REMARK    4  A    between atoms: C_4  and  N_5
REMARK                            x       y       z     vdW  Elec       q    Type
REMARK                         _______ _______ _______ _____ _____    ______ ____
ROOT
ATOM      1  C   UNL     1       0.341   8.996  20.652  0.00  0.00    +0.000 C 
ATOM      2  N   UNL     1       1.240   9.273  19.544  0.00  0.00    +0.000 N 
ATOM      3  C   UNL     1       2.056   8.352  18.892  0.00  0.00    +0.000 C 
ATOM      4  O   UNL     1       2.654   8.683  17.854  0.00  0.00    +0.000 OA
ATOM      5  N   UNL     1       2.195   7.042  19.356  0.00  0.00    +0.000 N 
ATOM      6  C   UNL     1       1.714   6.489  20.631  0.00  0.00    +0.000 C 
ATOM      7  C   UNL     1       2.319   5.158  21.061  0.00  0.00    +0.000 C 
ATOM      8  C   UNL     1       2.189   4.183  19.934  0.00  0.00    +0.000 A 
ATOM      9  C   UNL     1       1.787   2.860  20.139  0.00  0.00    +0.000 A 
ATOM     10  C   UNL     1       1.669   1.998  19.052  0.00  0.00    +0.000 A 
ATOM     11  C   UNL     1       1.979   2.450  17.768  0.00  0.00    +0.000 A 
ATOM     12  C   UNL     1       2.392   3.768  17.563  0.00  0.00    +0.000 A 
ATOM     13  C   UNL     1       2.478   4.655  18.642  0.00  0.00    +0.000 A 
ATOM     14  C   UNL     1       2.906   6.100  18.468  0.00  0.00    +0.000 C 
ENDROOT
BRANCH   2  15
ATOM     15  C   UNL     1       1.019  10.549  18.830  0.00  0.00    +0.000 C 
BRANCH  15  16
ATOM     16  C   UNL     1      -0.248  11.390  19.175  0.00  0.00    +0.000 C 
BRANCH  16  17
ATOM     17  N   UNL     1      -1.332  11.341  18.168  0.00  0.00    +0.000 NA
ATOM     18  C   UNL     1      -1.343  10.031  17.493  0.00  0.00    +0.000 C 
ATOM     19  C   UNL     1      -2.430   9.962  16.422  0.00  0.00    +0.000 C 
ATOM     20  C   UNL     1      -3.802  10.267  17.006  0.00  0.00    +0.000 C 
ATOM     21  C   UNL     1      -3.771  11.589  17.764  0.00  0.00    +0.000 C 
ATOM     22  C   UNL     1      -2.636  11.615  18.794  0.00  0.00    +0.000 C 
ENDBRANCH  16  17
ENDBRANCH  15  16
ENDBRANCH   2  15
TORSDOF 3
ENDMDL
MODEL 2
REMARK VINA RESULT:      -7.1      0.385      1.116
REMARK  Name = 
REMARK  4 active torsions:
REMARK  status: ('A' for Active; 'I' for Inactive)
REMARK    1  A    between atoms: C_1  and  N_2
REMARK    2  A    between atoms: N_2  and  C_3
REMARK    3  A    between atoms: C_3  and  C_4
REMARK    4  A    between atoms: C_4  and  N_5
REMARK                            x       y       z     vdW  Elec       q    Type
REMARK                         _______ _______ _______ _____ _____    ______ ____
ROOT
ATOM      1  C   UNL     1       0.326   8.852  20.930  0.00  0.00    +0.000 C 
ATOM      2  N   UNL     1       1.135   9.190  19.771  0.00  0.00    +0.000 N 
ATOM      3  C   UNL     1       1.934   8.316  19.037  0.00  0.00    +0.000 C 
ATOM      4  O   UNL     1       2.445   8.696  17.970  0.00  0.00    +0.000 OA
ATOM      5  N   UNL     1       2.150   7.001  19.452  0.00  0.00    +0.000 N 
ATOM      6  C   UNL     1       1.780   6.398  20.742  0.00  0.00    +0.000 C 
ATOM      7  C   UNL     1       2.459   5.079  21.090  0.00  0.00    +0.000 C 
ATOM      8  C   UNL     1       2.283   4.129  19.946  0.00  0.00    +0.000 A 
ATOM      9  C   UNL     1       1.943   2.788  20.141  0.00  0.00    +0.000 A 
ATOM     10  C   UNL     1       1.777   1.951  19.041  0.00  0.00    +0.000 A 
ATOM     11  C   UNL     1       1.980   2.448  17.752  0.00  0.00    +0.000 A 
ATOM     12  C   UNL     1       2.332   3.785  17.556  0.00  0.00    +0.000 A 
ATOM     13  C   UNL     1       2.464   4.645  18.652  0.00  0.00    +0.000 A 
ATOM     14  C   UNL     1       2.828   6.109  18.490  0.00  0.00    +0.000 C 
ENDROOT
BRANCH   2  15
ATOM     15  C   UNL     1       0.820  10.476  19.111  0.00  0.00    +0.000 C 
BRANCH  15  16
ATOM     16  C   UNL     1      -0.436  11.271  19.582  0.00  0.00    +0.000 C 
BRANCH  16  17
ATOM     17  N   UNL     1      -1.716  10.850  18.970  0.00  0.00    +0.000 NA
ATOM     18  C   UNL     1      -2.636  11.997  18.871  0.00  0.00    +0.000 C 
ATOM     19  C   UNL     1      -3.981  11.587  18.275  0.00  0.00    +0.000 C 
ATOM     20  C   UNL     1      -3.805  10.931  16.913  0.00  0.00    +0.000 C 
ATOM     21  C   UNL     1      -2.799   9.790  17.001  0.00  0.00    +0.000 C 
ATOM     22  C   UNL     1      -1.487  10.251  17.645  0.00  0.00    +0.000 C 
ENDBRANCH  16  17
ENDBRANCH  15  16
ENDBRANCH   2  15
TORSDOF 3
ENDMDL
MODEL 3
REMARK VINA RESULT:      -6.8      5.292      7.679
REMARK  Name = 
REMARK  4 active torsions:
REMARK  status: ('A' for Active; 'I' for Inactive)
REMARK    1  A    between atoms: C_1  and  N_2
REMARK    2  A    between atoms: N_2  and  C_3
REMARK    3  A    between atoms: C_3  and  C_4
REMARK    4  A    between atoms: C_4  and  N_5
REMARK                            x       y       z     vdW  Elec       q    Type
REMARK                         _______ _______ _______ _____ _____    ______ ____
ROOT
ATOM      1  C   UNL     1       8.043   6.398  19.108  0.00  0.00    +0.000 C 
ATOM      2  N   UNL     1       7.361   6.878  17.917  0.00  0.00    +0.000 N 
ATOM      3  C   UNL     1       6.098   6.491  17.476  0.00  0.00    +0.000 C 
ATOM      4  O   UNL     1       5.561   7.098  16.534  0.00  0.00    +0.000 OA
ATOM      5  N   UNL     1       5.397   5.452  18.091  0.00  0.00    +0.000 N 
ATOM      6  C   UNL     1       5.899   4.508  19.101  0.00  0.00    +0.000 C 
ATOM      7  C   UNL     1       5.067   3.251  19.323  0.00  0.00    +0.000 C 
ATOM      8  C   UNL     1       3.646   3.650  19.574  0.00  0.00    +0.000 A 
ATOM      9  C   UNL     1       2.877   3.061  20.580  0.00  0.00    +0.000 A 
ATOM     10  C   UNL     1       1.564   3.480  20.780  0.00  0.00    +0.000 A 
ATOM     11  C   UNL     1       1.015   4.467  19.958  0.00  0.00    +0.000 A 
ATOM     12  C   UNL     1       1.780   5.048  18.945  0.00  0.00    +0.000 A 
ATOM     13  C   UNL     1       3.112   4.662  18.758  0.00  0.00    +0.000 A 
ATOM     14  C   UNL     1       3.989   5.276  17.682  0.00  0.00    +0.000 C 
ENDROOT
BRANCH   2  15
ATOM     15  C   UNL     1       7.894   8.121  17.319  0.00  0.00    +0.000 C 
BRANCH  15  16
ATOM     16  C   UNL     1       7.730   9.459  18.103  0.00  0.00    +0.000 C 
BRANCH  16  17
ATOM     17  N   UNL     1       8.937  10.315  18.152  0.00  0.00    +0.000 NA
ATOM     18  C   UNL     1       8.614  11.680  17.700  0.00  0.00    +0.000 C 
ATOM     19  C   UNL     1       9.849  12.579  17.706  0.00  0.00    +0.000 C 
ATOM     20  C   UNL     1      10.498  12.617  19.082  0.00  0.00    +0.000 C 
ATOM     21  C   UNL     1      10.767  11.202  19.579  0.00  0.00    +0.000 C 
ATOM     22  C   UNL     1       9.504  10.337  19.511  0.00  0.00    +0.000 C 
ENDBRANCH  16  17
ENDBRANCH  15  16
ENDBRANCH   2  15
TORSDOF 3
ENDMDL
MODEL 4
REMARK VINA RESULT:      -6.8      5.602      8.022
REMARK  Name = 
REMARK  4 active torsions:
REMARK  status: ('A' for Active; 'I' for Inactive)
REMARK    1  A    between atoms: C_1  and  N_2
REMARK    2  A    between atoms: N_2  and  C_3
REMARK    3  A    between atoms: C_3  and  C_4
REMARK    4  A    between atoms: C_4  and  N_5
REMARK                            x       y       z     vdW  Elec       q    Type
REMARK                         _______ _______ _______ _____ _____    ______ ____
ROOT
ATOM      1  C   UNL     1       7.401   4.729  18.041  0.00  0.00    +0.000 C 
ATOM      2  N   UNL     1       5.973   4.976  17.925  0.00  0.00    +0.000 N 
ATOM      3  C   UNL     1       5.224   4.958  16.751  0.00  0.00    +0.000 C 
ATOM      4  O   UNL     1       3.984   5.022  16.809  0.00  0.00    +0.000 OA
ATOM      5  N   UNL     1       5.830   4.833  15.500  0.00  0.00    +0.000 N 
ATOM      6  C   UNL     1       7.266   4.902  15.191  0.00  0.00    +0.000 C 
ATOM      7  C   UNL     1       7.633   5.118  13.728  0.00  0.00    +0.000 C 
ATOM      8  C   UNL     1       6.920   4.099  12.896  0.00  0.00    +0.000 A 
ATOM      9  C   UNL     1       7.555   3.414  11.856  0.00  0.00    +0.000 A 
ATOM     10  C   UNL     1       6.850   2.464  11.123  0.00  0.00    +0.000 A 
ATOM     11  C   UNL     1       5.505   2.220  11.410  0.00  0.00    +0.000 A 
ATOM     12  C   UNL     1       4.866   2.913  12.441  0.00  0.00    +0.000 A 
ATOM     13  C   UNL     1       5.575   3.842  13.210  0.00  0.00    +0.000 A 
ATOM     14  C   UNL     1       4.930   4.607  14.351  0.00  0.00    +0.000 C 
ENDROOT
BRANCH   2  15
ATOM     15  C   UNL     1       5.195   4.897  19.181  0.00  0.00    +0.000 C 
BRANCH  15  16
ATOM     16  C   UNL     1       4.927   3.495  19.808  0.00  0.00    +0.000 C 
BRANCH  16  17
ATOM     17  N   UNL     1       3.502   3.167  20.035  0.00  0.00    +0.000 NA
ATOM     18  C   UNL     1       2.728   4.395  20.287  0.00  0.00    +0.000 C 
ATOM     19  C   UNL     1       1.258   4.085  20.560  0.00  0.00    +0.000 C 
ATOM     20  C   UNL     1       0.638   3.296  19.416  0.00  0.00    +0.000 C 
ATOM     21  C   UNL     1       1.478   2.063  19.109  0.00  0.00    +0.000 C 
ATOM     22  C   UNL     1       2.948   2.430  18.886  0.00  0.00    +0.000 C 
ENDBRANCH  16  17
ENDBRANCH  15  16
ENDBRANCH   2  15
TORSDOF 3
ENDMDL
MODEL 5
REMARK VINA RESULT:      -6.7      2.149      3.257
REMARK  Name = 
REMARK  4 active torsions:
REMARK  status: ('A' for Active; 'I' for Inactive)
REMARK    1  A    between atoms: C_1  and  N_2
REMARK    2  A    between atoms: N_2  and  C_3
REMARK    3  A    between atoms: C_3  and  C_4
REMARK    4  A    between atoms: C_4  and  N_5
REMARK                            x       y       z     vdW  Elec       q    Type
REMARK                         _______ _______ _______ _____ _____    ______ ____
ROOT
ATOM      1  C   UNL     1       0.578   9.359  20.430  0.00  0.00    +0.000 C 
ATOM      2  N   UNL     1       1.375   9.485  19.221  0.00  0.00    +0.000 N 
ATOM      3  C   UNL     1       2.067   8.462  18.578  0.00  0.00    +0.000 C 
ATOM      4  O   UNL     1       2.575   8.667  17.462  0.00  0.00    +0.000 OA
ATOM      5  N   UNL     1       2.178   7.189  19.140  0.00  0.00    +0.000 N 
ATOM      6  C   UNL     1       1.798   6.775  20.500  0.00  0.00    +0.000 C 
ATOM      7  C   UNL     1       2.367   5.448  20.985  0.00  0.00    +0.000 C 
ATOM      8  C   UNL     1       2.069   4.393  19.965  0.00  0.00    +0.000 A 
ATOM      9  C   UNL     1       1.616   3.121  20.324  0.00  0.00    +0.000 A 
ATOM     10  C   UNL     1       1.339   2.182  19.334  0.00  0.00    +0.000 A 
ATOM     11  C   UNL     1       1.543   2.506  17.991  0.00  0.00    +0.000 A 
ATOM     12  C   UNL     1       2.008   3.773  17.632  0.00  0.00    +0.000 A 
ATOM     13  C   UNL     1       2.252   4.738  18.616  0.00  0.00    +0.000 A 
ATOM     14  C   UNL     1       2.741   6.133  18.275  0.00  0.00    +0.000 C 
ENDROOT
BRANCH   2  15
ATOM     15  C   UNL     1       1.156  10.710  18.422  0.00  0.00    +0.000 C 
BRANCH  15  16
ATOM     16  C   UNL     1       0.545  11.962  19.123  0.00  0.00    +0.000 C 
BRANCH  16  17
ATOM     17  N   UNL     1       1.431  13.145  19.187  0.00  0.00    +0.000 NA
ATOM     18  C   UNL     1       2.581  12.972  18.281  0.00  0.00    +0.000 C 
ATOM     19  C   UNL     1       3.534  14.164  18.352  0.00  0.00    +0.000 C 
ATOM     20  C   UNL     1       2.812  15.468  18.046  0.00  0.00    +0.000 C 
ATOM     21  C   UNL     1       1.583  15.612  18.935  0.00  0.00    +0.000 C 
ATOM     22  C   UNL     1       0.687  14.372  18.856  0.00  0.00    +0.000 C 
ENDBRANCH  16  17
ENDBRANCH  15  16
ENDBRANCH   2  15
TORSDOF 3
ENDMDL
MODEL 6
REMARK VINA RESULT:      -6.7      5.639      7.883
REMARK  Name = 
REMARK  4 active torsions:
REMARK  status: ('A' for Active; 'I' for Inactive)
REMARK    1  A    between atoms: C_1  and  N_2
REMARK    2  A    between atoms: N_2  and  C_3
REMARK    3  A    between atoms: C_3  and  C_4
REMARK    4  A    between atoms: C_4  and  N_5
REMARK                            x       y       z     vdW  Elec       q    Type
REMARK                         _______ _______ _______ _____ _____    ______ ____
ROOT
ATOM      1  C   UNL     1       7.566   4.748  17.928  0.00  0.00    +0.000 C 
ATOM      2  N   UNL     1       6.190   5.209  17.838  0.00  0.00    +0.000 N 
ATOM      3  C   UNL     1       5.413   5.270  16.684  0.00  0.00    +0.000 C 
ATOM      4  O   UNL     1       4.200   5.528  16.770  0.00  0.00    +0.000 OA
ATOM      5  N   UNL     1       5.955   5.013  15.424  0.00  0.00    +0.000 N 
ATOM      6  C   UNL     1       7.375   4.848  15.078  0.00  0.00    +0.000 C 
ATOM      7  C   UNL     1       7.727   4.957  13.599  0.00  0.00    +0.000 C 
ATOM      8  C   UNL     1       6.841   4.034  12.823  0.00  0.00    +0.000 A 
ATOM      9  C   UNL     1       7.332   3.225  11.794  0.00  0.00    +0.000 A 
ATOM     10  C   UNL     1       6.467   2.373  11.113  0.00  0.00    +0.000 A 
ATOM     11  C   UNL     1       5.109   2.351  11.442  0.00  0.00    +0.000 A 
ATOM     12  C   UNL     1       4.616   3.167  12.462  0.00  0.00    +0.000 A 
ATOM     13  C   UNL     1       5.482   3.999  13.179  0.00  0.00    +0.000 A 
ATOM     14  C   UNL     1       4.997   4.892  14.307  0.00  0.00    +0.000 C 
ENDROOT
BRANCH   2  15
ATOM     15  C   UNL     1       5.448   5.293  19.114  0.00  0.00    +0.000 C 
BRANCH  15  16
ATOM     16  C   UNL     1       4.764   4.006  19.668  0.00  0.00    +0.000 C 
BRANCH  16  17
ATOM     17  N   UNL     1       3.299   3.932  19.466  0.00  0.00    +0.000 NA
ATOM     18  C   UNL     1       2.966   2.831  18.545  0.00  0.00    +0.000 C 
ATOM     19  C   UNL     1       1.462   2.751  18.288  0.00  0.00    +0.000 C 
ATOM     20  C   UNL     1       0.686   2.605  19.589  0.00  0.00    +0.000 C 
ATOM     21  C   UNL     1       1.084   3.703  20.568  0.00  0.00    +0.000 C 
ATOM     22  C   UNL     1       2.604   3.763  20.753  0.00  0.00    +0.000 C 
ENDBRANCH  16  17
ENDBRANCH  15  16
ENDBRANCH   2  15
TORSDOF 3
ENDMDL
MODEL 7
REMARK VINA RESULT:      -6.6      2.152      3.068
REMARK  Name = 
REMARK  4 active torsions:
REMARK  status: ('A' for Active; 'I' for Inactive)
REMARK    1  A    between atoms: C_1  and  N_2
REMARK    2  A    between atoms: N_2  and  C_3
REMARK    3  A    between atoms: C_3  and  C_4
REMARK    4  A    between atoms: C_4  and  N_5
REMARK                            x       y       z     vdW  Elec       q    Type
REMARK                         _______ _______ _______ _____ _____    ______ ____
ROOT
ATOM      1  C   UNL     1       0.551   9.628  20.313  0.00  0.00    +0.000 C 
ATOM      2  N   UNL     1       1.343   9.670  19.096  0.00  0.00    +0.000 N 
ATOM      3  C   UNL     1       2.000   8.596  18.500  0.00  0.00    +0.000 C 
ATOM      4  O   UNL     1       2.506   8.730  17.373  0.00  0.00    +0.000 OA
ATOM      5  N   UNL     1       2.076   7.349  19.124  0.00  0.00    +0.000 N 
ATOM      6  C   UNL     1       1.692   7.015  20.504  0.00  0.00    +0.000 C 
ATOM      7  C   UNL     1       2.224   5.696  21.051  0.00  0.00    +0.000 C 
ATOM      8  C   UNL     1       1.887   4.602  20.087  0.00  0.00    +0.000 A 
ATOM      9  C   UNL     1       1.398   3.364  20.510  0.00  0.00    +0.000 A 
ATOM     10  C   UNL     1       1.087   2.386  19.569  0.00  0.00    +0.000 A 
ATOM     11  C   UNL     1       1.291   2.637  18.211  0.00  0.00    +0.000 A 
ATOM     12  C   UNL     1       1.792   3.870  17.787  0.00  0.00    +0.000 A 
ATOM     13  C   UNL     1       2.072   4.874  18.721  0.00  0.00    +0.000 A 
ATOM     14  C   UNL     1       2.601   6.235  18.309  0.00  0.00    +0.000 C 
ENDROOT
BRANCH   2  15
ATOM     15  C   UNL     1       1.156  10.860  18.238  0.00  0.00    +0.000 C 
BRANCH  15  16
ATOM     16  C   UNL     1       2.183  12.029  18.345  0.00  0.00    +0.000 C 
BRANCH  16  17
ATOM     17  N   UNL     1       1.652  13.284  18.923  0.00  0.00    +0.000 NA
ATOM     18  C   UNL     1       2.400  14.442  18.402  0.00  0.00    +0.000 C 
ATOM     19  C   UNL     1       1.898  15.752  19.008  0.00  0.00    +0.000 C 
ATOM     20  C   UNL     1       0.406  15.935  18.769  0.00  0.00    +0.000 C 
ATOM     21  C   UNL     1      -0.360  14.706  19.244  0.00  0.00    +0.000 C 
ATOM     22  C   UNL     1       0.214  13.422  18.637  0.00  0.00    +0.000 C 
ENDBRANCH  16  17
ENDBRANCH  15  16
ENDBRANCH   2  15
TORSDOF 3
ENDMDL
MODEL 8
REMARK VINA RESULT:      -6.6      4.892      7.358
REMARK  Name = 
REMARK  4 active torsions:
REMARK  status: ('A' for Active; 'I' for Inactive)
REMARK    1  A    between atoms: C_1  and  N_2
REMARK    2  A    between atoms: N_2  and  C_3
REMARK    3  A    between atoms: C_3  and  C_4
REMARK    4  A    between atoms: C_4  and  N_5
REMARK                            x       y       z     vdW  Elec       q    Type
REMARK                         _______ _______ _______ _____ _____    ______ ____
ROOT
ATOM      1  C   UNL     1       7.429   5.275  17.341  0.00  0.00    +0.000 C 
ATOM      2  N   UNL     1       6.615   6.468  17.179  0.00  0.00    +0.000 N 
ATOM      3  C   UNL     1       5.241   6.566  17.388  0.00  0.00    +0.000 C 
ATOM      4  O   UNL     1       4.693   7.682  17.375  0.00  0.00    +0.000 OA
ATOM      5  N   UNL     1       4.460   5.439  17.650  0.00  0.00    +0.000 N 
ATOM      6  C   UNL     1       4.865   4.028  17.557  0.00  0.00    +0.000 C 
ATOM      7  C   UNL     1       3.739   3.003  17.521  0.00  0.00    +0.000 C 
ATOM      8  C   UNL     1       2.819   3.256  18.674  0.00  0.00    +0.000 A 
ATOM      9  C   UNL     1       2.314   2.217  19.461  0.00  0.00    +0.000 A 
ATOM     10  C   UNL     1       1.474   2.509  20.532  0.00  0.00    +0.000 A 
ATOM     11  C   UNL     1       1.118   3.833  20.798  0.00  0.00    +0.000 A 
ATOM     12  C   UNL     1       1.613   4.871  20.004  0.00  0.00    +0.000 A 
ATOM     13  C   UNL     1       2.488   4.593  18.949  0.00  0.00    +0.000 A 
ATOM     14  C   UNL     1       3.066   5.687  18.069  0.00  0.00    +0.000 C 
ENDROOT
BRANCH   2  15
ATOM     15  C   UNL     1       7.346   7.752  17.126  0.00  0.00    +0.000 C 
BRANCH  15  16
ATOM     16  C   UNL     1       8.139   8.215  18.387  0.00  0.00    +0.000 C 
BRANCH  16  17
ATOM     17  N   UNL     1       8.824   9.521  18.258  0.00  0.00    +0.000 NA
ATOM     18  C   UNL     1       7.891  10.538  17.741  0.00  0.00    +0.000 C 
ATOM     19  C   UNL     1       8.578  11.891  17.564  0.00  0.00    +0.000 C 
ATOM     20  C   UNL     1       9.209  12.365  18.865  0.00  0.00    +0.000 C 
ATOM     21  C   UNL     1      10.119  11.284  19.435  0.00  0.00    +0.000 C 
ATOM     22  C   UNL     1       9.389   9.943  19.551  0.00  0.00    +0.000 C 
ENDBRANCH  16  17
ENDBRANCH  15  16
ENDBRANCH   2  15
TORSDOF 3
ENDMDL
MODEL 9
REMARK VINA RESULT:      -6.6      2.704      8.278
REMARK  Name = 
REMARK  4 active torsions:
REMARK  status: ('A' for Active; 'I' for Inactive)
REMARK    1  A    between atoms: C_1  and  N_2
REMARK    2  A    between atoms: N_2  and  C_3
REMARK    3  A    between atoms: C_3  and  C_4
REMARK    4  A    between atoms: C_4  and  N_5
REMARK                            x       y       z     vdW  Elec       q    Type
REMARK                         _______ _______ _______ _____ _____    ______ ____
ROOT
ATOM      1  C   UNL     1       0.957   9.419  19.106  0.00  0.00    +0.000 C 
ATOM      2  N   UNL     1       1.147   9.016  20.489  0.00  0.00    +0.000 N 
ATOM      3  C   UNL     1       0.621   9.648  21.614  0.00  0.00    +0.000 C 
ATOM      4  O   UNL     1       0.722   9.108  22.729  0.00  0.00    +0.000 OA
ATOM      5  N   UNL     1      -0.054  10.866  21.518  0.00  0.00    +0.000 N 
ATOM      6  C   UNL     1      -0.150  11.746  20.343  0.00  0.00    +0.000 C 
ATOM      7  C   UNL     1      -0.610  13.175  20.605  0.00  0.00    +0.000 C 
ATOM      8  C   UNL     1      -1.882  13.136  21.392  0.00  0.00    +0.000 A 
ATOM      9  C   UNL     1      -2.966  13.965  21.092  0.00  0.00    +0.000 A 
ATOM     10  C   UNL     1      -4.132  13.878  21.847  0.00  0.00    +0.000 A 
ATOM     11  C   UNL     1      -4.204  12.982  22.917  0.00  0.00    +0.000 A 
ATOM     12  C   UNL     1      -3.117  12.161  23.225  0.00  0.00    +0.000 A 
ATOM     13  C   UNL     1      -1.953  12.213  22.449  0.00  0.00    +0.000 A 
ATOM     14  C   UNL     1      -0.753  11.329  22.734  0.00  0.00    +0.000 C 
ENDROOT
BRANCH   2  15
ATOM     15  C   UNL     1       1.644   7.640  20.704  0.00  0.00    +0.000 C 
BRANCH  15  16
ATOM     16  C   UNL     1       2.420   6.937  19.548  0.00  0.00    +0.000 C 
BRANCH  16  17
ATOM     17  N   UNL     1       2.327   5.459  19.532  0.00  0.00    +0.000 NA
ATOM     18  C   UNL     1       1.380   4.996  20.562  0.00  0.00    +0.000 C 
ATOM     19  C   UNL     1       1.288   3.472  20.594  0.00  0.00    +0.000 C 
ATOM     20  C   UNL     1       0.903   2.913  19.232  0.00  0.00    +0.000 C 
ATOM     21  C   UNL     1       1.839   3.449  18.157  0.00  0.00    +0.000 C 
ATOM     22  C   UNL     1       1.923   4.978  18.200  0.00  0.00    +0.000 C 
ENDBRANCH  16  17
ENDBRANCH  15  16
ENDBRANCH   2  15
TORSDOF 3
ENDMDL
