MODEL 1
REMARK VINA RESULT:      -7.0      0.000      0.000
REMARK  Name = 
REMARK  16 active torsions:
REMARK  status: ('A' for Active; 'I' for Inactive)
REMARK    1  A    between atoms: C_1  and  C_2
REMARK    2  A    between atoms: C_2  and  C_3
REMARK    3  A    between atoms: C_3  and  C_4
REMARK    4  A    between atoms: C_4  and  N_5
REMARK    5  A    between atoms: N_5  and  C_6
REMARK    6  A    between atoms: N_5  and  C_10
REMARK    7  A    between atoms: C_6  and  C_7
REMARK    8  A    between atoms: C_7  and  C_8
REMARK    9  A    between atoms: C_8  and  C_9
REMARK   10  A    between atoms: C_10  and  C_11
REMARK   11  A    between atoms: C_11  and  C_12
REMARK   12  A    between atoms: C_12  and  O_13
REMARK   13  A    between atoms: O_13  and  C_14
REMARK   14  A    between atoms: C_17  and  C_18
REMARK   15  A    between atoms: C_21  and  C_22
REMARK   16  A    between atoms: C_24  and  C_25
REMARK                            x       y       z     vdW  Elec       q    Type
REMARK                         _______ _______ _______ _____ _____    ______ ____
ROOT
ATOM      1  C   UNL     1       6.803   5.334  17.577  0.00  0.00    +0.000 A 
ATOM      2  C   UNL     1       7.710   5.550  18.616  0.00  0.00    +0.000 A 
ATOM      3  C   UNL     1       8.206   6.824  18.863  0.00  0.00    +0.000 A 
ATOM      4  C   UNL     1       7.817   7.913  18.076  0.00  0.00    +0.000 A 
ATOM      5  C   UNL     1       6.883   7.708  17.055  0.00  0.00    +0.000 A 
ATOM      6  C   UNL     1       6.384   6.421  16.804  0.00  0.00    +0.000 A 
ENDROOT
BRANCH   4   7
ATOM      7  C   UNL     1       8.411   9.214  18.310  0.00  0.00    +0.000 A 
ATOM      8  C   UNL     1       7.919  10.389  17.783  0.00  0.00    +0.000 A 
ATOM      9  N   UNL     1       8.758  11.380  18.215  0.00  0.00    +0.000 N 
ATOM     10  C   UNL     1       8.725  12.765  17.975  0.00  0.00    +0.000 A 
ATOM     11  C   UNL     1       7.637  13.388  17.153  0.00  0.00    +0.000 C 
ATOM     12  C   UNL     1       9.703  13.519  18.518  0.00  0.00    +0.000 A 
ATOM     13  C   UNL     1      10.755  12.899  19.319  0.00  0.00    +0.000 A 
ATOM     14  C   UNL     1      11.823  13.787  19.880  0.00  0.00    +0.000 C 
ATOM     15  C   UNL     1      10.754  11.567  19.542  0.00  0.00    +0.000 A 
ATOM     16  C   UNL     1       9.728  10.749  18.992  0.00  0.00    +0.000 A 
ATOM     17  N   UNL     1       9.520   9.450  19.080  0.00  0.00    +0.000 NA
ENDBRANCH   4   7
BRANCH   1  18
ATOM     18  O   UNL     1       6.280   4.109  17.240  0.00  0.00    +0.000 OA
BRANCH  18  19
ATOM     19  C   UNL     1       5.059   4.175  16.496  0.00  0.00    +0.000 C 
BRANCH  19  20
ATOM     20  C   UNL     1       3.880   3.797  17.379  0.00  0.00    +0.000 C 
BRANCH  20  21
ATOM     21  C   UNL     1       3.005   5.025  17.680  0.00  0.00    +0.000 C 
BRANCH  21  22
ATOM     22  N   UNL     1       3.323   5.750  18.937  0.00  0.00    +0.000 NA
BRANCH  22  23
ATOM     23  C   UNL     1       2.513   6.991  19.008  0.00  0.00    +0.000 C 
BRANCH  23  24
ATOM     24  C   UNL     1       2.748   8.086  17.955  0.00  0.00    +0.000 C 
BRANCH  24  26
ATOM     25  C   UNL     1       1.510  10.187  18.530  0.00  0.00    +0.000 C 
ATOM     26  C   UNL     1       1.524   8.946  17.644  0.00  0.00    +0.000 C 
ENDBRANCH  24  26
ENDBRANCH  23  24
ENDBRANCH  22  23
BRANCH  22  27
ATOM     27  C   UNL     1       3.078   4.886  20.116  0.00  0.00    +0.000 C 
BRANCH  27  28
ATOM     28  C   UNL     1       1.609   4.693  20.546  0.00  0.00    +0.000 C 
BRANCH  28  29
ATOM     29  C   UNL     1       1.186   3.233  20.710  0.00  0.00    +0.000 C 
ATOM     30  C   UNL     1       0.799   2.628  19.365  0.00  0.00    +0.000 C 
ENDBRANCH  28  29
ENDBRANCH  27  28
ENDBRANCH  22  27
ENDBRANCH  21  22
ENDBRANCH  20  21
ENDBRANCH  19  20
ENDBRANCH  18  19
ENDBRANCH   1  18
TORSDOF 12
ENDMDL
MODEL 2
REMARK VINA RESULT:      -6.7      1.088      3.319
REMARK  Name = 
REMARK  16 active torsions:
REMARK  status: ('A' for Active; 'I' for Inactive)
REMARK    1  A    between atoms: C_1  and  C_2
REMARK    2  A    between atoms: C_2  and  C_3
REMARK    3  A    between atoms: C_3  and  C_4
REMARK    4  A    between atoms: C_4  and  N_5
REMARK    5  A    between atoms: N_5  and  C_6
REMARK    6  A    between atoms: N_5  and  C_10
REMARK    7  A    between atoms: C_6  and  C_7
REMARK    8  A    between atoms: C_7  and  C_8
REMARK    9  A    between atoms: C_8  and  C_9
REMARK   10  A    between atoms: C_10  and  C_11
REMARK   11  A    between atoms: C_11  and  C_12
REMARK   12  A    between atoms: C_12  and  O_13
REMARK   13  A    between atoms: O_13  and  C_14
REMARK   14  A    between atoms: C_17  and  C_18
REMARK   15  A    between atoms: C_21  and  C_22
REMARK   16  A    between atoms: C_24  and  C_25
REMARK                            x       y       z     vdW  Elec       q    Type
REMARK                         _______ _______ _______ _____ _____    ______ ____
ROOT
ATOM      1  C   UNL     1       7.202   5.835  17.897  0.00  0.00    +0.000 A 
ATOM      2  C   UNL     1       8.057   6.222  18.930  0.00  0.00    +0.000 A 
ATOM      3  C   UNL     1       8.487   7.541  19.031  0.00  0.00    +0.000 A 
ATOM      4  C   UNL     1       8.080   8.502  18.099  0.00  0.00    +0.000 A 
ATOM      5  C   UNL     1       7.198   8.126  17.082  0.00  0.00    +0.000 A 
ATOM      6  C   UNL     1       6.766   6.794  16.979  0.00  0.00    +0.000 A 
ENDROOT
BRANCH   4   7
ATOM      7  C   UNL     1       8.607   9.850  18.186  0.00  0.00    +0.000 A 
ATOM      8  C   UNL     1       9.752  10.183  18.877  0.00  0.00    +0.000 A 
ATOM      9  N   UNL     1       9.901  11.537  18.736  0.00  0.00    +0.000 N 
ATOM     10  C   UNL     1      10.893  12.398  19.236  0.00  0.00    +0.000 A 
ATOM     11  C   UNL     1      12.041  11.875  20.047  0.00  0.00    +0.000 C 
ATOM     12  C   UNL     1      10.783  13.712  18.956  0.00  0.00    +0.000 A 
ATOM     13  C   UNL     1       9.661  14.206  18.164  0.00  0.00    +0.000 A 
ATOM     14  C   UNL     1       9.584  15.679  17.900  0.00  0.00    +0.000 C 
ATOM     15  C   UNL     1       8.727  13.354  17.687  0.00  0.00    +0.000 A 
ATOM     16  C   UNL     1       8.825  11.961  17.957  0.00  0.00    +0.000 A 
ATOM     17  N   UNL     1       8.052  10.955  17.596  0.00  0.00    +0.000 NA
ENDBRANCH   4   7
BRANCH   1  18
ATOM     18  O   UNL     1       6.748   4.553  17.701  0.00  0.00    +0.000 OA
BRANCH  18  19
ATOM     19  C   UNL     1       6.361   4.266  16.353  0.00  0.00    +0.000 C 
BRANCH  19  20
ATOM     20  C   UNL     1       4.883   3.912  16.291  0.00  0.00    +0.000 C 
BRANCH  20  21
ATOM     21  C   UNL     1       4.215   4.110  17.661  0.00  0.00    +0.000 C 
BRANCH  21  22
ATOM     22  N   UNL     1       2.840   4.673  17.633  0.00  0.00    +0.000 NA
BRANCH  22  23
ATOM     23  C   UNL     1       1.880   3.653  18.124  0.00  0.00    +0.000 C 
BRANCH  23  24
ATOM     24  C   UNL     1       2.373   2.603  19.132  0.00  0.00    +0.000 C 
BRANCH  24  26
ATOM     25  C   UNL     1       1.973   3.704  21.347  0.00  0.00    +0.000 C 
ATOM     26  C   UNL     1       1.578   2.547  20.436  0.00  0.00    +0.000 C 
ENDBRANCH  24  26
ENDBRANCH  23  24
ENDBRANCH  22  23
BRANCH  22  27
ATOM     27  C   UNL     1       2.764   5.911  18.444  0.00  0.00    +0.000 C 
BRANCH  27  28
ATOM     28  C   UNL     1       3.396   7.181  17.838  0.00  0.00    +0.000 C 
BRANCH  28  29
ATOM     29  C   UNL     1       2.486   8.411  17.859  0.00  0.00    +0.000 C 
ATOM     30  C   UNL     1       1.755   8.519  19.193  0.00  0.00    +0.000 C 
ENDBRANCH  28  29
ENDBRANCH  27  28
ENDBRANCH  22  27
ENDBRANCH  21  22
ENDBRANCH  20  21
ENDBRANCH  19  20
ENDBRANCH  18  19
ENDBRANCH   1  18
TORSDOF 12
ENDMDL
MODEL 3
REMARK VINA RESULT:      -6.6      5.495      9.529
REMARK  Name = 
REMARK  16 active torsions:
REMARK  status: ('A' for Active; 'I' for Inactive)
REMARK    1  A    between atoms: C_1  and  C_2
REMARK    2  A    between atoms: C_2  and  C_3
REMARK    3  A    between atoms: C_3  and  C_4
REMARK    4  A    between atoms: C_4  and  N_5
REMARK    5  A    between atoms: N_5  and  C_6
REMARK    6  A    between atoms: N_5  and  C_10
REMARK    7  A    between atoms: C_6  and  C_7
REMARK    8  A    between atoms: C_7  and  C_8
REMARK    9  A    between atoms: C_8  and  C_9
REMARK   10  A    between atoms: C_10  and  C_11
REMARK   11  A    between atoms: C_11  and  C_12
REMARK   12  A    between atoms: C_12  and  O_13
REMARK   13  A    between atoms: O_13  and  C_14
REMARK   14  A    between atoms: C_17  and  C_18
REMARK   15  A    between atoms: C_21  and  C_22
REMARK   16  A    between atoms: C_24  and  C_25
REMARK                            x       y       z     vdW  Elec       q    Type
REMARK                         _______ _______ _______ _____ _____    ______ ____
ROOT
ATOM      1  C   UNL     1       1.227   8.944  20.272  0.00  0.00    +0.000 A 
ATOM      2  C   UNL     1       0.837   8.716  21.592  0.00  0.00    +0.000 A 
ATOM      3  C   UNL     1       0.142   9.690  22.300  0.00  0.00    +0.000 A 
ATOM      4  C   UNL     1      -0.174  10.918  21.709  0.00  0.00    +0.000 A 
ATOM      5  C   UNL     1       0.186  11.139  20.376  0.00  0.00    +0.000 A 
ATOM      6  C   UNL     1       0.890  10.156  19.663  0.00  0.00    +0.000 A 
ENDROOT
BRANCH   4   7
ATOM      7  C   UNL     1      -0.830  11.943  22.497  0.00  0.00    +0.000 A 
ATOM      8  C   UNL     1      -2.106  11.820  23.005  0.00  0.00    +0.000 A 
ATOM      9  N   UNL     1      -2.366  12.990  23.666  0.00  0.00    +0.000 N 
ATOM     10  C   UNL     1      -3.515  13.402  24.365  0.00  0.00    +0.000 A 
ATOM     11  C   UNL     1      -4.705  12.502  24.506  0.00  0.00    +0.000 C 
ATOM     12  C   UNL     1      -3.508  14.635  24.912  0.00  0.00    +0.000 A 
ATOM     13  C   UNL     1      -2.341  15.500  24.768  0.00  0.00    +0.000 A 
ATOM     14  C   UNL     1      -2.399  16.864  25.384  0.00  0.00    +0.000 C 
ATOM     15  C   UNL     1      -1.246  15.073  24.101  0.00  0.00    +0.000 A 
ATOM     16  C   UNL     1      -1.221  13.773  23.523  0.00  0.00    +0.000 A 
ATOM     17  N   UNL     1      -0.279  13.148  22.845  0.00  0.00    +0.000 NA
ENDBRANCH   4   7
BRANCH   1  18
ATOM     18  O   UNL     1       1.939   8.054  19.504  0.00  0.00    +0.000 OA
BRANCH  18  19
ATOM     19  C   UNL     1       2.092   6.759  20.095  0.00  0.00    +0.000 C 
BRANCH  19  20
ATOM     20  C   UNL     1       2.596   5.763  19.062  0.00  0.00    +0.000 C 
BRANCH  20  21
ATOM     21  C   UNL     1       3.945   5.164  19.492  0.00  0.00    +0.000 C 
BRANCH  21  22
ATOM     22  N   UNL     1       4.493   4.106  18.604  0.00  0.00    +0.000 NA
BRANCH  22  23
ATOM     23  C   UNL     1       3.375   3.406  17.925  0.00  0.00    +0.000 C 
BRANCH  23  24
ATOM     24  C   UNL     1       2.807   2.131  18.567  0.00  0.00    +0.000 C 
BRANCH  24  26
ATOM     25  C   UNL     1       1.311   2.675  20.503  0.00  0.00    +0.000 C 
ATOM     26  C   UNL     1       1.358   2.246  19.040  0.00  0.00    +0.000 C 
ENDBRANCH  24  26
ENDBRANCH  23  24
ENDBRANCH  22  23
BRANCH  22  27
ATOM     27  C   UNL     1       5.435   4.687  17.618  0.00  0.00    +0.000 C 
BRANCH  27  28
ATOM     28  C   UNL     1       5.021   4.618  16.133  0.00  0.00    +0.000 C 
BRANCH  28  29
ATOM     29  C   UNL     1       5.965   3.798  15.252  0.00  0.00    +0.000 C 
ATOM     30  C   UNL     1       6.714   4.700  14.278  0.00  0.00    +0.000 C 
ENDBRANCH  28  29
ENDBRANCH  27  28
ENDBRANCH  22  27
ENDBRANCH  21  22
ENDBRANCH  20  21
ENDBRANCH  19  20
ENDBRANCH  18  19
ENDBRANCH   1  18
TORSDOF 12
ENDMDL
MODEL 4
REMARK VINA RESULT:      -6.6      5.576      9.306
REMARK  Name = 
REMARK  16 active torsions:
REMARK  status: ('A' for Active; 'I' for Inactive)
REMARK    1  A    between atoms: C_1  and  C_2
REMARK    2  A    between atoms: C_2  and  C_3
REMARK    3  A    between atoms: C_3  and  C_4
REMARK    4  A    between atoms: C_4  and  N_5
REMARK    5  A    between atoms: N_5  and  C_6
REMARK    6  A    between atoms: N_5  and  C_10
REMARK    7  A    between atoms: C_6  and  C_7
REMARK    8  A    between atoms: C_7  and  C_8
REMARK    9  A    between atoms: C_8  and  C_9
REMARK   10  A    between atoms: C_10  and  C_11
REMARK   11  A    between atoms: C_11  and  C_12
REMARK   12  A    between atoms: C_12  and  O_13
REMARK   13  A    between atoms: O_13  and  C_14
REMARK   14  A    between atoms: C_17  and  C_18
REMARK   15  A    between atoms: C_21  and  C_22
REMARK   16  A    between atoms: C_24  and  C_25
REMARK                            x       y       z     vdW  Elec       q    Type
REMARK                         _______ _______ _______ _____ _____    ______ ____
ROOT
ATOM      1  C   UNL     1       1.045   8.803  20.722  0.00  0.00    +0.000 A 
ATOM      2  C   UNL     1       0.873   8.800  22.106  0.00  0.00    +0.000 A 
ATOM      3  C   UNL     1       0.168   9.824  22.730  0.00  0.00    +0.000 A 
ATOM      4  C   UNL     1      -0.373  10.879  21.988  0.00  0.00    +0.000 A 
ATOM      5  C   UNL     1      -0.232  10.869  20.597  0.00  0.00    +0.000 A 
ATOM      6  C   UNL     1       0.481   9.836  19.968  0.00  0.00    +0.000 A 
ENDROOT
BRANCH   4   7
ATOM      7  C   UNL     1      -1.035  11.971  22.675  0.00  0.00    +0.000 A 
ATOM      8  C   UNL     1      -2.384  11.995  22.957  0.00  0.00    +0.000 A 
ATOM      9  N   UNL     1      -2.619  13.187  23.589  0.00  0.00    +0.000 N 
ATOM     10  C   UNL     1      -3.815  13.727  24.092  0.00  0.00    +0.000 A 
ATOM     11  C   UNL     1      -5.106  12.970  24.010  0.00  0.00    +0.000 C 
ATOM     12  C   UNL     1      -3.762  14.950  24.659  0.00  0.00    +0.000 A 
ATOM     13  C   UNL     1      -2.497  15.674  24.733  0.00  0.00    +0.000 A 
ATOM     14  C   UNL     1      -2.505  17.035  25.359  0.00  0.00    +0.000 C 
ATOM     15  C   UNL     1      -1.360  15.125  24.251  0.00  0.00    +0.000 A 
ATOM     16  C   UNL     1      -1.385  13.832  23.659  0.00  0.00    +0.000 A 
ATOM     17  N   UNL     1      -0.417  13.104  23.137  0.00  0.00    +0.000 NA
ENDBRANCH   4   7
BRANCH   1  18
ATOM     18  O   UNL     1       1.747   7.851  20.022  0.00  0.00    +0.000 OA
BRANCH  18  19
ATOM     19  C   UNL     1       2.059   8.223  18.675  0.00  0.00    +0.000 C 
BRANCH  19  20
ATOM     20  C   UNL     1       3.066   7.253  18.078  0.00  0.00    +0.000 C 
BRANCH  20  21
ATOM     21  C   UNL     1       2.441   5.861  17.892  0.00  0.00    +0.000 C 
BRANCH  21  22
ATOM     22  N   UNL     1       3.158   4.739  18.552  0.00  0.00    +0.000 NA
BRANCH  22  23
ATOM     23  C   UNL     1       4.516   4.609  17.966  0.00  0.00    +0.000 C 
BRANCH  23  24
ATOM     24  C   UNL     1       4.644   4.302  16.466  0.00  0.00    +0.000 C 
BRANCH  24  26
ATOM     25  C   UNL     1       6.321   6.155  16.655  0.00  0.00    +0.000 C 
ATOM     26  C   UNL     1       5.540   5.269  15.691  0.00  0.00    +0.000 C 
ENDBRANCH  24  26
ENDBRANCH  23  24
ENDBRANCH  22  23
BRANCH  22  27
ATOM     27  C   UNL     1       3.229   4.952  20.017  0.00  0.00    +0.000 C 
BRANCH  27  28
ATOM     28  C   UNL     1       1.894   4.924  20.790  0.00  0.00    +0.000 C 
BRANCH  28  29
ATOM     29  C   UNL     1       1.137   3.598  20.694  0.00  0.00    +0.000 C 
ATOM     30  C   UNL     1       1.730   2.567  21.649  0.00  0.00    +0.000 C 
ENDBRANCH  28  29
ENDBRANCH  27  28
ENDBRANCH  22  27
ENDBRANCH  21  22
ENDBRANCH  20  21
ENDBRANCH  19  20
ENDBRANCH  18  19
ENDBRANCH   1  18
TORSDOF 12
ENDMDL
MODEL 5
REMARK VINA RESULT:      -6.6      4.126      8.200
REMARK  Name = 
REMARK  16 active torsions:
REMARK  status: ('A' for Active; 'I' for Inactive)
REMARK    1  A    between atoms: C_1  and  C_2
REMARK    2  A    between atoms: C_2  and  C_3
REMARK    3  A    between atoms: C_3  and  C_4
REMARK    4  A    between atoms: C_4  and  N_5
REMARK    5  A    between atoms: N_5  and  C_6
REMARK    6  A    between atoms: N_5  and  C_10
REMARK    7  A    between atoms: C_6  and  C_7
REMARK    8  A    between atoms: C_7  and  C_8
REMARK    9  A    between atoms: C_8  and  C_9
REMARK   10  A    between atoms: C_10  and  C_11
REMARK   11  A    between atoms: C_11  and  C_12
REMARK   12  A    between atoms: C_12  and  O_13
REMARK   13  A    between atoms: O_13  and  C_14
REMARK   14  A    between atoms: C_17  and  C_18
REMARK   15  A    between atoms: C_21  and  C_22
REMARK   16  A    between atoms: C_24  and  C_25
REMARK                            x       y       z     vdW  Elec       q    Type
REMARK                         _______ _______ _______ _____ _____    ______ ____
ROOT
ATOM      1  C   UNL     1       3.378   6.509  18.582  0.00  0.00    +0.000 A 
ATOM      2  C   UNL     1       3.170   7.632  17.781  0.00  0.00    +0.000 A 
ATOM      3  C   UNL     1       2.290   8.632  18.183  0.00  0.00    +0.000 A 
ATOM      4  C   UNL     1       1.592   8.529  19.391  0.00  0.00    +0.000 A 
ATOM      5  C   UNL     1       1.822   7.422  20.213  0.00  0.00    +0.000 A 
ATOM      6  C   UNL     1       2.708   6.412  19.805  0.00  0.00    +0.000 A 
ENDROOT
BRANCH   4   7
ATOM      7  C   UNL     1       0.625   9.549  19.746  0.00  0.00    +0.000 A 
ATOM      8  C   UNL     1      -0.353  10.011  18.891  0.00  0.00    +0.000 A 
ATOM      9  N   UNL     1      -1.042  10.969  19.584  0.00  0.00    +0.000 N 
ATOM     10  C   UNL     1      -2.135  11.763  19.192  0.00  0.00    +0.000 A 
ATOM     11  C   UNL     1      -2.756  11.618  17.835  0.00  0.00    +0.000 C 
ATOM     12  C   UNL     1      -2.612  12.656  20.082  0.00  0.00    +0.000 A 
ATOM     13  C   UNL     1      -1.999  12.785  21.400  0.00  0.00    +0.000 A 
ATOM     14  C   UNL     1      -2.563  13.807  22.339  0.00  0.00    +0.000 C 
ATOM     15  C   UNL     1      -0.957  12.001  21.753  0.00  0.00    +0.000 A 
ATOM     16  C   UNL     1      -0.440  11.042  20.839  0.00  0.00    +0.000 A 
ATOM     17  N   UNL     1       0.548  10.177  20.962  0.00  0.00    +0.000 NA
ENDBRANCH   4   7
BRANCH   1  18
ATOM     18  O   UNL     1       4.204   5.461  18.255  0.00  0.00    +0.000 OA
BRANCH  18  19
ATOM     19  C   UNL     1       3.547   4.385  17.576  0.00  0.00    +0.000 C 
BRANCH  19  20
ATOM     20  C   UNL     1       4.120   4.215  16.177  0.00  0.00    +0.000 C 
BRANCH  20  21
ATOM     21  C   UNL     1       5.376   3.328  16.204  0.00  0.00    +0.000 C 
BRANCH  21  22
ATOM     22  N   UNL     1       6.630   3.972  15.733  0.00  0.00    +0.000 NA
BRANCH  22  23
ATOM     23  C   UNL     1       6.315   4.910  14.626  0.00  0.00    +0.000 C 
BRANCH  23  24
ATOM     24  C   UNL     1       6.917   4.640  13.238  0.00  0.00    +0.000 C 
BRANCH  24  26
ATOM     25  C   UNL     1       4.874   3.584  12.242  0.00  0.00    +0.000 C 
ATOM     26  C   UNL     1       6.360   3.405  12.531  0.00  0.00    +0.000 C 
ENDBRANCH  24  26
ENDBRANCH  23  24
ENDBRANCH  22  23
BRANCH  22  27
ATOM     27  C   UNL     1       7.310   4.671  16.848  0.00  0.00    +0.000 C 
BRANCH  27  28
ATOM     28  C   UNL     1       7.227   6.212  16.858  0.00  0.00    +0.000 C 
BRANCH  28  29
ATOM     29  C   UNL     1       7.687   6.860  18.166  0.00  0.00    +0.000 C 
ATOM     30  C   UNL     1       7.763   5.825  19.283  0.00  0.00    +0.000 C 
ENDBRANCH  28  29
ENDBRANCH  27  28
ENDBRANCH  22  27
ENDBRANCH  21  22
ENDBRANCH  20  21
ENDBRANCH  19  20
ENDBRANCH  18  19
ENDBRANCH   1  18
TORSDOF 12
ENDMDL
MODEL 6
REMARK VINA RESULT:      -6.5      3.609      7.512
REMARK  Name = 
REMARK  16 active torsions:
REMARK  status: ('A' for Active; 'I' for Inactive)
REMARK    1  A    between atoms: C_1  and  C_2
REMARK    2  A    between atoms: C_2  and  C_3
REMARK    3  A    between atoms: C_3  and  C_4
REMARK    4  A    between atoms: C_4  and  N_5
REMARK    5  A    between atoms: N_5  and  C_6
REMARK    6  A    between atoms: N_5  and  C_10
REMARK    7  A    between atoms: C_6  and  C_7
REMARK    8  A    between atoms: C_7  and  C_8
REMARK    9  A    between atoms: C_8  and  C_9
REMARK   10  A    between atoms: C_10  and  C_11
REMARK   11  A    between atoms: C_11  and  C_12
REMARK   12  A    between atoms: C_12  and  O_13
REMARK   13  A    between atoms: O_13  and  C_14
REMARK   14  A    between atoms: C_17  and  C_18
REMARK   15  A    between atoms: C_21  and  C_22
REMARK   16  A    between atoms: C_24  and  C_25
REMARK                            x       y       z     vdW  Elec       q    Type
REMARK                         _______ _______ _______ _____ _____    ______ ____
ROOT
ATOM      1  C   UNL     1       2.245   6.961  19.336  0.00  0.00    +0.000 A 
ATOM      2  C   UNL     1       1.654   7.605  20.423  0.00  0.00    +0.000 A 
ATOM      3  C   UNL     1       1.286   8.943  20.334  0.00  0.00    +0.000 A 
ATOM      4  C   UNL     1       1.506   9.671  19.160  0.00  0.00    +0.000 A 
ATOM      5  C   UNL     1       2.067   9.021  18.056  0.00  0.00    +0.000 A 
ATOM      6  C   UNL     1       2.441   7.671  18.148  0.00  0.00    +0.000 A 
ENDROOT
BRANCH   4   7
ATOM      7  C   UNL     1       1.183  11.084  19.124  0.00  0.00    +0.000 A 
ATOM      8  C   UNL     1       2.062  12.063  18.710  0.00  0.00    +0.000 A 
ATOM      9  N   UNL     1       1.395  13.251  18.838  0.00  0.00    +0.000 N 
ATOM     10  C   UNL     1       1.818  14.563  18.560  0.00  0.00    +0.000 A 
ATOM     11  C   UNL     1       3.183  14.841  18.008  0.00  0.00    +0.000 C 
ATOM     12  C   UNL     1       0.949  15.566  18.800  0.00  0.00    +0.000 A 
ATOM     13  C   UNL     1      -0.379  15.280  19.336  0.00  0.00    +0.000 A 
ATOM     14  C   UNL     1      -1.293  16.438  19.598  0.00  0.00    +0.000 C 
ATOM     15  C   UNL     1      -0.761  14.008  19.583  0.00  0.00    +0.000 A 
ATOM     16  C   UNL     1       0.130  12.930  19.328  0.00  0.00    +0.000 A 
ATOM     17  N   UNL     1      -0.023  11.629  19.481  0.00  0.00    +0.000 NA
ENDBRANCH   4   7
BRANCH   1  18
ATOM     18  O   UNL     1       2.666   5.653  19.340  0.00  0.00    +0.000 OA
BRANCH  18  19
ATOM     19  C   UNL     1       2.659   5.029  18.051  0.00  0.00    +0.000 C 
BRANCH  19  20
ATOM     20  C   UNL     1       3.811   4.043  17.935  0.00  0.00    +0.000 C 
BRANCH  20  21
ATOM     21  C   UNL     1       4.392   4.046  16.511  0.00  0.00    +0.000 C 
BRANCH  21  22
ATOM     22  N   UNL     1       5.828   4.415  16.402  0.00  0.00    +0.000 NA
BRANCH  22  23
ATOM     23  C   UNL     1       6.386   3.854  15.147  0.00  0.00    +0.000 C 
BRANCH  23  24
ATOM     24  C   UNL     1       5.625   4.090  13.832  0.00  0.00    +0.000 C 
BRANCH  24  26
ATOM     25  C   UNL     1       5.527   2.650  11.783  0.00  0.00    +0.000 C 
ATOM     26  C   UNL     1       6.371   3.644  12.575  0.00  0.00    +0.000 C 
ENDBRANCH  24  26
ENDBRANCH  23  24
ENDBRANCH  22  23
BRANCH  22  27
ATOM     27  C   UNL     1       5.995   5.887  16.449  0.00  0.00    +0.000 C 
BRANCH  27  28
ATOM     28  C   UNL     1       6.292   6.511  17.829  0.00  0.00    +0.000 C 
BRANCH  28  29
ATOM     29  C   UNL     1       7.754   6.910  18.039  0.00  0.00    +0.000 C 
ATOM     30  C   UNL     1       7.969   8.378  17.686  0.00  0.00    +0.000 C 
ENDBRANCH  28  29
ENDBRANCH  27  28
ENDBRANCH  22  27
ENDBRANCH  21  22
ENDBRANCH  20  21
ENDBRANCH  19  20
ENDBRANCH  18  19
ENDBRANCH   1  18
TORSDOF 12
ENDMDL
MODEL 7
REMARK VINA RESULT:      -6.5      1.264      1.649
REMARK  Name = 
REMARK  16 active torsions:
REMARK  status: ('A' for Active; 'I' for Inactive)
REMARK    1  A    between atoms: C_1  and  C_2
REMARK    2  A    between atoms: C_2  and  C_3
REMARK    3  A    between atoms: C_3  and  C_4
REMARK    4  A    between atoms: C_4  and  N_5
REMARK    5  A    between atoms: N_5  and  C_6
REMARK    6  A    between atoms: N_5  and  C_10
REMARK    7  A    between atoms: C_6  and  C_7
REMARK    8  A    between atoms: C_7  and  C_8
REMARK    9  A    between atoms: C_8  and  C_9
REMARK   10  A    between atoms: C_10  and  C_11
REMARK   11  A    between atoms: C_11  and  C_12
REMARK   12  A    between atoms: C_12  and  O_13
REMARK   13  A    between atoms: O_13  and  C_14
REMARK   14  A    between atoms: C_17  and  C_18
REMARK   15  A    between atoms: C_21  and  C_22
REMARK   16  A    between atoms: C_24  and  C_25
REMARK                            x       y       z     vdW  Elec       q    Type
REMARK                         _______ _______ _______ _____ _____    ______ ____
ROOT
ATOM      1  C   UNL     1       7.390   6.023  17.760  0.00  0.00    +0.000 A 
ATOM      2  C   UNL     1       8.128   6.220  18.928  0.00  0.00    +0.000 A 
ATOM      3  C   UNL     1       8.578   7.490  19.270  0.00  0.00    +0.000 A 
ATOM      4  C   UNL     1       8.310   8.592  18.451  0.00  0.00    +0.000 A 
ATOM      5  C   UNL     1       7.543   8.406  17.297  0.00  0.00    +0.000 A 
ATOM      6  C   UNL     1       7.090   7.123  16.951  0.00  0.00    +0.000 A 
ENDROOT
BRANCH   4   7
ATOM      7  C   UNL     1       8.859   9.889  18.795  0.00  0.00    +0.000 A 
ATOM      8  C   UNL     1       9.472  10.728  17.889  0.00  0.00    +0.000 A 
ATOM      9  N   UNL     1       9.864  11.832  18.598  0.00  0.00    +0.000 N 
ATOM     10  C   UNL     1      10.534  12.992  18.172  0.00  0.00    +0.000 A 
ATOM     11  C   UNL     1      10.912  13.191  16.735  0.00  0.00    +0.000 C 
ATOM     12  C   UNL     1      10.819  13.928  19.101  0.00  0.00    +0.000 A 
ATOM     13  C   UNL     1      10.442  13.722  20.496  0.00  0.00    +0.000 A 
ATOM     14  C   UNL     1      10.800  14.790  21.484  0.00  0.00    +0.000 C 
ATOM     15  C   UNL     1       9.789  12.601  20.874  0.00  0.00    +0.000 A 
ATOM     16  C   UNL     1       9.465  11.603  19.914  0.00  0.00    +0.000 A 
ATOM     17  N   UNL     1       8.837  10.451  20.045  0.00  0.00    +0.000 NA
ENDBRANCH   4   7
BRANCH   1  18
ATOM     18  O   UNL     1       6.927   4.804  17.327  0.00  0.00    +0.000 OA
BRANCH  18  19
ATOM     19  C   UNL     1       6.091   4.871  16.167  0.00  0.00    +0.000 C 
BRANCH  19  20
ATOM     20  C   UNL     1       4.817   4.069  16.386  0.00  0.00    +0.000 C 
BRANCH  20  21
ATOM     21  C   UNL     1       4.652   3.699  17.869  0.00  0.00    +0.000 C 
BRANCH  21  22
ATOM     22  N   UNL     1       3.450   4.256  18.542  0.00  0.00    +0.000 NA
BRANCH  22  23
ATOM     23  C   UNL     1       3.511   5.739  18.511  0.00  0.00    +0.000 C 
BRANCH  23  24
ATOM     24  C   UNL     1       2.206   6.527  18.318  0.00  0.00    +0.000 C 
BRANCH  24  26
ATOM     25  C   UNL     1       2.265   8.962  17.731  0.00  0.00    +0.000 C 
ATOM     26  C   UNL     1       2.233   7.951  18.871  0.00  0.00    +0.000 C 
ENDBRANCH  24  26
ENDBRANCH  23  24
ENDBRANCH  22  23
BRANCH  22  27
ATOM     27  C   UNL     1       2.211   3.760  17.897  0.00  0.00    +0.000 C 
BRANCH  27  28
ATOM     28  C   UNL     1       1.234   2.962  18.785  0.00  0.00    +0.000 C 
BRANCH  28  29
ATOM     29  C   UNL     1       0.881   3.646  20.107  0.00  0.00    +0.000 C 
ATOM     30  C   UNL     1       1.437   2.858  21.288  0.00  0.00    +0.000 C 
ENDBRANCH  28  29
ENDBRANCH  27  28
ENDBRANCH  22  27
ENDBRANCH  21  22
ENDBRANCH  20  21
ENDBRANCH  19  20
ENDBRANCH  18  19
ENDBRANCH   1  18
TORSDOF 12
ENDMDL
MODEL 8
REMARK VINA RESULT:      -6.5      5.459      9.223
REMARK  Name = 
REMARK  16 active torsions:
REMARK  status: ('A' for Active; 'I' for Inactive)
REMARK    1  A    between atoms: C_1  and  C_2
REMARK    2  A    between atoms: C_2  and  C_3
REMARK    3  A    between atoms: C_3  and  C_4
REMARK    4  A    between atoms: C_4  and  N_5
REMARK    5  A    between atoms: N_5  and  C_6
REMARK    6  A    between atoms: N_5  and  C_10
REMARK    7  A    between atoms: C_6  and  C_7
REMARK    8  A    between atoms: C_7  and  C_8
REMARK    9  A    between atoms: C_8  and  C_9
REMARK   10  A    between atoms: C_10  and  C_11
REMARK   11  A    between atoms: C_11  and  C_12
REMARK   12  A    between atoms: C_12  and  O_13
REMARK   13  A    between atoms: O_13  and  C_14
REMARK   14  A    between atoms: C_17  and  C_18
REMARK   15  A    between atoms: C_21  and  C_22
REMARK   16  A    between atoms: C_24  and  C_25
REMARK                            x       y       z     vdW  Elec       q    Type
REMARK                         _______ _______ _______ _____ _____    ______ ____
ROOT
ATOM      1  C   UNL     1       1.223   8.616  20.716  0.00  0.00    +0.000 A 
ATOM      2  C   UNL     1       0.935   8.578  22.081  0.00  0.00    +0.000 A 
ATOM      3  C   UNL     1       0.230   9.615  22.681  0.00  0.00    +0.000 A 
ATOM      4  C   UNL     1      -0.197  10.719  21.934  0.00  0.00    +0.000 A 
ATOM      5  C   UNL     1       0.060  10.746  20.560  0.00  0.00    +0.000 A 
ATOM      6  C   UNL     1       0.774   9.699  19.956  0.00  0.00    +0.000 A 
ENDROOT
BRANCH   4   7
ATOM      7  C   UNL     1      -0.862  11.820  22.603  0.00  0.00    +0.000 A 
ATOM      8  C   UNL     1      -2.162  11.769  23.059  0.00  0.00    +0.000 A 
ATOM      9  N   UNL     1      -2.422  12.996  23.607  0.00  0.00    +0.000 N 
ATOM     10  C   UNL     1      -3.590  13.490  24.214  0.00  0.00    +0.000 A 
ATOM     11  C   UNL     1      -4.808  12.631  24.374  0.00  0.00    +0.000 C 
ATOM     12  C   UNL     1      -3.575  14.764  24.657  0.00  0.00    +0.000 A 
ATOM     13  C   UNL     1      -2.381  15.588  24.497  0.00  0.00    +0.000 A 
ATOM     14  C   UNL     1      -2.432  17.000  24.994  0.00  0.00    +0.000 C 
ATOM     15  C   UNL     1      -1.269  15.082  23.919  0.00  0.00    +0.000 A 
ATOM     16  C   UNL     1      -1.252  13.738  23.454  0.00  0.00    +0.000 A 
ATOM     17  N   UNL     1      -0.296  13.037  22.875  0.00  0.00    +0.000 NA
ENDBRANCH   4   7
BRANCH   1  18
ATOM     18  O   UNL     1       1.936   7.653  20.044  0.00  0.00    +0.000 OA
BRANCH  18  19
ATOM     19  C   UNL     1       2.192   7.964  18.669  0.00  0.00    +0.000 C 
BRANCH  19  20
ATOM     20  C   UNL     1       3.212   6.996  18.089  0.00  0.00    +0.000 C 
BRANCH  20  21
ATOM     21  C   UNL     1       2.572   5.624  17.820  0.00  0.00    +0.000 C 
BRANCH  21  22
ATOM     22  N   UNL     1       3.492   4.458  17.892  0.00  0.00    +0.000 NA
BRANCH  22  23
ATOM     23  C   UNL     1       4.779   4.806  17.239  0.00  0.00    +0.000 C 
BRANCH  23  24
ATOM     24  C   UNL     1       6.082   4.608  18.028  0.00  0.00    +0.000 C 
BRANCH  24  26
ATOM     25  C   UNL     1       7.821   6.166  18.939  0.00  0.00    +0.000 C 
ATOM     26  C   UNL     1       7.198   5.590  17.672  0.00  0.00    +0.000 C 
ENDBRANCH  24  26
ENDBRANCH  23  24
ENDBRANCH  22  23
BRANCH  22  27
ATOM     27  C   UNL     1       3.703   4.044  19.299  0.00  0.00    +0.000 C 
BRANCH  27  28
ATOM     28  C   UNL     1       3.164   2.657  19.705  0.00  0.00    +0.000 C 
BRANCH  28  29
ATOM     29  C   UNL     1       1.664   2.625  20.004  0.00  0.00    +0.000 C 
ATOM     30  C   UNL     1       1.231   3.894  20.730  0.00  0.00    +0.000 C 
ENDBRANCH  28  29
ENDBRANCH  27  28
ENDBRANCH  22  27
ENDBRANCH  21  22
ENDBRANCH  20  21
ENDBRANCH  19  20
ENDBRANCH  18  19
ENDBRANCH   1  18
TORSDOF 12
ENDMDL
MODEL 9
REMARK VINA RESULT:      -6.5      5.268      9.043
REMARK  Name = 
REMARK  16 active torsions:
REMARK  status: ('A' for Active; 'I' for Inactive)
REMARK    1  A    between atoms: C_1  and  C_2
REMARK    2  A    between atoms: C_2  and  C_3
REMARK    3  A    between atoms: C_3  and  C_4
REMARK    4  A    between atoms: C_4  and  N_5
REMARK    5  A    between atoms: N_5  and  C_6
REMARK    6  A    between atoms: N_5  and  C_10
REMARK    7  A    between atoms: C_6  and  C_7
REMARK    8  A    between atoms: C_7  and  C_8
REMARK    9  A    between atoms: C_8  and  C_9
REMARK   10  A    between atoms: C_10  and  C_11
REMARK   11  A    between atoms: C_11  and  C_12
REMARK   12  A    between atoms: C_12  and  O_13
REMARK   13  A    between atoms: O_13  and  C_14
REMARK   14  A    between atoms: C_17  and  C_18
REMARK   15  A    between atoms: C_21  and  C_22
REMARK   16  A    between atoms: C_24  and  C_25
REMARK                            x       y       z     vdW  Elec       q    Type
REMARK                         _______ _______ _______ _____ _____    ______ ____
ROOT
ATOM      1  C   UNL     1       0.209   9.827  20.542  0.00  0.00    +0.000 A 
ATOM      2  C   UNL     1       0.805   8.720  21.147  0.00  0.00    +0.000 A 
ATOM      3  C   UNL     1       1.651   7.890  20.420  0.00  0.00    +0.000 A 
ATOM      4  C   UNL     1       1.917   8.142  19.070  0.00  0.00    +0.000 A 
ATOM      5  C   UNL     1       1.349   9.269  18.467  0.00  0.00    +0.000 A 
ATOM      6  C   UNL     1       0.492  10.104  19.202  0.00  0.00    +0.000 A 
ENDROOT
BRANCH   4   7
ATOM      7  C   UNL     1       2.741   7.215  18.318  0.00  0.00    +0.000 A 
ATOM      8  C   UNL     1       2.554   5.849  18.316  0.00  0.00    +0.000 A 
ATOM      9  N   UNL     1       3.533   5.333  17.511  0.00  0.00    +0.000 N 
ATOM     10  C   UNL     1       3.810   4.000  17.159  0.00  0.00    +0.000 A 
ATOM     11  C   UNL     1       2.959   2.871  17.657  0.00  0.00    +0.000 C 
ATOM     12  C   UNL     1       4.865   3.771  16.351  0.00  0.00    +0.000 A 
ATOM     13  C   UNL     1       5.684   4.880  15.873  0.00  0.00    +0.000 A 
ATOM     14  C   UNL     1       6.853   4.561  14.992  0.00  0.00    +0.000 C 
ATOM     15  C   UNL     1       5.388   6.153  16.219  0.00  0.00    +0.000 A 
ATOM     16  C   UNL     1       4.274   6.425  17.060  0.00  0.00    +0.000 A 
ATOM     17  N   UNL     1       3.794   7.566  17.516  0.00  0.00    +0.000 NA
ENDBRANCH   4   7
BRANCH   1  18
ATOM     18  O   UNL     1      -0.660  10.685  21.171  0.00  0.00    +0.000 OA
BRANCH  18  19
ATOM     19  C   UNL     1      -0.163  12.020  21.321  0.00  0.00    +0.000 C 
BRANCH  19  20
ATOM     20  C   UNL     1      -1.300  13.023  21.204  0.00  0.00    +0.000 C 
BRANCH  20  21
ATOM     21  C   UNL     1      -2.198  12.696  20.000  0.00  0.00    +0.000 C 
BRANCH  21  22
ATOM     22  N   UNL     1      -3.649  12.565  20.293  0.00  0.00    +0.000 NA
BRANCH  22  23
ATOM     23  C   UNL     1      -4.198  13.895  20.659  0.00  0.00    +0.000 C 
BRANCH  23  24
ATOM     24  C   UNL     1      -4.694  14.118  22.096  0.00  0.00    +0.000 C 
BRANCH  24  26
ATOM     25  C   UNL     1      -5.779  12.835  23.955  0.00  0.00    +0.000 C 
ATOM     26  C   UNL     1      -4.588  12.893  23.004  0.00  0.00    +0.000 C 
ENDBRANCH  24  26
ENDBRANCH  23  24
ENDBRANCH  22  23
BRANCH  22  27
ATOM     27  C   UNL     1      -4.369  11.992  19.132  0.00  0.00    +0.000 C 
BRANCH  27  28
ATOM     28  C   UNL     1      -3.517  11.604  17.906  0.00  0.00    +0.000 C 
BRANCH  28  29
ATOM     29  C   UNL     1      -3.287  10.100  17.748  0.00  0.00    +0.000 C 
ATOM     30  C   UNL     1      -2.248   9.823  16.666  0.00  0.00    +0.000 C 
ENDBRANCH  28  29
ENDBRANCH  27  28
ENDBRANCH  22  27
ENDBRANCH  21  22
ENDBRANCH  20  21
ENDBRANCH  19  20
ENDBRANCH  18  19
ENDBRANCH   1  18
TORSDOF 12
ENDMDL
