MODEL 1
REMARK VINA RESULT:      -6.0      0.000      0.000
REMARK  Name = 
REMARK  6 active torsions:
REMARK  status: ('A' for Active; 'I' for Inactive)
REMARK    1  A    between atoms: C_2  and  C_3
REMARK    2  A    between atoms: C_3  and  C_4
REMARK    3  A    between atoms: C_4  and  C_5
REMARK    4  A    between atoms: N_6  and  O_7
REMARK    5  A    between atoms: C_11  and  C_12
REMARK    6  A    between atoms: C_11  and  C_13
REMARK                            x       y       z     vdW  Elec       q    Type
REMARK                         _______ _______ _______ _____ _____    ______ ____
ROOT
ATOM      1  C   UNL     1       4.936   4.611  18.099  0.00  0.00    +0.000 C 
ATOM      2  C   UNL     1       4.040   5.865  18.088  0.00  0.00    +0.000 C 
ATOM      3  C   UNL     1       2.557   5.532  18.102  0.00  0.00    +0.000 C 
ATOM      4  O   UNL     1       2.219   4.712  19.216  0.00  0.00    +0.000 OA
ATOM      5  C   UNL     1       2.890   3.449  19.276  0.00  0.00    +0.000 C 
ATOM      6  C   UNL     1       2.542   2.860  20.657  0.00  0.00    +0.000 C 
ATOM      7  C   UNL     1       2.314   2.484  18.231  0.00  0.00    +0.000 C 
ATOM      8  C   UNL     1       4.424   3.637  19.193  0.00  0.00    +0.000 C 
ENDROOT
BRANCH   1   9
ATOM      9  C   UNL     1       6.372   4.976  18.497  0.00  0.00    +0.000 C 
ATOM     10  N   UNL     1       6.701   5.266  19.716  0.00  0.00    +0.000 NA
BRANCH  10  11
ATOM     11  O   UNL     1       8.077   5.509  19.777  0.00  0.00    +0.000 OA
ATOM     12  H   UNL     1       8.391   4.782  20.349  0.00  0.00    +0.000 HD
ENDBRANCH  10  11
ENDBRANCH   1   9
BRANCH   1  13
ATOM     13  C   UNL     1       5.017   3.903  16.718  0.00  0.00    +0.000 C 
BRANCH  13  15
ATOM     14  C   UNL     1       5.872   4.258  14.383  0.00  0.00    +0.000 C 
ATOM     15  C   UNL     1       5.452   4.755  15.552  0.00  0.00    +0.000 C 
ENDBRANCH  13  15
ENDBRANCH   1  13
TORSDOF 4
ENDMDL
MODEL 2
REMARK VINA RESULT:      -5.9      1.219      1.271
REMARK  Name = 
REMARK  6 active torsions:
REMARK  status: ('A' for Active; 'I' for Inactive)
REMARK    1  A    between atoms: C_2  and  C_3
REMARK    2  A    between atoms: C_3  and  C_4
REMARK    3  A    between atoms: C_4  and  C_5
REMARK    4  A    between atoms: N_6  and  O_7
REMARK    5  A    between atoms: C_11  and  C_12
REMARK    6  A    between atoms: C_11  and  C_13
REMARK                            x       y       z     vdW  Elec       q    Type
REMARK                         _______ _______ _______ _____ _____    ______ ____
ROOT
ATOM      1  C   UNL     1       4.970   5.436  18.113  0.00  0.00    +0.000 C 
ATOM      2  C   UNL     1       4.492   6.857  17.759  0.00  0.00    +0.000 C 
ATOM      3  C   UNL     1       2.978   6.981  17.729  0.00  0.00    +0.000 C 
ATOM      4  O   UNL     1       2.399   6.575  18.965  0.00  0.00    +0.000 OA
ATOM      5  C   UNL     1       2.659   5.223  19.351  0.00  0.00    +0.000 C 
ATOM      6  C   UNL     1       2.136   5.096  20.796  0.00  0.00    +0.000 C 
ATOM      7  C   UNL     1       1.829   4.252  18.499  0.00  0.00    +0.000 C 
ATOM      8  C   UNL     1       4.178   4.933  19.349  0.00  0.00    +0.000 C 
ENDROOT
BRANCH   1   9
ATOM      9  C   UNL     1       6.445   5.450  18.534  0.00  0.00    +0.000 C 
ATOM     10  N   UNL     1       6.813   5.369  19.773  0.00  0.00    +0.000 NA
BRANCH  10  11
ATOM     11  O   UNL     1       8.211   5.361  19.839  0.00  0.00    +0.000 OA
ATOM     12  H   UNL     1       8.431   4.478  19.481  0.00  0.00    +0.000 HD
ENDBRANCH  10  11
ENDBRANCH   1   9
BRANCH   1  13
ATOM     13  C   UNL     1       4.848   4.435  16.930  0.00  0.00    +0.000 C 
BRANCH  13  15
ATOM     14  C   UNL     1       6.251   4.139  14.869  0.00  0.00    +0.000 C 
ATOM     15  C   UNL     1       5.423   4.883  15.610  0.00  0.00    +0.000 C 
ENDBRANCH  13  15
ENDBRANCH   1  13
TORSDOF 4
ENDMDL
MODEL 3
REMARK VINA RESULT:      -5.9      1.218      1.422
REMARK  Name = 
REMARK  6 active torsions:
REMARK  status: ('A' for Active; 'I' for Inactive)
REMARK    1  A    between atoms: C_2  and  C_3
REMARK    2  A    between atoms: C_3  and  C_4
REMARK    3  A    between atoms: C_4  and  C_5
REMARK    4  A    between atoms: N_6  and  O_7
REMARK    5  A    between atoms: C_11  and  C_12
REMARK    6  A    between atoms: C_11  and  C_13
REMARK                            x       y       z     vdW  Elec       q    Type
REMARK                         _______ _______ _______ _____ _____    ______ ____
ROOT
ATOM      1  C   UNL     1       4.719   5.317  18.554  0.00  0.00    +0.000 C 
ATOM      2  C   UNL     1       3.749   5.673  19.696  0.00  0.00    +0.000 C 
ATOM      3  C   UNL     1       2.402   4.982  19.565  0.00  0.00    +0.000 C 
ATOM      4  O   UNL     1       2.549   3.568  19.486  0.00  0.00    +0.000 OA
ATOM      5  C   UNL     1       3.326   3.092  18.383  0.00  0.00    +0.000 C 
ATOM      6  C   UNL     1       3.530   1.586  18.640  0.00  0.00    +0.000 C 
ATOM      7  C   UNL     1       2.532   3.210  17.075  0.00  0.00    +0.000 C 
ATOM      8  C   UNL     1       4.712   3.778  18.350  0.00  0.00    +0.000 C 
ENDROOT
BRANCH   1   9
ATOM      9  C   UNL     1       6.160   5.685  18.932  0.00  0.00    +0.000 C 
ATOM     10  N   UNL     1       6.842   5.012  19.803  0.00  0.00    +0.000 NA
BRANCH  10  11
ATOM     11  O   UNL     1       8.128   5.555  19.902  0.00  0.00    +0.000 OA
ATOM     12  H   UNL     1       7.997   6.282  20.542  0.00  0.00    +0.000 HD
ENDBRANCH  10  11
ENDBRANCH   1   9
BRANCH   1  13
ATOM     13  C   UNL     1       4.399   6.055  17.224  0.00  0.00    +0.000 C 
BRANCH  13  15
ATOM     14  C   UNL     1       5.598   5.382  15.123  0.00  0.00    +0.000 C 
ATOM     15  C   UNL     1       5.521   6.143  16.220  0.00  0.00    +0.000 C 
ENDBRANCH  13  15
ENDBRANCH   1  13
TORSDOF 4
ENDMDL
MODEL 4
REMARK VINA RESULT:      -5.9      1.728      2.450
REMARK  Name = 
REMARK  6 active torsions:
REMARK  status: ('A' for Active; 'I' for Inactive)
REMARK    1  A    between atoms: C_2  and  C_3
REMARK    2  A    between atoms: C_3  and  C_4
REMARK    3  A    between atoms: C_4  and  C_5
REMARK    4  A    between atoms: N_6  and  O_7
REMARK    5  A    between atoms: C_11  and  C_12
REMARK    6  A    between atoms: C_11  and  C_13
REMARK                            x       y       z     vdW  Elec       q    Type
REMARK                         _______ _______ _______ _____ _____    ______ ____
ROOT
ATOM      1  C   UNL     1       4.737   4.869  17.920  0.00  0.00    +0.000 C 
ATOM      2  C   UNL     1       4.661   5.222  19.418  0.00  0.00    +0.000 C 
ATOM      3  C   UNL     1       3.249   5.139  19.974  0.00  0.00    +0.000 C 
ATOM      4  O   UNL     1       2.679   3.853  19.756  0.00  0.00    +0.000 OA
ATOM      5  C   UNL     1       2.569   3.453  18.387  0.00  0.00    +0.000 C 
ATOM      6  C   UNL     1       2.151   1.970  18.420  0.00  0.00    +0.000 C 
ATOM      7  C   UNL     1       1.430   4.213  17.694  0.00  0.00    +0.000 C 
ATOM      8  C   UNL     1       3.936   3.563  17.670  0.00  0.00    +0.000 C 
ENDROOT
BRANCH   1   9
ATOM      9  C   UNL     1       6.183   4.562  17.509  0.00  0.00    +0.000 C 
ATOM     10  N   UNL     1       7.137   4.435  18.374  0.00  0.00    +0.000 NA
BRANCH  10  11
ATOM     11  O   UNL     1       8.325   4.115  17.707  0.00  0.00    +0.000 OA
ATOM     12  H   UNL     1       7.999   3.806  16.839  0.00  0.00    +0.000 HD
ENDBRANCH  10  11
ENDBRANCH   1   9
BRANCH   1  13
ATOM     13  C   UNL     1       4.237   6.013  16.994  0.00  0.00    +0.000 C 
BRANCH  13  15
ATOM     14  C   UNL     1       2.817   7.964  17.688  0.00  0.00    +0.000 C 
ATOM     15  C   UNL     1       4.006   7.352  17.648  0.00  0.00    +0.000 C 
ENDBRANCH  13  15
ENDBRANCH   1  13
TORSDOF 4
ENDMDL
MODEL 5
REMARK VINA RESULT:      -5.8      1.631      1.683
REMARK  Name = 
REMARK  6 active torsions:
REMARK  status: ('A' for Active; 'I' for Inactive)
REMARK    1  A    between atoms: C_2  and  C_3
REMARK    2  A    between atoms: C_3  and  C_4
REMARK    3  A    between atoms: C_4  and  C_5
REMARK    4  A    between atoms: N_6  and  O_7
REMARK    5  A    between atoms: C_11  and  C_12
REMARK    6  A    between atoms: C_11  and  C_13
REMARK                            x       y       z     vdW  Elec       q    Type
REMARK                         _______ _______ _______ _____ _____    ______ ____
ROOT
ATOM      1  C   UNL     1       5.032   5.300  17.382  0.00  0.00    +0.000 C 
ATOM      2  C   UNL     1       3.846   6.140  17.893  0.00  0.00    +0.000 C 
ATOM      3  C   UNL     1       2.628   5.299  18.233  0.00  0.00    +0.000 C 
ATOM      4  O   UNL     1       2.944   4.288  19.186  0.00  0.00    +0.000 OA
ATOM      5  C   UNL     1       3.947   3.353  18.780  0.00  0.00    +0.000 C 
ATOM      6  C   UNL     1       4.272   2.522  20.037  0.00  0.00    +0.000 C 
ATOM      7  C   UNL     1       3.381   2.374  17.742  0.00  0.00    +0.000 C 
ATOM      8  C   UNL     1       5.233   4.087  18.329  0.00  0.00    +0.000 C 
ENDROOT
BRANCH   1   9
ATOM      9  C   UNL     1       6.336   6.106  17.448  0.00  0.00    +0.000 C 
ATOM     10  N   UNL     1       6.497   7.217  16.802  0.00  0.00    +0.000 NA
BRANCH  10  11
ATOM     11  O   UNL     1       7.762   7.740  17.092  0.00  0.00    +0.000 OA
ATOM     12  H   UNL     1       7.661   8.679  16.842  0.00  0.00    +0.000 HD
ENDBRANCH  10  11
ENDBRANCH   1   9
BRANCH   1  13
ATOM     13  C   UNL     1       4.864   4.834  15.909  0.00  0.00    +0.000 C 
BRANCH  13  15
ATOM     14  C   UNL     1       6.335   3.947  14.077  0.00  0.00    +0.000 C 
ATOM     15  C   UNL     1       5.953   3.947  15.358  0.00  0.00    +0.000 C 
ENDBRANCH  13  15
ENDBRANCH   1  13
TORSDOF 4
ENDMDL
MODEL 6
REMARK VINA RESULT:      -5.8      2.558      3.718
REMARK  Name = 
REMARK  6 active torsions:
REMARK  status: ('A' for Active; 'I' for Inactive)
REMARK    1  A    between atoms: C_2  and  C_3
REMARK    2  A    between atoms: C_3  and  C_4
REMARK    3  A    between atoms: C_4  and  C_5
REMARK    4  A    between atoms: N_6  and  O_7
REMARK    5  A    between atoms: C_11  and  C_12
REMARK    6  A    between atoms: C_11  and  C_13
REMARK                            x       y       z     vdW  Elec       q    Type
REMARK                         _______ _______ _______ _____ _____    ______ ____
ROOT
ATOM      1  C   UNL     1       5.644   5.023  16.738  0.00  0.00    +0.000 C 
ATOM      2  C   UNL     1       4.720   3.874  16.290  0.00  0.00    +0.000 C 
ATOM      3  C   UNL     1       3.618   3.576  17.293  0.00  0.00    +0.000 C 
ATOM      4  O   UNL     1       2.840   4.736  17.570  0.00  0.00    +0.000 OA
ATOM      5  C   UNL     1       3.560   5.843  18.119  0.00  0.00    +0.000 C 
ATOM      6  C   UNL     1       2.570   7.025  18.113  0.00  0.00    +0.000 C 
ATOM      7  C   UNL     1       3.916   5.577  19.588  0.00  0.00    +0.000 C 
ATOM      8  C   UNL     1       4.770   6.209  17.227  0.00  0.00    +0.000 C 
ENDROOT
BRANCH   1   9
ATOM      9  C   UNL     1       6.456   5.559  15.552  0.00  0.00    +0.000 C 
ATOM     10  N   UNL     1       7.388   4.865  14.981  0.00  0.00    +0.000 NA
BRANCH  10  11
ATOM     11  O   UNL     1       7.915   5.594  13.909  0.00  0.00    +0.000 OA
ATOM     12  H   UNL     1       8.878   5.526  14.065  0.00  0.00    +0.000 HD
ENDBRANCH  10  11
ENDBRANCH   1   9
BRANCH   1  13
ATOM     13  C   UNL     1       6.665   4.599  17.830  0.00  0.00    +0.000 C 
BRANCH  13  15
ATOM     14  C   UNL     1       7.951   5.727  19.668  0.00  0.00    +0.000 C 
ATOM     15  C   UNL     1       7.533   5.694  18.398  0.00  0.00    +0.000 C 
ENDBRANCH  13  15
ENDBRANCH   1  13
TORSDOF 4
ENDMDL
MODEL 7
REMARK VINA RESULT:      -5.8      2.818      3.809
REMARK  Name = 
REMARK  6 active torsions:
REMARK  status: ('A' for Active; 'I' for Inactive)
REMARK    1  A    between atoms: C_2  and  C_3
REMARK    2  A    between atoms: C_3  and  C_4
REMARK    3  A    between atoms: C_4  and  C_5
REMARK    4  A    between atoms: N_6  and  O_7
REMARK    5  A    between atoms: C_11  and  C_12
REMARK    6  A    between atoms: C_11  and  C_13
REMARK                            x       y       z     vdW  Elec       q    Type
REMARK                         _______ _______ _______ _____ _____    ______ ____
ROOT
ATOM      1  C   UNL     1       5.963   5.534  17.040  0.00  0.00    +0.000 C 
ATOM      2  C   UNL     1       6.419   4.701  18.254  0.00  0.00    +0.000 C 
ATOM      3  C   UNL     1       5.460   4.795  19.429  0.00  0.00    +0.000 C 
ATOM      4  O   UNL     1       4.140   4.414  19.055  0.00  0.00    +0.000 OA
ATOM      5  C   UNL     1       3.544   5.199  18.018  0.00  0.00    +0.000 C 
ATOM      6  C   UNL     1       2.243   4.466  17.639  0.00  0.00    +0.000 C 
ATOM      7  C   UNL     1       3.130   6.576  18.557  0.00  0.00    +0.000 C 
ATOM      8  C   UNL     1       4.461   5.253  16.773  0.00  0.00    +0.000 C 
ENDROOT
BRANCH   1   9
ATOM      9  C   UNL     1       6.707   5.095  15.772  0.00  0.00    +0.000 C 
ATOM     10  N   UNL     1       6.538   5.684  14.631  0.00  0.00    +0.000 NA
BRANCH  10  11
ATOM     11  O   UNL     1       7.379   5.095  13.680  0.00  0.00    +0.000 OA
ATOM     12  H   UNL     1       6.944   4.234  13.524  0.00  0.00    +0.000 HD
ENDBRANCH  10  11
ENDBRANCH   1   9
BRANCH   1  13
ATOM     13  C   UNL     1       6.222   7.057  17.211  0.00  0.00    +0.000 C 
BRANCH  13  15
ATOM     14  C   UNL     1       8.010   8.720  17.798  0.00  0.00    +0.000 C 
ATOM     15  C   UNL     1       7.590   7.453  17.708  0.00  0.00    +0.000 C 
ENDBRANCH  13  15
ENDBRANCH   1  13
TORSDOF 4
ENDMDL
MODEL 8
REMARK VINA RESULT:      -5.7      2.762      3.615
REMARK  Name = 
REMARK  6 active torsions:
REMARK  status: ('A' for Active; 'I' for Inactive)
REMARK    1  A    between atoms: C_2  and  C_3
REMARK    2  A    between atoms: C_3  and  C_4
REMARK    3  A    between atoms: C_4  and  C_5
REMARK    4  A    between atoms: N_6  and  O_7
REMARK    5  A    between atoms: C_11  and  C_12
REMARK    6  A    between atoms: C_11  and  C_13
REMARK                            x       y       z     vdW  Elec       q    Type
REMARK                         _______ _______ _______ _____ _____    ______ ____
ROOT
ATOM      1  C   UNL     1       5.452   4.828  16.847  0.00  0.00    +0.000 C 
ATOM      2  C   UNL     1       5.973   4.338  18.211  0.00  0.00    +0.000 C 
ATOM      3  C   UNL     1       5.188   4.906  19.383  0.00  0.00    +0.000 C 
ATOM      4  O   UNL     1       3.800   4.615  19.268  0.00  0.00    +0.000 OA
ATOM      5  C   UNL     1       3.158   5.131  18.098  0.00  0.00    +0.000 C 
ATOM      6  C   UNL     1       1.750   4.502  18.086  0.00  0.00    +0.000 C 
ATOM      7  C   UNL     1       2.958   6.648  18.220  0.00  0.00    +0.000 C 
ATOM      8  C   UNL     1       3.906   4.688  16.819  0.00  0.00    +0.000 C 
ENDROOT
BRANCH   1   9
ATOM      9  C   UNL     1       5.977   3.936  15.714  0.00  0.00    +0.000 C 
ATOM     10  N   UNL     1       5.780   4.214  14.465  0.00  0.00    +0.000 NA
BRANCH  10  11
ATOM     11  O   UNL     1       6.411   3.248  13.673  0.00  0.00    +0.000 OA
ATOM     12  H   UNL     1       5.652   2.769  13.287  0.00  0.00    +0.000 HD
ENDBRANCH  10  11
ENDBRANCH   1   9
BRANCH   1  13
ATOM     13  C   UNL     1       5.884   6.283  16.512  0.00  0.00    +0.000 C 
BRANCH  13  15
ATOM     14  C   UNL     1       7.599   7.736  17.632  0.00  0.00    +0.000 C 
ATOM     15  C   UNL     1       7.293   6.667  16.888  0.00  0.00    +0.000 C 
ENDBRANCH  13  15
ENDBRANCH   1  13
TORSDOF 4
ENDMDL
MODEL 9
REMARK VINA RESULT:      -5.7      1.883      4.615
REMARK  Name = 
REMARK  6 active torsions:
REMARK  status: ('A' for Active; 'I' for Inactive)
REMARK    1  A    between atoms: C_2  and  C_3
REMARK    2  A    between atoms: C_3  and  C_4
REMARK    3  A    between atoms: C_4  and  C_5
REMARK    4  A    between atoms: N_6  and  O_7
REMARK    5  A    between atoms: C_11  and  C_12
REMARK    6  A    between atoms: C_11  and  C_13
REMARK                            x       y       z     vdW  Elec       q    Type
REMARK                         _______ _______ _______ _____ _____    ______ ____
ROOT
ATOM      1  C   UNL     1       4.813   4.950  17.681  0.00  0.00    +0.000 C 
ATOM      2  C   UNL     1       5.461   4.070  16.595  0.00  0.00    +0.000 C 
ATOM      3  C   UNL     1       6.795   4.615  16.112  0.00  0.00    +0.000 C 
ATOM      4  O   UNL     1       7.706   4.791  17.192  0.00  0.00    +0.000 OA
ATOM      5  C   UNL     1       7.278   5.694  18.216  0.00  0.00    +0.000 C 
ATOM      6  C   UNL     1       8.302   5.542  19.357  0.00  0.00    +0.000 C 
ATOM      7  C   UNL     1       7.379   7.146  17.728  0.00  0.00    +0.000 C 
ATOM      8  C   UNL     1       5.882   5.298  18.750  0.00  0.00    +0.000 C 
ENDROOT
BRANCH   1   9
ATOM      9  C   UNL     1       3.714   4.175  18.420  0.00  0.00    +0.000 C 
ATOM     10  N   UNL     1       3.968   3.397  19.423  0.00  0.00    +0.000 NA
BRANCH  10  11
ATOM     11  O   UNL     1       2.769   2.869  19.914  0.00  0.00    +0.000 OA
ATOM     12  H   UNL     1       2.806   1.944  19.600  0.00  0.00    +0.000 HD
ENDBRANCH  10  11
ENDBRANCH   1   9
BRANCH   1  13
ATOM     13  C   UNL     1       4.153   6.238  17.114  0.00  0.00    +0.000 C 
BRANCH  13  15
ATOM     14  C   UNL     1       2.689   8.164  17.784  0.00  0.00    +0.000 C 
ATOM     15  C   UNL     1       3.161   6.934  18.012  0.00  0.00    +0.000 C 
ENDBRANCH  13  15
ENDBRANCH   1  13
TORSDOF 4
ENDMDL
