MODEL 1
REMARK VINA RESULT:      -5.8      0.000      0.000
REMARK  Name = 
REMARK  7 active torsions:
REMARK  status: ('A' for Active; 'I' for Inactive)
REMARK    1  A    between atoms: C_1  and  C_2
REMARK    2  A    between atoms: C_2  and  C_3
REMARK    3  A    between atoms: C_3  and  C_4
REMARK    4  A    between atoms: C_4  and  O_6
REMARK    5  A    between atoms: C_8  and  C_9
REMARK    6  A    between atoms: C_16  and  C_17
REMARK    7  A    between atoms: N_24  and  C_25
REMARK                            x       y       z     vdW  Elec       q    Type
REMARK                         _______ _______ _______ _____ _____    ______ ____
ROOT
ATOM      1  C   UNL     1      -4.351  12.266  24.933  0.00  0.00    +0.000 C 
ATOM      2  C   UNL     1      -3.786  13.016  23.708  0.00  0.00    +0.000 C 
ATOM      3  C   UNL     1      -2.854  12.043  22.959  0.00  0.00    +0.000 C 
ATOM      4  C   UNL     1      -2.047  12.733  21.849  0.00  0.00    +0.000 C 
ATOM      5  C   UNL     1      -1.283  13.969  22.430  0.00  0.00    +0.000 C 
ATOM      6  N   UNL     1      -2.227  14.875  23.128  0.00  0.00    +0.000 N 
ATOM      7  C   UNL     1      -2.973  14.261  24.149  0.00  0.00    +0.000 C 
ATOM      8  O   UNL     1      -3.041  14.697  25.293  0.00  0.00    +0.000 OA
ENDROOT
BRANCH   4   9
ATOM      9  C   UNL     1      -1.202  11.688  21.129  0.00  0.00    +0.000 A 
ATOM     10  C   UNL     1      -0.116  11.045  21.741  0.00  0.00    +0.000 A 
ATOM     11  C   UNL     1       0.660  10.125  21.035  0.00  0.00    +0.000 A 
ATOM     12  C   UNL     1       0.339   9.806  19.718  0.00  0.00    +0.000 A 
ATOM     13  C   UNL     1      -0.756  10.412  19.110  0.00  0.00    +0.000 A 
ATOM     14 CL   UNL     1      -1.167  10.006  17.490  0.00  0.00    +0.000 Cl
ATOM     15  C   UNL     1      -1.523  11.347  19.804  0.00  0.00    +0.000 A 
ENDBRANCH   4   9
BRANCH   5  16
ATOM     16  C   UNL     1      -0.429  14.600  21.333  0.00  0.00    +0.000 A 
ATOM     17  C   UNL     1       0.959  14.766  21.504  0.00  0.00    +0.000 A 
ATOM     18  C   UNL     1       1.711  15.424  20.533  0.00  0.00    +0.000 A 
ATOM     19  C   UNL     1       1.100  15.918  19.385  0.00  0.00    +0.000 A 
ATOM     20 CL   UNL     1       2.034  16.744  18.200  0.00  0.00    +0.000 Cl
ATOM     21  C   UNL     1      -0.272  15.752  19.198  0.00  0.00    +0.000 A 
ATOM     22  C   UNL     1      -1.024  15.086  20.159  0.00  0.00    +0.000 A 
ENDBRANCH   5  16
BRANCH   6  23
ATOM     23  C   UNL     1      -1.994  16.343  23.165  0.00  0.00    +0.000 C 
ATOM     24  C   UNL     1      -3.315  17.113  23.211  0.00  0.00    +0.000 C 
ATOM     25  C   UNL     1      -2.922  18.547  23.495  0.00  0.00    +0.000 C 
ATOM     26  C   UNL     1      -1.644  18.456  24.327  0.00  0.00    +0.000 C 
ATOM     27  C   UNL     1      -1.193  16.980  24.306  0.00  0.00    +0.000 C 
ENDBRANCH   6  23
BRANCH   2  28
ATOM     28  C   UNL     1      -4.978  13.407  22.796  0.00  0.00    +0.000 C 
BRANCH  28  29
ATOM     29  C   UNL     1      -6.216  13.891  23.517  0.00  0.00    +0.000 C 
ATOM     30  O   UNL     1      -7.269  13.273  23.543  0.00  0.00    +0.000 OA
BRANCH  29  31
ATOM     31  O   UNL     1      -6.050  15.044  24.200  0.00  0.00    +0.000 OA
ATOM     32  H   UNL     1      -6.330  15.023  25.133  0.00  0.00    +0.000 HD
ENDBRANCH  29  31
ENDBRANCH  28  29
ENDBRANCH   2  28
TORSDOF 6
ENDMDL
MODEL 2
REMARK VINA RESULT:      -5.7      1.290      1.879
REMARK  Name = 
REMARK  7 active torsions:
REMARK  status: ('A' for Active; 'I' for Inactive)
REMARK    1  A    between atoms: C_1  and  C_2
REMARK    2  A    between atoms: C_2  and  C_3
REMARK    3  A    between atoms: C_3  and  C_4
REMARK    4  A    between atoms: C_4  and  O_6
REMARK    5  A    between atoms: C_8  and  C_9
REMARK    6  A    between atoms: C_16  and  C_17
REMARK    7  A    between atoms: N_24  and  C_25
REMARK                            x       y       z     vdW  Elec       q    Type
REMARK                         _______ _______ _______ _____ _____    ______ ____
ROOT
ATOM      1  C   UNL     1      -4.484  12.434  24.785  0.00  0.00    +0.000 C 
ATOM      2  C   UNL     1      -3.802  13.189  23.625  0.00  0.00    +0.000 C 
ATOM      3  C   UNL     1      -2.913  12.177  22.874  0.00  0.00    +0.000 C 
ATOM      4  C   UNL     1      -2.000  12.848  21.837  0.00  0.00    +0.000 C 
ATOM      5  C   UNL     1      -1.171  13.991  22.510  0.00  0.00    +0.000 C 
ATOM      6  N   UNL     1      -2.074  14.939  23.206  0.00  0.00    +0.000 N 
ATOM      7  C   UNL     1      -2.916  14.344  24.161  0.00  0.00    +0.000 C 
ATOM      8  O   UNL     1      -3.007  14.733  25.321  0.00  0.00    +0.000 OA
ENDROOT
BRANCH   4   9
ATOM      9  C   UNL     1      -1.205  11.771  21.107  0.00  0.00    +0.000 A 
ATOM     10  C   UNL     1      -1.277  11.592  19.718  0.00  0.00    +0.000 A 
ATOM     11  C   UNL     1      -0.566  10.567  19.091  0.00  0.00    +0.000 A 
ATOM     12  C   UNL     1       0.255   9.729  19.840  0.00  0.00    +0.000 A 
ATOM     13  C   UNL     1       0.361   9.916  21.215  0.00  0.00    +0.000 A 
ATOM     14 CL   UNL     1       1.390   8.895  22.140  0.00  0.00    +0.000 Cl
ATOM     15  C   UNL     1      -0.362  10.926  21.849  0.00  0.00    +0.000 A 
ENDBRANCH   4   9
BRANCH   5  16
ATOM     16  C   UNL     1      -0.217  14.599  21.485  0.00  0.00    +0.000 A 
ATOM     17  C   UNL     1      -0.702  15.136  20.277  0.00  0.00    +0.000 A 
ATOM     18  C   UNL     1       0.186  15.607  19.312  0.00  0.00    +0.000 A 
ATOM     19  C   UNL     1       1.558  15.555  19.534  0.00  0.00    +0.000 A 
ATOM     20 CL   UNL     1       2.648  16.123  18.330  0.00  0.00    +0.000 Cl
ATOM     21  C   UNL     1       2.053  15.035  20.731  0.00  0.00    +0.000 A 
ATOM     22  C   UNL     1       1.170  14.576  21.701  0.00  0.00    +0.000 A 
ENDBRANCH   5  16
BRANCH   6  23
ATOM     23  C   UNL     1      -1.728  16.380  23.324  0.00  0.00    +0.000 C 
ATOM     24  C   UNL     1      -2.986  17.248  23.398  0.00  0.00    +0.000 C 
ATOM     25  C   UNL     1      -2.487  18.631  23.762  0.00  0.00    +0.000 C 
ATOM     26  C   UNL     1      -1.232  18.396  24.601  0.00  0.00    +0.000 C 
ATOM     27  C   UNL     1      -0.897  16.892  24.506  0.00  0.00    +0.000 C 
ENDBRANCH   6  23
BRANCH   2  28
ATOM     28  C   UNL     1      -4.912  13.715  22.679  0.00  0.00    +0.000 C 
BRANCH  28  29
ATOM     29  C   UNL     1      -5.578  12.669  21.813  0.00  0.00    +0.000 C 
ATOM     30  O   UNL     1      -5.245  12.430  20.663  0.00  0.00    +0.000 OA
BRANCH  29  31
ATOM     31  O   UNL     1      -6.539  11.956  22.438  0.00  0.00    +0.000 OA
ATOM     32  H   UNL     1      -6.598  12.086  23.401  0.00  0.00    +0.000 HD
ENDBRANCH  29  31
ENDBRANCH  28  29
ENDBRANCH   2  28
TORSDOF 6
ENDMDL
MODEL 3
REMARK VINA RESULT:      -5.7      3.681      6.128
REMARK  Name = 
REMARK  7 active torsions:
REMARK  status: ('A' for Active; 'I' for Inactive)
REMARK    1  A    between atoms: C_1  and  C_2
REMARK    2  A    between atoms: C_2  and  C_3
REMARK    3  A    between atoms: C_3  and  C_4
REMARK    4  A    between atoms: C_4  and  O_6
REMARK    5  A    between atoms: C_8  and  C_9
REMARK    6  A    between atoms: C_16  and  C_17
REMARK    7  A    between atoms: N_24  and  C_25
REMARK                            x       y       z     vdW  Elec       q    Type
REMARK                         _______ _______ _______ _____ _____    ______ ____
ROOT
ATOM      1  C   UNL     1      -1.594  10.768  18.163  0.00  0.00    +0.000 C 
ATOM      2  C   UNL     1      -1.157  11.661  19.343  0.00  0.00    +0.000 C 
ATOM      3  C   UNL     1      -2.349  11.758  20.316  0.00  0.00    +0.000 C 
ATOM      4  C   UNL     1      -2.127  12.802  21.420  0.00  0.00    +0.000 C 
ATOM      5  C   UNL     1      -1.755  14.184  20.786  0.00  0.00    +0.000 C 
ATOM      6  N   UNL     1      -0.598  14.034  19.871  0.00  0.00    +0.000 N 
ATOM      7  C   UNL     1      -0.783  13.083  18.852  0.00  0.00    +0.000 C 
ATOM      8  O   UNL     1      -0.606  13.323  17.663  0.00  0.00    +0.000 OA
ENDROOT
BRANCH   4   9
ATOM      9  C   UNL     1      -3.326  12.788  22.363  0.00  0.00    +0.000 A 
ATOM     10  C   UNL     1      -3.205  12.499  23.730  0.00  0.00    +0.000 A 
ATOM     11  C   UNL     1      -4.332  12.453  24.553  0.00  0.00    +0.000 A 
ATOM     12  C   UNL     1      -5.591  12.732  24.028  0.00  0.00    +0.000 A 
ATOM     13  C   UNL     1      -5.720  13.053  22.680  0.00  0.00    +0.000 A 
ATOM     14 CL   UNL     1      -7.271  13.417  22.033  0.00  0.00    +0.000 Cl
ATOM     15  C   UNL     1      -4.600  13.080  21.849  0.00  0.00    +0.000 A 
ENDBRANCH   4   9
BRANCH   5  16
ATOM     16  C   UNL     1      -1.609  15.228  21.891  0.00  0.00    +0.000 A 
ATOM     17  C   UNL     1      -0.683  15.047  22.937  0.00  0.00    +0.000 A 
ATOM     18  C   UNL     1      -0.623  15.962  23.986  0.00  0.00    +0.000 A 
ATOM     19  C   UNL     1      -1.472  17.064  24.007  0.00  0.00    +0.000 A 
ATOM     20 CL   UNL     1      -1.402  18.180  25.315  0.00  0.00    +0.000 Cl
ATOM     21  C   UNL     1      -2.387  17.261  22.973  0.00  0.00    +0.000 A 
ATOM     22  C   UNL     1      -2.443  16.356  21.919  0.00  0.00    +0.000 A 
ENDBRANCH   5  16
BRANCH   6  23
ATOM     23  C   UNL     1       0.375  15.141  19.679  0.00  0.00    +0.000 C 
ATOM     24  C   UNL     1       1.751  14.607  19.277  0.00  0.00    +0.000 C 
ATOM     25  C   UNL     1       2.546  15.833  18.880  0.00  0.00    +0.000 C 
ATOM     26  C   UNL     1       1.517  16.817  18.328  0.00  0.00    +0.000 C 
ATOM     27  C   UNL     1       0.122  16.235  18.636  0.00  0.00    +0.000 C 
ENDBRANCH   6  23
BRANCH   2  28
ATOM     28  C   UNL     1       0.039  10.969  20.048  0.00  0.00    +0.000 C 
BRANCH  28  29
ATOM     29  C   UNL     1       1.067  10.351  19.126  0.00  0.00    +0.000 C 
ATOM     30  O   UNL     1       1.312   9.155  19.091  0.00  0.00    +0.000 OA
BRANCH  29  31
ATOM     31  O   UNL     1       1.657  11.223  18.281  0.00  0.00    +0.000 OA
ATOM     32  H   UNL     1       2.340  11.794  18.677  0.00  0.00    +0.000 HD
ENDBRANCH  29  31
ENDBRANCH  28  29
ENDBRANCH   2  28
TORSDOF 6
ENDMDL
MODEL 4
REMARK VINA RESULT:      -5.7      3.318      5.019
REMARK  Name = 
REMARK  7 active torsions:
REMARK  status: ('A' for Active; 'I' for Inactive)
REMARK    1  A    between atoms: C_1  and  C_2
REMARK    2  A    between atoms: C_2  and  C_3
REMARK    3  A    between atoms: C_3  and  C_4
REMARK    4  A    between atoms: C_4  and  O_6
REMARK    5  A    between atoms: C_8  and  C_9
REMARK    6  A    between atoms: C_16  and  C_17
REMARK    7  A    between atoms: N_24  and  C_25
REMARK                            x       y       z     vdW  Elec       q    Type
REMARK                         _______ _______ _______ _____ _____    ______ ____
ROOT
ATOM      1  C   UNL     1      -6.290  10.719  18.760  0.00  0.00    +0.000 C 
ATOM      2  C   UNL     1      -5.675  11.965  19.431  0.00  0.00    +0.000 C 
ATOM      3  C   UNL     1      -4.142  11.835  19.331  0.00  0.00    +0.000 C 
ATOM      4  C   UNL     1      -3.404  12.895  20.162  0.00  0.00    +0.000 C 
ATOM      5  C   UNL     1      -3.914  12.870  21.642  0.00  0.00    +0.000 C 
ATOM      6  N   UNL     1      -5.390  13.010  21.678  0.00  0.00    +0.000 N 
ATOM      7  C   UNL     1      -6.083  12.047  20.925  0.00  0.00    +0.000 C 
ATOM      8  O   UNL     1      -6.989  11.356  21.379  0.00  0.00    +0.000 OA
ENDROOT
BRANCH   4   9
ATOM      9  C   UNL     1      -1.902  12.726  19.958  0.00  0.00    +0.000 A 
ATOM     10  C   UNL     1      -1.244  11.508  20.181  0.00  0.00    +0.000 A 
ATOM     11  C   UNL     1       0.139  11.404  20.024  0.00  0.00    +0.000 A 
ATOM     12  C   UNL     1       0.879  12.507  19.606  0.00  0.00    +0.000 A 
ATOM     13  C   UNL     1       0.233  13.712  19.348  0.00  0.00    +0.000 A 
ATOM     14 CL   UNL     1       1.141  15.071  18.812  0.00  0.00    +0.000 Cl
ATOM     15  C   UNL     1      -1.146  13.827  19.523  0.00  0.00    +0.000 A 
ENDBRANCH   4   9
BRANCH   5  16
ATOM     16  C   UNL     1      -3.121  13.877  22.471  0.00  0.00    +0.000 A 
ATOM     17  C   UNL     1      -2.291  13.450  23.526  0.00  0.00    +0.000 A 
ATOM     18  C   UNL     1      -1.643  14.384  24.331  0.00  0.00    +0.000 A 
ATOM     19  C   UNL     1      -1.804  15.746  24.096  0.00  0.00    +0.000 A 
ATOM     20 CL   UNL     1      -1.013  16.893  25.106  0.00  0.00    +0.000 Cl
ATOM     21  C   UNL     1      -2.615  16.184  23.048  0.00  0.00    +0.000 A 
ATOM     22  C   UNL     1      -3.254  15.254  22.236  0.00  0.00    +0.000 A 
ENDBRANCH   5  16
BRANCH   6  23
ATOM     23  C   UNL     1      -6.067  13.683  22.818  0.00  0.00    +0.000 C 
ATOM     24  C   UNL     1      -7.167  14.627  22.330  0.00  0.00    +0.000 C 
ATOM     25  C   UNL     1      -7.916  15.036  23.581  0.00  0.00    +0.000 C 
ATOM     26  C   UNL     1      -7.796  13.843  24.527  0.00  0.00    +0.000 C 
ATOM     27  C   UNL     1      -6.782  12.864  23.899  0.00  0.00    +0.000 C 
ENDBRANCH   6  23
BRANCH   2  28
ATOM     28  C   UNL     1      -6.148  13.214  18.643  0.00  0.00    +0.000 C 
BRANCH  28  29
ATOM     29  C   UNL     1      -6.291  13.024  17.149  0.00  0.00    +0.000 C 
ATOM     30  O   UNL     1      -7.337  13.193  16.543  0.00  0.00    +0.000 OA
BRANCH  29  31
ATOM     31  O   UNL     1      -5.141  12.716  16.513  0.00  0.00    +0.000 OA
ATOM     32  H   UNL     1      -4.379  13.286  16.721  0.00  0.00    +0.000 HD
ENDBRANCH  29  31
ENDBRANCH  28  29
ENDBRANCH   2  28
TORSDOF 6
ENDMDL
MODEL 5
REMARK VINA RESULT:      -5.6      2.832      6.078
REMARK  Name = 
REMARK  7 active torsions:
REMARK  status: ('A' for Active; 'I' for Inactive)
REMARK    1  A    between atoms: C_1  and  C_2
REMARK    2  A    between atoms: C_2  and  C_3
REMARK    3  A    between atoms: C_3  and  C_4
REMARK    4  A    between atoms: C_4  and  O_6
REMARK    5  A    between atoms: C_8  and  C_9
REMARK    6  A    between atoms: C_16  and  C_17
REMARK    7  A    between atoms: N_24  and  C_25
REMARK                            x       y       z     vdW  Elec       q    Type
REMARK                         _______ _______ _______ _____ _____    ______ ____
ROOT
ATOM      1  C   UNL     1      -3.901  12.399  19.987  0.00  0.00    +0.000 C 
ATOM      2  C   UNL     1      -2.427  12.620  20.390  0.00  0.00    +0.000 C 
ATOM      3  C   UNL     1      -2.086  14.097  20.106  0.00  0.00    +0.000 C 
ATOM      4  C   UNL     1      -0.587  14.395  20.248  0.00  0.00    +0.000 C 
ATOM      5  C   UNL     1       0.244  13.406  19.363  0.00  0.00    +0.000 C 
ATOM      6  N   UNL     1      -0.115  12.004  19.686  0.00  0.00    +0.000 N 
ATOM      7  C   UNL     1      -1.484  11.712  19.560  0.00  0.00    +0.000 C 
ATOM      8  O   UNL     1      -1.918  10.774  18.900  0.00  0.00    +0.000 OA
ENDROOT
BRANCH   4   9
ATOM      9  C   UNL     1      -0.353  15.883  20.007  0.00  0.00    +0.000 A 
ATOM     10  C   UNL     1      -0.044  16.774  21.044  0.00  0.00    +0.000 A 
ATOM     11  C   UNL     1       0.121  18.137  20.790  0.00  0.00    +0.000 A 
ATOM     12  C   UNL     1       0.016  18.622  19.489  0.00  0.00    +0.000 A 
ATOM     13  C   UNL     1      -0.257  17.742  18.446  0.00  0.00    +0.000 A 
ATOM     14 CL   UNL     1      -0.368  18.335  16.835  0.00  0.00    +0.000 Cl
ATOM     15  C   UNL     1      -0.443  16.383  18.697  0.00  0.00    +0.000 A 
ENDBRANCH   4   9
BRANCH   5  16
ATOM     16  C   UNL     1       1.726  13.761  19.458  0.00  0.00    +0.000 A 
ATOM     17  C   UNL     1       2.350  13.924  20.710  0.00  0.00    +0.000 A 
ATOM     18  C   UNL     1       3.680  14.335  20.782  0.00  0.00    +0.000 A 
ATOM     19  C   UNL     1       4.403  14.583  19.620  0.00  0.00    +0.000 A 
ATOM     20 CL   UNL     1       6.039  15.106  19.719  0.00  0.00    +0.000 Cl
ATOM     21  C   UNL     1       3.800  14.416  18.373  0.00  0.00    +0.000 A 
ATOM     22  C   UNL     1       2.478  13.995  18.297  0.00  0.00    +0.000 A 
ENDBRANCH   5  16
BRANCH   6  23
ATOM     23  C   UNL     1       0.887  10.911  19.571  0.00  0.00    +0.000 C 
ATOM     24  C   UNL     1       0.542   9.744  20.497  0.00  0.00    +0.000 C 
ATOM     25  C   UNL     1       1.486   8.631  20.092  0.00  0.00    +0.000 C 
ATOM     26  C   UNL     1       1.743   8.846  18.602  0.00  0.00    +0.000 C 
ATOM     27  C   UNL     1       1.134  10.214  18.229  0.00  0.00    +0.000 C 
ENDBRANCH   6  23
BRANCH   2  28
ATOM     28  C   UNL     1      -2.301  12.336  21.910  0.00  0.00    +0.000 C 
BRANCH  28  29
ATOM     29  C   UNL     1      -3.358  12.977  22.781  0.00  0.00    +0.000 C 
ATOM     30  O   UNL     1      -3.474  14.184  22.927  0.00  0.00    +0.000 OA
BRANCH  29  31
ATOM     31  O   UNL     1      -4.224  12.106  23.341  0.00  0.00    +0.000 OA
ATOM     32  H   UNL     1      -4.865  12.494  23.963  0.00  0.00    +0.000 HD
ENDBRANCH  29  31
ENDBRANCH  28  29
ENDBRANCH   2  28
TORSDOF 6
ENDMDL
MODEL 6
REMARK VINA RESULT:      -5.6      3.446      5.992
REMARK  Name = 
REMARK  7 active torsions:
REMARK  status: ('A' for Active; 'I' for Inactive)
REMARK    1  A    between atoms: C_1  and  C_2
REMARK    2  A    between atoms: C_2  and  C_3
REMARK    3  A    between atoms: C_3  and  C_4
REMARK    4  A    between atoms: C_4  and  O_6
REMARK    5  A    between atoms: C_8  and  C_9
REMARK    6  A    between atoms: C_16  and  C_17
REMARK    7  A    between atoms: N_24  and  C_25
REMARK                            x       y       z     vdW  Elec       q    Type
REMARK                         _______ _______ _______ _____ _____    ______ ____
ROOT
ATOM      1  C   UNL     1       0.198  10.094  18.666  0.00  0.00    +0.000 C 
ATOM      2  C   UNL     1       0.243  11.146  19.794  0.00  0.00    +0.000 C 
ATOM      3  C   UNL     1      -1.210  11.415  20.235  0.00  0.00    +0.000 C 
ATOM      4  C   UNL     1      -1.326  12.609  21.193  0.00  0.00    +0.000 C 
ATOM      5  C   UNL     1      -0.647  13.871  20.563  0.00  0.00    +0.000 C 
ATOM      6  N   UNL     1       0.749  13.560  20.169  0.00  0.00    +0.000 N 
ATOM      7  C   UNL     1       0.874  12.470  19.290  0.00  0.00    +0.000 C 
ATOM      8  O   UNL     1       1.488  12.523  18.230  0.00  0.00    +0.000 OA
ENDROOT
BRANCH   4   9
ATOM      9  C   UNL     1      -2.782  12.763  21.619  0.00  0.00    +0.000 A 
ATOM     10  C   UNL     1      -3.790  13.158  20.728  0.00  0.00    +0.000 A 
ATOM     11  C   UNL     1      -5.104  13.328  21.166  0.00  0.00    +0.000 A 
ATOM     12  C   UNL     1      -5.437  13.070  22.493  0.00  0.00    +0.000 A 
ATOM     13  C   UNL     1      -4.453  12.644  23.380  0.00  0.00    +0.000 A 
ATOM     14 CL   UNL     1      -4.864  12.304  25.015  0.00  0.00    +0.000 Cl
ATOM     15  C   UNL     1      -3.133  12.491  22.952  0.00  0.00    +0.000 A 
ENDBRANCH   4   9
BRANCH   5  16
ATOM     16  C   UNL     1      -0.834  15.067  21.493  0.00  0.00    +0.000 A 
ATOM     17  C   UNL     1      -0.391  15.018  22.830  0.00  0.00    +0.000 A 
ATOM     18  C   UNL     1      -0.647  16.081  23.693  0.00  0.00    +0.000 A 
ATOM     19  C   UNL     1      -1.336  17.203  23.242  0.00  0.00    +0.000 A 
ATOM     20 CL   UNL     1      -1.663  18.503  24.319  0.00  0.00    +0.000 Cl
ATOM     21  C   UNL     1      -1.772  17.269  21.918  0.00  0.00    +0.000 A 
ATOM     22  C   UNL     1      -1.508  16.215  21.051  0.00  0.00    +0.000 A 
ENDBRANCH   5  16
BRANCH   6  23
ATOM     23  C   UNL     1       1.805  14.606  20.204  0.00  0.00    +0.000 C 
ATOM     24  C   UNL     1       3.177  13.997  20.498  0.00  0.00    +0.000 C 
ATOM     25  C   UNL     1       4.164  15.121  20.256  0.00  0.00    +0.000 C 
ATOM     26  C   UNL     1       3.527  15.986  19.171  0.00  0.00    +0.000 C 
ATOM     27  C   UNL     1       2.082  15.481  18.976  0.00  0.00    +0.000 C 
ENDBRANCH   6  23
BRANCH   2  28
ATOM     28  C   UNL     1       1.047  10.545  20.975  0.00  0.00    +0.000 C 
BRANCH  28  29
ATOM     29  C   UNL     1       0.250   9.693  21.937  0.00  0.00    +0.000 C 
ATOM     30  O   UNL     1      -0.203   8.595  21.653  0.00  0.00    +0.000 OA
BRANCH  29  31
ATOM     31  O   UNL     1       0.130  10.213  23.177  0.00  0.00    +0.000 OA
ATOM     32  H   UNL     1       0.961  10.297  23.678  0.00  0.00    +0.000 HD
ENDBRANCH  29  31
ENDBRANCH  28  29
ENDBRANCH   2  28
TORSDOF 6
ENDMDL
MODEL 7
REMARK VINA RESULT:      -5.6      3.339      4.929
REMARK  Name = 
REMARK  7 active torsions:
REMARK  status: ('A' for Active; 'I' for Inactive)
REMARK    1  A    between atoms: C_1  and  C_2
REMARK    2  A    between atoms: C_2  and  C_3
REMARK    3  A    between atoms: C_3  and  C_4
REMARK    4  A    between atoms: C_4  and  O_6
REMARK    5  A    between atoms: C_8  and  C_9
REMARK    6  A    between atoms: C_16  and  C_17
REMARK    7  A    between atoms: N_24  and  C_25
REMARK                            x       y       z     vdW  Elec       q    Type
REMARK                         _______ _______ _______ _____ _____    ______ ____
ROOT
ATOM      1  C   UNL     1      -6.354  10.492  18.871  0.00  0.00    +0.000 C 
ATOM      2  C   UNL     1      -5.725  11.772  19.460  0.00  0.00    +0.000 C 
ATOM      3  C   UNL     1      -4.194  11.633  19.338  0.00  0.00    +0.000 C 
ATOM      4  C   UNL     1      -3.438  12.736  20.094  0.00  0.00    +0.000 C 
ATOM      5  C   UNL     1      -3.919  12.795  21.582  0.00  0.00    +0.000 C 
ATOM      6  N   UNL     1      -5.394  12.941  21.639  0.00  0.00    +0.000 N 
ATOM      7  C   UNL     1      -6.103  11.939  20.954  0.00  0.00    +0.000 C 
ATOM      8  O   UNL     1      -7.002  11.278  21.463  0.00  0.00    +0.000 OA
ENDROOT
BRANCH   4   9
ATOM      9  C   UNL     1      -1.941  12.552  19.870  0.00  0.00    +0.000 A 
ATOM     10  C   UNL     1      -1.119  13.580  19.386  0.00  0.00    +0.000 A 
ATOM     11  C   UNL     1       0.240  13.360  19.155  0.00  0.00    +0.000 A 
ATOM     12  C   UNL     1       0.804  12.120  19.439  0.00  0.00    +0.000 A 
ATOM     13  C   UNL     1       0.007  11.101  19.951  0.00  0.00    +0.000 A 
ATOM     14 CL   UNL     1       0.705   9.573  20.322  0.00  0.00    +0.000 Cl
ATOM     15  C   UNL     1      -1.356  11.309  20.166  0.00  0.00    +0.000 A 
ENDBRANCH   4   9
BRANCH   5  16
ATOM     16  C   UNL     1      -3.109  13.845  22.337  0.00  0.00    +0.000 A 
ATOM     17  C   UNL     1      -2.310  13.485  23.440  0.00  0.00    +0.000 A 
ATOM     18  C   UNL     1      -1.646  14.465  24.175  0.00  0.00    +0.000 A 
ATOM     19  C   UNL     1      -1.761  15.806  23.824  0.00  0.00    +0.000 A 
ATOM     20 CL   UNL     1      -0.952  17.011  24.747  0.00  0.00    +0.000 Cl
ATOM     21  C   UNL     1      -2.541  16.177  22.728  0.00  0.00    +0.000 A 
ATOM     22  C   UNL     1      -3.196  15.201  21.985  0.00  0.00    +0.000 A 
ENDBRANCH   5  16
BRANCH   6  23
ATOM     23  C   UNL     1      -6.048  13.679  22.751  0.00  0.00    +0.000 C 
ATOM     24  C   UNL     1      -7.090  14.667  22.224  0.00  0.00    +0.000 C 
ATOM     25  C   UNL     1      -7.831  15.148  23.454  0.00  0.00    +0.000 C 
ATOM     26  C   UNL     1      -7.787  13.976  24.432  0.00  0.00    +0.000 C 
ATOM     27  C   UNL     1      -6.819  12.929  23.843  0.00  0.00    +0.000 C 
ENDBRANCH   6  23
BRANCH   2  28
ATOM     28  C   UNL     1      -6.210  12.977  18.611  0.00  0.00    +0.000 C 
BRANCH  28  29
ATOM     29  C   UNL     1      -6.181  12.770  17.113  0.00  0.00    +0.000 C 
ATOM     30  O   UNL     1      -5.202  12.366  16.505  0.00  0.00    +0.000 OA
BRANCH  29  31
ATOM     31  O   UNL     1      -7.358  13.003  16.494  0.00  0.00    +0.000 OA
ATOM     32  H   UNL     1      -7.683  13.920  16.544  0.00  0.00    +0.000 HD
ENDBRANCH  29  31
ENDBRANCH  28  29
ENDBRANCH   2  28
TORSDOF 6
ENDMDL
MODEL 8
REMARK VINA RESULT:      -5.5      3.225      5.793
REMARK  Name = 
REMARK  7 active torsions:
REMARK  status: ('A' for Active; 'I' for Inactive)
REMARK    1  A    between atoms: C_1  and  C_2
REMARK    2  A    between atoms: C_2  and  C_3
REMARK    3  A    between atoms: C_3  and  C_4
REMARK    4  A    between atoms: C_4  and  O_6
REMARK    5  A    between atoms: C_8  and  C_9
REMARK    6  A    between atoms: C_16  and  C_17
REMARK    7  A    between atoms: N_24  and  C_25
REMARK                            x       y       z     vdW  Elec       q    Type
REMARK                         _______ _______ _______ _____ _____    ______ ____
ROOT
ATOM      1  C   UNL     1      -0.602  10.307  19.074  0.00  0.00    +0.000 C 
ATOM      2  C   UNL     1      -0.420  11.349  20.198  0.00  0.00    +0.000 C 
ATOM      3  C   UNL     1      -1.782  11.514  20.902  0.00  0.00    +0.000 C 
ATOM      4  C   UNL     1      -1.798  12.689  21.890  0.00  0.00    +0.000 C 
ATOM      5  C   UNL     1      -1.329  14.000  21.176  0.00  0.00    +0.000 C 
ATOM      6  N   UNL     1      -0.011  13.788  20.528  0.00  0.00    +0.000 N 
ATOM      7  C   UNL     1       0.022  12.717  19.618  0.00  0.00    +0.000 C 
ATOM      8  O   UNL     1       0.428  12.822  18.465  0.00  0.00    +0.000 OA
ENDROOT
BRANCH   4   9
ATOM      9  C   UNL     1      -3.159  12.739  22.577  0.00  0.00    +0.000 A 
ATOM     10  C   UNL     1      -3.316  12.530  23.954  0.00  0.00    +0.000 A 
ATOM     11  C   UNL     1      -4.583  12.542  24.539  0.00  0.00    +0.000 A 
ATOM     12  C   UNL     1      -5.709  12.800  23.761  0.00  0.00    +0.000 A 
ATOM     13  C   UNL     1      -5.564  13.043  22.399  0.00  0.00    +0.000 A 
ATOM     14 CL   UNL     1      -6.949  13.381  21.438  0.00  0.00    +0.000 Cl
ATOM     15  C   UNL     1      -4.301  13.012  21.805  0.00  0.00    +0.000 A 
ENDBRANCH   4   9
BRANCH   5  16
ATOM     16  C   UNL     1      -1.420  15.171  22.151  0.00  0.00    +0.000 A 
ATOM     17  C   UNL     1      -0.753  15.132  23.391  0.00  0.00    +0.000 A 
ATOM     18  C   UNL     1      -0.915  16.168  24.308  0.00  0.00    +0.000 A 
ATOM     19  C   UNL     1      -1.733  17.252  24.006  0.00  0.00    +0.000 A 
ATOM     20 CL   UNL     1      -1.942  18.518  25.152  0.00  0.00    +0.000 Cl
ATOM     21  C   UNL     1      -2.392  17.309  22.778  0.00  0.00    +0.000 A 
ATOM     22  C   UNL     1      -2.223  16.283  21.855  0.00  0.00    +0.000 A 
ENDBRANCH   5  16
BRANCH   6  23
ATOM     23  C   UNL     1       0.964  14.902  20.394  0.00  0.00    +0.000 C 
ATOM     24  C   UNL     1       2.403  14.391  20.478  0.00  0.00    +0.000 C 
ATOM     25  C   UNL     1       3.262  15.573  20.081  0.00  0.00    +0.000 C 
ATOM     26  C   UNL     1       2.409  16.377  19.101  0.00  0.00    +0.000 C 
ATOM     27  C   UNL     1       0.989  15.773  19.134  0.00  0.00    +0.000 C 
ENDBRANCH   6  23
BRANCH   2  28
ATOM     28  C   UNL     1       0.623  10.792  21.201  0.00  0.00    +0.000 C 
BRANCH  28  29
ATOM     29  C   UNL     1       0.077   9.851  22.252  0.00  0.00    +0.000 C 
ATOM     30  O   UNL     1      -0.066  10.157  23.426  0.00  0.00    +0.000 OA
BRANCH  29  31
ATOM     31  O   UNL     1      -0.314   8.649  21.777  0.00  0.00    +0.000 OA
ATOM     32  H   UNL     1      -0.554   8.630  20.833  0.00  0.00    +0.000 HD
ENDBRANCH  29  31
ENDBRANCH  28  29
ENDBRANCH   2  28
TORSDOF 6
ENDMDL
MODEL 9
REMARK VINA RESULT:      -5.5      1.014      1.405
REMARK  Name = 
REMARK  7 active torsions:
REMARK  status: ('A' for Active; 'I' for Inactive)
REMARK    1  A    between atoms: C_1  and  C_2
REMARK    2  A    between atoms: C_2  and  C_3
REMARK    3  A    between atoms: C_3  and  C_4
REMARK    4  A    between atoms: C_4  and  O_6
REMARK    5  A    between atoms: C_8  and  C_9
REMARK    6  A    between atoms: C_16  and  C_17
REMARK    7  A    between atoms: N_24  and  C_25
REMARK                            x       y       z     vdW  Elec       q    Type
REMARK                         _______ _______ _______ _____ _____    ______ ____
ROOT
ATOM      1  C   UNL     1      -4.378  12.506  25.038  0.00  0.00    +0.000 C 
ATOM      2  C   UNL     1      -3.704  12.977  23.732  0.00  0.00    +0.000 C 
ATOM      3  C   UNL     1      -2.706  11.881  23.305  0.00  0.00    +0.000 C 
ATOM      4  C   UNL     1      -1.803  12.324  22.145  0.00  0.00    +0.000 C 
ATOM      5  C   UNL     1      -1.096  13.675  22.500  0.00  0.00    +0.000 C 
ATOM      6  N   UNL     1      -2.101  14.693  22.890  0.00  0.00    +0.000 N 
ATOM      7  C   UNL     1      -2.937  14.306  23.952  0.00  0.00    +0.000 C 
ATOM      8  O   UNL     1      -3.109  14.984  24.959  0.00  0.00    +0.000 OA
ENDROOT
BRANCH   4   9
ATOM      9  C   UNL     1      -0.894  11.163  21.755  0.00  0.00    +0.000 A 
ATOM     10  C   UNL     1      -0.327  10.299  22.702  0.00  0.00    +0.000 A 
ATOM     11  C   UNL     1       0.534   9.273  22.309  0.00  0.00    +0.000 A 
ATOM     12  C   UNL     1       0.812   9.074  20.960  0.00  0.00    +0.000 A 
ATOM     13  C   UNL     1       0.230   9.904  20.007  0.00  0.00    +0.000 A 
ATOM     14 CL   UNL     1       0.555   9.649  18.337  0.00  0.00    +0.000 Cl
ATOM     15  C   UNL     1      -0.616  10.943  20.395  0.00  0.00    +0.000 A 
ENDBRANCH   4   9
BRANCH   5  16
ATOM     16  C   UNL     1      -0.147  14.064  21.369  0.00  0.00    +0.000 A 
ATOM     17  C   UNL     1      -0.640  14.363  20.084  0.00  0.00    +0.000 A 
ATOM     18  C   UNL     1       0.243  14.630  19.039  0.00  0.00    +0.000 A 
ATOM     19  C   UNL     1       1.617  14.609  19.256  0.00  0.00    +0.000 A 
ATOM     20 CL   UNL     1       2.699  14.923  17.957  0.00  0.00    +0.000 Cl
ATOM     21  C   UNL     1       2.119  14.325  20.527  0.00  0.00    +0.000 A 
ATOM     22  C   UNL     1       1.241  14.069  21.574  0.00  0.00    +0.000 A 
ENDBRANCH   5  16
BRANCH   6  23
ATOM     23  C   UNL     1      -1.874  16.137  22.618  0.00  0.00    +0.000 C 
ATOM     24  C   UNL     1      -3.192  16.913  22.612  0.00  0.00    +0.000 C 
ATOM     25  C   UNL     1      -2.787  18.372  22.575  0.00  0.00    +0.000 C 
ATOM     26  C   UNL     1      -1.449  18.434  23.309  0.00  0.00    +0.000 C 
ATOM     27  C   UNL     1      -0.992  16.979  23.546  0.00  0.00    +0.000 C 
ENDBRANCH   6  23
BRANCH   2  28
ATOM     28  C   UNL     1      -4.808  13.129  22.653  0.00  0.00    +0.000 C 
BRANCH  28  29
ATOM     29  C   UNL     1      -5.819  14.225  22.908  0.00  0.00    +0.000 C 
ATOM     30  O   UNL     1      -6.025  15.147  22.135  0.00  0.00    +0.000 OA
BRANCH  29  31
ATOM     31  O   UNL     1      -6.538  14.070  24.040  0.00  0.00    +0.000 OA
ATOM     32  H   UNL     1      -7.194  13.350  24.025  0.00  0.00    +0.000 HD
ENDBRANCH  29  31
ENDBRANCH  28  29
ENDBRANCH   2  28
TORSDOF 6
ENDMDL
