MODEL 1
REMARK VINA RESULT:      -7.5      0.000      0.000
REMARK  Name = 
REMARK  5 active torsions:
REMARK  status: ('A' for Active; 'I' for Inactive)
REMARK    1  A    between atoms: C_1  and  O_2
REMARK    2  A    between atoms: O_2  and  C_3
REMARK    3  A    between atoms: C_6  and  S_7
REMARK    4  A    between atoms: S_7  and  C_8
REMARK    5  A    between atoms: C_13  and  N_14
REMARK                            x       y       z     vdW  Elec       q    Type
REMARK                         _______ _______ _______ _____ _____    ______ ____
ROOT
ATOM      1  C   UNL     1       3.119   5.348  17.767  0.00  0.00    +0.000 A 
ATOM      2  C   UNL     1       1.817   5.106  18.244  0.00  0.00    +0.000 A 
ATOM      3  C   UNL     1       1.336   3.809  18.408  0.00  0.00    +0.000 A 
ATOM      4  C   UNL     1       2.141   2.726  18.088  0.00  0.00    +0.000 A 
ATOM      5  C   UNL     1       3.428   2.928  17.601  0.00  0.00    +0.000 A 
ATOM      6  C   UNL     1       3.964   4.228  17.420  0.00  0.00    +0.000 A 
ENDROOT
BRANCH   6   7
ATOM      7  N   UNL     1       5.315   4.339  16.900  0.00  0.00    +0.000 N 
ATOM      8  C   UNL     1       5.646   4.017  15.514  0.00  0.00    +0.000 C 
ATOM      9  C   UNL     1       6.382   5.215  14.895  0.00  0.00    +0.000 C 
ATOM     10  N   UNL     1       7.565   5.556  15.698  0.00  0.00    +0.000 NA
ATOM     11  C   UNL     1       7.176   5.900  17.072  0.00  0.00    +0.000 C 
ATOM     12  C   UNL     1       6.463   4.706  17.706  0.00  0.00    +0.000 C 
ATOM     13  H   UNL     1       8.045   6.381  15.271  0.00  0.00    +0.000 HD
ENDBRANCH   6   7
BRANCH   1  14
ATOM     14  S   UNL     1       3.538   7.094  17.491  0.00  0.00    +0.000 S 
BRANCH  14  18
ATOM     15  C   UNL     1       0.685   9.198  20.481  0.00  0.00    +0.000 A 
ATOM     16  C   UNL     1       1.379   8.033  20.847  0.00  0.00    +0.000 A 
ATOM     17  C   UNL     1       2.212   7.394  19.939  0.00  0.00    +0.000 A 
ATOM     18  C   UNL     1       2.375   7.887  18.637  0.00  0.00    +0.000 A 
ATOM     19  C   UNL     1       1.681   9.050  18.263  0.00  0.00    +0.000 A 
ATOM     20  C   UNL     1       0.839   9.697  19.180  0.00  0.00    +0.000 A 
BRANCH  15  22
ATOM     21  C   UNL     1      -0.389   9.448  22.651  0.00  0.00    +0.000 C 
ATOM     22  O   UNL     1      -0.121   9.856  21.356  0.00  0.00    +0.000 OA
ENDBRANCH  15  22
ENDBRANCH  14  18
ENDBRANCH   1  14
TORSDOF 4
ENDMDL
MODEL 2
REMARK VINA RESULT:      -7.2      0.370      1.117
REMARK  Name = 
REMARK  5 active torsions:
REMARK  status: ('A' for Active; 'I' for Inactive)
REMARK    1  A    between atoms: C_1  and  O_2
REMARK    2  A    between atoms: O_2  and  C_3
REMARK    3  A    between atoms: C_6  and  S_7
REMARK    4  A    between atoms: S_7  and  C_8
REMARK    5  A    between atoms: C_13  and  N_14
REMARK                            x       y       z     vdW  Elec       q    Type
REMARK                         _______ _______ _______ _____ _____    ______ ____
ROOT
ATOM      1  C   UNL     1       3.118   5.272  17.794  0.00  0.00    +0.000 A 
ATOM      2  C   UNL     1       1.812   5.023  18.259  0.00  0.00    +0.000 A 
ATOM      3  C   UNL     1       1.349   3.723  18.451  0.00  0.00    +0.000 A 
ATOM      4  C   UNL     1       2.175   2.644  18.172  0.00  0.00    +0.000 A 
ATOM      5  C   UNL     1       3.466   2.854  17.698  0.00  0.00    +0.000 A 
ATOM      6  C   UNL     1       3.984   4.157  17.490  0.00  0.00    +0.000 A 
ENDROOT
BRANCH   6   7
ATOM      7  N   UNL     1       5.341   4.276  16.986  0.00  0.00    +0.000 N 
ATOM      8  C   UNL     1       5.703   3.890  15.625  0.00  0.00    +0.000 C 
ATOM      9  C   UNL     1       6.419   5.071  14.954  0.00  0.00    +0.000 C 
ATOM     10  N   UNL     1       7.579   5.486  15.757  0.00  0.00    +0.000 NA
ATOM     11  C   UNL     1       7.159   5.891  17.104  0.00  0.00    +0.000 C 
ATOM     12  C   UNL     1       6.465   4.714  17.789  0.00  0.00    +0.000 C 
ATOM     13  H   UNL     1       8.047   6.298  15.294  0.00  0.00    +0.000 HD
ENDBRANCH   6   7
BRANCH   1  14
ATOM     14  S   UNL     1       3.513   7.017  17.477  0.00  0.00    +0.000 S 
BRANCH  14  18
ATOM     15  C   UNL     1       0.635   8.981  20.537  0.00  0.00    +0.000 A 
ATOM     16  C   UNL     1       0.800   9.526  19.253  0.00  0.00    +0.000 A 
ATOM     17  C   UNL     1       1.683   8.948  18.350  0.00  0.00    +0.000 A 
ATOM     18  C   UNL     1       2.434   7.817  18.698  0.00  0.00    +0.000 A 
ATOM     19  C   UNL     1       2.275   7.269  19.982  0.00  0.00    +0.000 A 
ATOM     20  C   UNL     1       1.383   7.852  20.895  0.00  0.00    +0.000 A 
BRANCH  15  22
ATOM     21  C   UNL     1      -0.176  10.805  21.931  0.00  0.00    +0.000 C 
ATOM     22  O   UNL     1      -0.237   9.514  21.434  0.00  0.00    +0.000 OA
ENDBRANCH  15  22
ENDBRANCH  14  18
ENDBRANCH   1  14
TORSDOF 4
ENDMDL
MODEL 3
REMARK VINA RESULT:      -7.2      3.419      6.639
REMARK  Name = 
REMARK  5 active torsions:
REMARK  status: ('A' for Active; 'I' for Inactive)
REMARK    1  A    between atoms: C_1  and  O_2
REMARK    2  A    between atoms: O_2  and  C_3
REMARK    3  A    between atoms: C_6  and  S_7
REMARK    4  A    between atoms: S_7  and  C_8
REMARK    5  A    between atoms: C_13  and  N_14
REMARK                            x       y       z     vdW  Elec       q    Type
REMARK                         _______ _______ _______ _____ _____    ______ ____
ROOT
ATOM      1  C   UNL     1       3.677   4.399  19.372  0.00  0.00    +0.000 A 
ATOM      2  C   UNL     1       3.551   2.998  19.456  0.00  0.00    +0.000 A 
ATOM      3  C   UNL     1       2.305   2.392  19.601  0.00  0.00    +0.000 A 
ATOM      4  C   UNL     1       1.160   3.170  19.679  0.00  0.00    +0.000 A 
ATOM      5  C   UNL     1       1.249   4.557  19.614  0.00  0.00    +0.000 A 
ATOM      6  C   UNL     1       2.492   5.221  19.463  0.00  0.00    +0.000 A 
ENDROOT
BRANCH   6   7
ATOM      7  N   UNL     1       2.485   6.672  19.412  0.00  0.00    +0.000 N 
ATOM      8  C   UNL     1       2.936   7.413  18.237  0.00  0.00    +0.000 C 
ATOM      9  C   UNL     1       1.828   8.392  17.819  0.00  0.00    +0.000 C 
ATOM     10  N   UNL     1       1.473   9.269  18.944  0.00  0.00    +0.000 NA
ATOM     11  C   UNL     1       0.999   8.478  20.088  0.00  0.00    +0.000 C 
ATOM     12  C   UNL     1       2.103   7.517  20.526  0.00  0.00    +0.000 C 
ATOM     13  H   UNL     1       0.709   9.918  18.648  0.00  0.00    +0.000 HD
ENDBRANCH   6   7
BRANCH   1  14
ATOM     14  S   UNL     1       5.380   5.028  19.315  0.00  0.00    +0.000 S 
BRANCH  14  18
ATOM     15  C   UNL     1       6.361   4.405  14.826  0.00  0.00    +0.000 A 
ATOM     16  C   UNL     1       5.034   4.361  15.285  0.00  0.00    +0.000 A 
ATOM     17  C   UNL     1       4.749   4.523  16.634  0.00  0.00    +0.000 A 
ATOM     18  C   UNL     1       5.774   4.725  17.569  0.00  0.00    +0.000 A 
ATOM     19  C   UNL     1       7.103   4.767  17.117  0.00  0.00    +0.000 A 
ATOM     20  C   UNL     1       7.392   4.604  15.753  0.00  0.00    +0.000 A 
BRANCH  15  22
ATOM     21  C   UNL     1       6.000   3.448  12.616  0.00  0.00    +0.000 C 
ATOM     22  O   UNL     1       6.668   4.270  13.508  0.00  0.00    +0.000 OA
ENDBRANCH  15  22
ENDBRANCH  14  18
ENDBRANCH   1  14
TORSDOF 4
ENDMDL
MODEL 4
REMARK VINA RESULT:      -7.2      3.384      6.615
REMARK  Name = 
REMARK  5 active torsions:
REMARK  status: ('A' for Active; 'I' for Inactive)
REMARK    1  A    between atoms: C_1  and  O_2
REMARK    2  A    between atoms: O_2  and  C_3
REMARK    3  A    between atoms: C_6  and  S_7
REMARK    4  A    between atoms: S_7  and  C_8
REMARK    5  A    between atoms: C_13  and  N_14
REMARK                            x       y       z     vdW  Elec       q    Type
REMARK                         _______ _______ _______ _____ _____    ______ ____
ROOT
ATOM      1  C   UNL     1       3.677   4.133  19.099  0.00  0.00    +0.000 A 
ATOM      2  C   UNL     1       3.502   2.736  19.072  0.00  0.00    +0.000 A 
ATOM      3  C   UNL     1       2.232   2.166  19.118  0.00  0.00    +0.000 A 
ATOM      4  C   UNL     1       1.110   2.976  19.202  0.00  0.00    +0.000 A 
ATOM      5  C   UNL     1       1.247   4.360  19.245  0.00  0.00    +0.000 A 
ATOM      6  C   UNL     1       2.517   4.988  19.198  0.00  0.00    +0.000 A 
ENDROOT
BRANCH   6   7
ATOM      7  N   UNL     1       2.558   6.439  19.254  0.00  0.00    +0.000 N 
ATOM      8  C   UNL     1       2.993   7.251  18.121  0.00  0.00    +0.000 C 
ATOM      9  C   UNL     1       1.906   8.293  17.819  0.00  0.00    +0.000 C 
ATOM     10  N   UNL     1       1.622   9.095  19.019  0.00  0.00    +0.000 NA
ATOM     11  C   UNL     1       1.162   8.237  20.119  0.00  0.00    +0.000 C 
ATOM     12  C   UNL     1       2.247   7.210  20.442  0.00  0.00    +0.000 C 
ATOM     13  H   UNL     1       0.872   9.789  18.801  0.00  0.00    +0.000 HD
ENDBRANCH   6   7
BRANCH   1  14
ATOM     14  S   UNL     1       5.401   4.704  19.163  0.00  0.00    +0.000 S 
BRANCH  14  18
ATOM     15  C   UNL     1       6.478   4.503  14.657  0.00  0.00    +0.000 A 
ATOM     16  C   UNL     1       7.475   4.696  15.627  0.00  0.00    +0.000 A 
ATOM     17  C   UNL     1       7.143   4.780  16.972  0.00  0.00    +0.000 A 
ATOM     18  C   UNL     1       5.810   4.684  17.395  0.00  0.00    +0.000 A 
ATOM     19  C   UNL     1       4.807   4.494  16.430  0.00  0.00    +0.000 A 
ATOM     20  C   UNL     1       5.141   4.408  15.069  0.00  0.00    +0.000 A 
BRANCH  15  22
ATOM     21  C   UNL     1       6.248   3.446  12.476  0.00  0.00    +0.000 C 
ATOM     22  O   UNL     1       6.775   4.395  13.335  0.00  0.00    +0.000 OA
ENDBRANCH  15  22
ENDBRANCH  14  18
ENDBRANCH   1  14
TORSDOF 4
ENDMDL
MODEL 5
REMARK VINA RESULT:      -7.1      1.889      4.012
REMARK  Name = 
REMARK  5 active torsions:
REMARK  status: ('A' for Active; 'I' for Inactive)
REMARK    1  A    between atoms: C_1  and  O_2
REMARK    2  A    between atoms: O_2  and  C_3
REMARK    3  A    between atoms: C_6  and  S_7
REMARK    4  A    between atoms: S_7  and  C_8
REMARK    5  A    between atoms: C_13  and  N_14
REMARK                            x       y       z     vdW  Elec       q    Type
REMARK                         _______ _______ _______ _____ _____    ______ ____
ROOT
ATOM      1  C   UNL     1       4.316   5.602  18.025  0.00  0.00    +0.000 A 
ATOM      2  C   UNL     1       5.281   6.564  17.668  0.00  0.00    +0.000 A 
ATOM      3  C   UNL     1       6.018   6.447  16.492  0.00  0.00    +0.000 A 
ATOM      4  C   UNL     1       5.815   5.362  15.652  0.00  0.00    +0.000 A 
ATOM      5  C   UNL     1       4.880   4.386  15.981  0.00  0.00    +0.000 A 
ATOM      6  C   UNL     1       4.104   4.462  17.165  0.00  0.00    +0.000 A 
ENDROOT
BRANCH   6   7
ATOM      7  N   UNL     1       3.157   3.392  17.426  0.00  0.00    +0.000 N 
ATOM      8  C   UNL     1       3.584   2.016  17.669  0.00  0.00    +0.000 C 
ATOM      9  C   UNL     1       2.960   1.535  18.987  0.00  0.00    +0.000 C 
ATOM     10  N   UNL     1       1.498   1.678  18.941  0.00  0.00    +0.000 NA
ATOM     11  C   UNL     1       1.121   3.081  18.724  0.00  0.00    +0.000 C 
ATOM     12  C   UNL     1       1.718   3.563  17.402  0.00  0.00    +0.000 C 
ATOM     13  H   UNL     1       1.090   1.360  19.849  0.00  0.00    +0.000 HD
ENDBRANCH   6   7
BRANCH   1  14
ATOM     14  S   UNL     1       3.542   5.840  19.652  0.00  0.00    +0.000 S 
BRANCH  14  18
ATOM     15  C   UNL     1       0.897   9.544  18.762  0.00  0.00    +0.000 A 
ATOM     16  C   UNL     1       1.636   8.926  17.740  0.00  0.00    +0.000 A 
ATOM     17  C   UNL     1       2.445   7.833  18.018  0.00  0.00    +0.000 A 
ATOM     18  C   UNL     1       2.553   7.325  19.321  0.00  0.00    +0.000 A 
ATOM     19  C   UNL     1       1.818   7.941  20.348  0.00  0.00    +0.000 A 
ATOM     20  C   UNL     1       0.999   9.046  20.068  0.00  0.00    +0.000 A 
BRANCH  15  22
ATOM     21  C   UNL     1      -1.268  10.512  18.211  0.00  0.00    +0.000 C 
ATOM     22  O   UNL     1       0.080  10.602  18.516  0.00  0.00    +0.000 OA
ENDBRANCH  15  22
ENDBRANCH  14  18
ENDBRANCH   1  14
TORSDOF 4
ENDMDL
MODEL 6
REMARK VINA RESULT:      -7.0      1.886      3.921
REMARK  Name = 
REMARK  5 active torsions:
REMARK  status: ('A' for Active; 'I' for Inactive)
REMARK    1  A    between atoms: C_1  and  O_2
REMARK    2  A    between atoms: O_2  and  C_3
REMARK    3  A    between atoms: C_6  and  S_7
REMARK    4  A    between atoms: S_7  and  C_8
REMARK    5  A    between atoms: C_13  and  N_14
REMARK                            x       y       z     vdW  Elec       q    Type
REMARK                         _______ _______ _______ _____ _____    ______ ____
ROOT
ATOM      1  C   UNL     1       4.382   5.587  17.999  0.00  0.00    +0.000 A 
ATOM      2  C   UNL     1       5.371   6.516  17.621  0.00  0.00    +0.000 A 
ATOM      3  C   UNL     1       6.076   6.376  16.428  0.00  0.00    +0.000 A 
ATOM      4  C   UNL     1       5.817   5.301  15.591  0.00  0.00    +0.000 A 
ATOM      5  C   UNL     1       4.857   4.357  15.940  0.00  0.00    +0.000 A 
ATOM      6  C   UNL     1       4.111   4.456  17.141  0.00  0.00    +0.000 A 
ENDROOT
BRANCH   6   7
ATOM      7  N   UNL     1       3.135   3.418  17.422  0.00  0.00    +0.000 N 
ATOM      8  C   UNL     1       3.520   2.028  17.653  0.00  0.00    +0.000 C 
ATOM      9  C   UNL     1       2.911   1.565  18.984  0.00  0.00    +0.000 C 
ATOM     10  N   UNL     1       1.454   1.758  18.972  0.00  0.00    +0.000 NA
ATOM     11  C   UNL     1       1.120   3.174  18.767  0.00  0.00    +0.000 C 
ATOM     12  C   UNL     1       1.702   3.638  17.433  0.00  0.00    +0.000 C 
ATOM     13  H   UNL     1       1.057   1.451  19.890  0.00  0.00    +0.000 HD
ENDBRANCH   6   7
BRANCH   1  14
ATOM     14  S   UNL     1       3.654   5.847  19.643  0.00  0.00    +0.000 S 
BRANCH  14  18
ATOM     15  C   UNL     1       0.977   9.536  18.791  0.00  0.00    +0.000 A 
ATOM     16  C   UNL     1       1.023   8.962  20.072  0.00  0.00    +0.000 A 
ATOM     17  C   UNL     1       1.807   7.842  20.314  0.00  0.00    +0.000 A 
ATOM     18  C   UNL     1       2.562   7.253  19.290  0.00  0.00    +0.000 A 
ATOM     19  C   UNL     1       2.518   7.821  18.006  0.00  0.00    +0.000 A 
ATOM     20  C   UNL     1       1.726   8.954  17.760  0.00  0.00    +0.000 A 
BRANCH  15  22
ATOM     21  C   UNL     1       0.396  11.874  19.148  0.00  0.00    +0.000 C 
ATOM     22  O   UNL     1       0.234  10.645  18.530  0.00  0.00    +0.000 OA
ENDBRANCH  15  22
ENDBRANCH  14  18
ENDBRANCH   1  14
TORSDOF 4
ENDMDL
MODEL 7
REMARK VINA RESULT:      -7.0      0.765      1.690
REMARK  Name = 
REMARK  5 active torsions:
REMARK  status: ('A' for Active; 'I' for Inactive)
REMARK    1  A    between atoms: C_1  and  O_2
REMARK    2  A    between atoms: O_2  and  C_3
REMARK    3  A    between atoms: C_6  and  S_7
REMARK    4  A    between atoms: S_7  and  C_8
REMARK    5  A    between atoms: C_13  and  N_14
REMARK                            x       y       z     vdW  Elec       q    Type
REMARK                         _______ _______ _______ _____ _____    ______ ____
ROOT
ATOM      1  C   UNL     1       2.900   5.797  17.856  0.00  0.00    +0.000 A 
ATOM      2  C   UNL     1       1.645   5.353  18.315  0.00  0.00    +0.000 A 
ATOM      3  C   UNL     1       1.330   3.997  18.360  0.00  0.00    +0.000 A 
ATOM      4  C   UNL     1       2.256   3.055  17.937  0.00  0.00    +0.000 A 
ATOM      5  C   UNL     1       3.501   3.459  17.465  0.00  0.00    +0.000 A 
ATOM      6  C   UNL     1       3.870   4.827  17.403  0.00  0.00    +0.000 A 
ENDROOT
BRANCH   6   7
ATOM      7  N   UNL     1       5.189   5.151  16.889  0.00  0.00    +0.000 N 
ATOM      8  C   UNL     1       6.326   5.411  17.768  0.00  0.00    +0.000 C 
ATOM      9  C   UNL     1       7.487   4.497  17.351  0.00  0.00    +0.000 C 
ATOM     10  N   UNL     1       7.808   4.697  15.930  0.00  0.00    +0.000 NA
ATOM     11  C   UNL     1       6.643   4.394  15.088  0.00  0.00    +0.000 C 
ATOM     12  C   UNL     1       5.488   5.316  15.480  0.00  0.00    +0.000 C 
ATOM     13  H   UNL     1       8.590   4.058  15.660  0.00  0.00    +0.000 HD
ENDBRANCH   6   7
BRANCH   1  14
ATOM     14  S   UNL     1       3.097   7.599  17.741  0.00  0.00    +0.000 S 
BRANCH  14  18
ATOM     15  C   UNL     1       0.267   8.859  21.192  0.00  0.00    +0.000 A 
ATOM     16  C   UNL     1       0.286   9.572  19.981  0.00  0.00    +0.000 A 
ATOM     17  C   UNL     1       1.154   9.205  18.962  0.00  0.00    +0.000 A 
ATOM     18  C   UNL     1       2.035   8.125  19.116  0.00  0.00    +0.000 A 
ATOM     19  C   UNL     1       2.022   7.410  20.325  0.00  0.00    +0.000 A 
ATOM     20  C   UNL     1       1.145   7.780  21.357  0.00  0.00    +0.000 A 
BRANCH  15  22
ATOM     21  C   UNL     1      -0.531  10.349  22.945  0.00  0.00    +0.000 C 
ATOM     22  O   UNL     1      -0.587   9.183  22.199  0.00  0.00    +0.000 OA
ENDBRANCH  15  22
ENDBRANCH  14  18
ENDBRANCH   1  14
TORSDOF 4
ENDMDL
MODEL 8
REMARK VINA RESULT:      -7.0      3.779      7.102
REMARK  Name = 
REMARK  5 active torsions:
REMARK  status: ('A' for Active; 'I' for Inactive)
REMARK    1  A    between atoms: C_1  and  O_2
REMARK    2  A    between atoms: O_2  and  C_3
REMARK    3  A    between atoms: C_6  and  S_7
REMARK    4  A    between atoms: S_7  and  C_8
REMARK    5  A    between atoms: C_13  and  N_14
REMARK                            x       y       z     vdW  Elec       q    Type
REMARK                         _______ _______ _______ _____ _____    ______ ____
ROOT
ATOM      1  C   UNL     1       3.890   5.969  18.471  0.00  0.00    +0.000 A 
ATOM      2  C   UNL     1       4.365   7.109  17.793  0.00  0.00    +0.000 A 
ATOM      3  C   UNL     1       3.517   8.169  17.480  0.00  0.00    +0.000 A 
ATOM      4  C   UNL     1       2.175   8.110  17.826  0.00  0.00    +0.000 A 
ATOM      5  C   UNL     1       1.670   6.994  18.485  0.00  0.00    +0.000 A 
ATOM      6  C   UNL     1       2.492   5.891  18.828  0.00  0.00    +0.000 A 
ENDROOT
BRANCH   6   7
ATOM      7  N   UNL     1       1.872   4.768  19.508  0.00  0.00    +0.000 N 
ATOM      8  C   UNL     1       1.411   3.581  18.793  0.00  0.00    +0.000 C 
ATOM      9  C   UNL     1       2.038   2.340  19.446  0.00  0.00    +0.000 C 
ATOM     10  N   UNL     1       1.716   2.302  20.880  0.00  0.00    +0.000 NA
ATOM     11  C   UNL     1       2.226   3.501  21.558  0.00  0.00    +0.000 C 
ATOM     12  C   UNL     1       1.589   4.741  20.930  0.00  0.00    +0.000 C 
ATOM     13  H   UNL     1       2.161   1.460  21.311  0.00  0.00    +0.000 HD
ENDBRANCH   6   7
BRANCH   1  14
ATOM     14  S   UNL     1       5.097   4.628  18.685  0.00  0.00    +0.000 S 
BRANCH  14  18
ATOM     15  C   UNL     1       6.638   4.415  14.316  0.00  0.00    +0.000 A 
ATOM     16  C   UNL     1       5.341   3.984  14.643  0.00  0.00    +0.000 A 
ATOM     17  C   UNL     1       4.895   4.027  15.957  0.00  0.00    +0.000 A 
ATOM     18  C   UNL     1       5.725   4.491  16.987  0.00  0.00    +0.000 A 
ATOM     19  C   UNL     1       7.024   4.920  16.667  0.00  0.00    +0.000 A 
ATOM     20  C   UNL     1       7.476   4.878  15.339  0.00  0.00    +0.000 A 
BRANCH  15  22
ATOM     21  C   UNL     1       6.620   3.578  12.030  0.00  0.00    +0.000 C 
ATOM     22  O   UNL     1       7.094   4.403  13.035  0.00  0.00    +0.000 OA
ENDBRANCH  15  22
ENDBRANCH  14  18
ENDBRANCH   1  14
TORSDOF 4
ENDMDL
MODEL 9
REMARK VINA RESULT:      -7.0      0.781      1.330
REMARK  Name = 
REMARK  5 active torsions:
REMARK  status: ('A' for Active; 'I' for Inactive)
REMARK    1  A    between atoms: C_1  and  O_2
REMARK    2  A    between atoms: O_2  and  C_3
REMARK    3  A    between atoms: C_6  and  S_7
REMARK    4  A    between atoms: S_7  and  C_8
REMARK    5  A    between atoms: C_13  and  N_14
REMARK                            x       y       z     vdW  Elec       q    Type
REMARK                         _______ _______ _______ _____ _____    ______ ____
ROOT
ATOM      1  C   UNL     1       2.915   5.816  17.803  0.00  0.00    +0.000 A 
ATOM      2  C   UNL     1       1.654   5.377  18.254  0.00  0.00    +0.000 A 
ATOM      3  C   UNL     1       1.334   4.023  18.299  0.00  0.00    +0.000 A 
ATOM      4  C   UNL     1       2.260   3.077  17.886  0.00  0.00    +0.000 A 
ATOM      5  C   UNL     1       3.509   3.476  17.421  0.00  0.00    +0.000 A 
ATOM      6  C   UNL     1       3.884   4.841  17.359  0.00  0.00    +0.000 A 
ENDROOT
BRANCH   6   7
ATOM      7  N   UNL     1       5.208   5.160  16.854  0.00  0.00    +0.000 N 
ATOM      8  C   UNL     1       6.342   5.408  17.740  0.00  0.00    +0.000 C 
ATOM      9  C   UNL     1       7.499   4.488  17.324  0.00  0.00    +0.000 C 
ATOM     10  N   UNL     1       7.829   4.694  15.907  0.00  0.00    +0.000 NA
ATOM     11  C   UNL     1       6.666   4.404  15.057  0.00  0.00    +0.000 C 
ATOM     12  C   UNL     1       5.516   5.331  15.447  0.00  0.00    +0.000 C 
ATOM     13  H   UNL     1       8.608   4.052  15.637  0.00  0.00    +0.000 HD
ENDBRANCH   6   7
BRANCH   1  14
ATOM     14  S   UNL     1       3.119   7.618  17.687  0.00  0.00    +0.000 S 
BRANCH  14  18
ATOM     15  C   UNL     1       0.406   9.063  21.159  0.00  0.00    +0.000 A 
ATOM     16  C   UNL     1       1.221   7.929  21.308  0.00  0.00    +0.000 A 
ATOM     17  C   UNL     1       2.012   7.486  20.256  0.00  0.00    +0.000 A 
ATOM     18  C   UNL     1       2.011   8.152  19.021  0.00  0.00    +0.000 A 
ATOM     19  C   UNL     1       1.196   9.285  18.866  0.00  0.00    +0.000 A 
ATOM     20  C   UNL     1       0.397   9.734  19.929  0.00  0.00    +0.000 A 
BRANCH  15  22
ATOM     21  C   UNL     1      -0.777  10.844  22.323  0.00  0.00    +0.000 C 
ATOM     22  O   UNL     1      -0.362   9.531  22.178  0.00  0.00    +0.000 OA
ENDBRANCH  15  22
ENDBRANCH  14  18
ENDBRANCH   1  14
TORSDOF 4
ENDMDL
