MODEL 1
REMARK VINA RESULT:      -7.0      0.000      0.000
REMARK  Name = 
REMARK  8 active torsions:
REMARK  status: ('A' for Active; 'I' for Inactive)
REMARK    1  A    between atoms: C_1  and  O_2
REMARK    2  A    between atoms: O_2  and  C_3
REMARK    3  A    between atoms: C_9  and  N_10
REMARK    4  A    between atoms: N_10  and  S_11
REMARK    5  A    between atoms: S_11  and  C_14
REMARK    6  A    between atoms: C_17  and  O_18
REMARK    7  A    between atoms: O_18  and  C_19
REMARK    8  A    between atoms: C_20  and  N_21
REMARK                            x       y       z     vdW  Elec       q    Type
REMARK                         _______ _______ _______ _____ _____    ______ ____
ROOT
ATOM      1  C   UNL     1       2.205   7.817  19.316  0.00  0.00    +0.000 A 
ATOM      2  C   UNL     1       1.947   7.454  20.632  0.00  0.00    +0.000 A 
ATOM      3  C   UNL     1       1.018   8.185  21.364  0.00  0.00    +0.000 A 
ATOM      4  C   UNL     1       0.377   9.303  20.805  0.00  0.00    +0.000 A 
ATOM      5  C   UNL     1       0.697   9.738  19.486  0.00  0.00    +0.000 A 
ATOM      6  C   UNL     1       1.627   8.964  18.760  0.00  0.00    +0.000 A 
ENDROOT
BRANCH   5   7
ATOM      7  N   UNL     1       0.178  10.905  18.940  0.00  0.00    +0.000 N 
ATOM      8  C   UNL     1      -1.051  10.900  18.126  0.00  0.00    +0.000 C 
ATOM      9  C   UNL     1      -1.872  12.178  18.435  0.00  0.00    +0.000 C 
ATOM     10  N   UNL     1      -1.109  13.429  18.221  0.00  0.00    +0.000 NA
ATOM     11  C   UNL     1       0.148  13.370  18.995  0.00  0.00    +0.000 C 
ATOM     12  C   UNL     1       1.002  12.105  18.723  0.00  0.00    +0.000 C 
ATOM     13  H   UNL     1      -1.665  14.211  18.559  0.00  0.00    +0.000 HD
ENDBRANCH   5   7
BRANCH   1  14
ATOM     14  S   UNL     1       3.240   6.759  18.333  0.00  0.00    +0.000 S 
ATOM     15  O   UNL     1       4.266   6.199  19.182  0.00  0.00    +0.000 OA
ATOM     16  O   UNL     1       3.575   7.483  17.121  0.00  0.00    +0.000 OA
BRANCH  14  17
ATOM     17  N   UNL     1       2.153   5.532  17.871  0.00  0.00    +0.000 N 
ATOM     18  H   UNL     1       2.038   5.547  16.859  0.00  0.00    +0.000 HD
BRANCH  17  25
ATOM     19  C   UNL     1       3.073   3.237  17.790  0.00  0.00    +0.000 A 
ATOM     20  C   UNL     1       3.250   1.993  18.411  0.00  0.00    +0.000 A 
ATOM     21  C   UNL     1       2.671   1.734  19.656  0.00  0.00    +0.000 A 
ATOM     22  C   UNL     1       1.918   2.721  20.288  0.00  0.00    +0.000 A 
ATOM     23 CL   UNL     1       1.196   2.396  21.814  0.00  0.00    +0.000 Cl
ATOM     24  C   UNL     1       1.743   3.965  19.691  0.00  0.00    +0.000 A 
ATOM     25  C   UNL     1       2.326   4.230  18.450  0.00  0.00    +0.000 A 
BRANCH  19  27
ATOM     26  C   UNL     1       4.968   3.850  16.497  0.00  0.00    +0.000 C 
ATOM     27  O   UNL     1       3.573   3.564  16.554  0.00  0.00    +0.000 OA
ENDBRANCH  19  27
ENDBRANCH  17  25
ENDBRANCH  14  17
ENDBRANCH   1  14
BRANCH   4  28
ATOM     28  O   UNL     1      -0.560  10.034  21.498  0.00  0.00    +0.000 OA
ATOM     29  C   UNL     1      -0.487  10.039  22.918  0.00  0.00    +0.000 C 
ENDBRANCH   4  28
TORSDOF 6
ENDMDL
MODEL 2
REMARK VINA RESULT:      -6.9      2.731      8.213
REMARK  Name = 
REMARK  8 active torsions:
REMARK  status: ('A' for Active; 'I' for Inactive)
REMARK    1  A    between atoms: C_1  and  O_2
REMARK    2  A    between atoms: O_2  and  C_3
REMARK    3  A    between atoms: C_9  and  N_10
REMARK    4  A    between atoms: N_10  and  S_11
REMARK    5  A    between atoms: S_11  and  C_14
REMARK    6  A    between atoms: C_17  and  O_18
REMARK    7  A    between atoms: O_18  and  C_19
REMARK    8  A    between atoms: C_20  and  N_21
REMARK                            x       y       z     vdW  Elec       q    Type
REMARK                         _______ _______ _______ _____ _____    ______ ____
ROOT
ATOM      1  C   UNL     1       1.727   7.983  20.175  0.00  0.00    +0.000 A 
ATOM      2  C   UNL     1       2.397   8.576  19.112  0.00  0.00    +0.000 A 
ATOM      3  C   UNL     1       2.926   7.769  18.112  0.00  0.00    +0.000 A 
ATOM      4  C   UNL     1       2.828   6.369  18.187  0.00  0.00    +0.000 A 
ATOM      5  C   UNL     1       2.220   5.744  19.314  0.00  0.00    +0.000 A 
ATOM      6  C   UNL     1       1.673   6.591  20.303  0.00  0.00    +0.000 A 
ENDROOT
BRANCH   5   7
ATOM      7  N   UNL     1       2.209   4.366  19.486  0.00  0.00    +0.000 N 
ATOM      8  C   UNL     1       0.957   3.622  19.709  0.00  0.00    +0.000 C 
ATOM      9  C   UNL     1       1.035   2.261  18.972  0.00  0.00    +0.000 C 
ATOM     10  N   UNL     1       2.205   1.445  19.373  0.00  0.00    +0.000 NA
ATOM     11  C   UNL     1       3.435   2.246  19.204  0.00  0.00    +0.000 C 
ATOM     12  C   UNL     1       3.401   3.620  19.920  0.00  0.00    +0.000 C 
ATOM     13  H   UNL     1       2.257   0.631  18.765  0.00  0.00    +0.000 HD
ENDBRANCH   5   7
BRANCH   1  14
ATOM     14  S   UNL     1       0.886   9.031  21.337  0.00  0.00    +0.000 S 
ATOM     15  O   UNL     1       1.716   9.178  22.510  0.00  0.00    +0.000 OA
ATOM     16  O   UNL     1      -0.484   8.561  21.435  0.00  0.00    +0.000 OA
BRANCH  14  17
ATOM     17  N   UNL     1       0.822  10.511  20.497  0.00  0.00    +0.000 N 
ATOM     18  H   UNL     1       1.642  10.595  19.899  0.00  0.00    +0.000 HD
BRANCH  17  25
ATOM     19  C   UNL     1      -1.294  11.792  20.517  0.00  0.00    +0.000 A 
ATOM     20  C   UNL     1      -2.480  12.158  19.866  0.00  0.00    +0.000 A 
ATOM     21  C   UNL     1      -2.804  11.610  18.622  0.00  0.00    +0.000 A 
ATOM     22  C   UNL     1      -1.940  10.698  18.021  0.00  0.00    +0.000 A 
ATOM     23 CL   UNL     1      -2.347  10.016  16.496  0.00  0.00    +0.000 Cl
ATOM     24  C   UNL     1      -0.753  10.333  18.648  0.00  0.00    +0.000 A 
ATOM     25  C   UNL     1      -0.423  10.884  19.888  0.00  0.00    +0.000 A 
BRANCH  19  27
ATOM     26  C   UNL     1      -1.594  11.678  22.870  0.00  0.00    +0.000 C 
ATOM     27  O   UNL     1      -0.915  12.250  21.754  0.00  0.00    +0.000 OA
ENDBRANCH  19  27
ENDBRANCH  17  25
ENDBRANCH  14  17
ENDBRANCH   1  14
BRANCH   4  28
ATOM     28  O   UNL     1       3.325   5.545  17.203  0.00  0.00    +0.000 OA
ATOM     29  C   UNL     1       4.674   5.731  16.795  0.00  0.00    +0.000 C 
ENDBRANCH   4  28
TORSDOF 6
ENDMDL
MODEL 3
REMARK VINA RESULT:      -6.9      1.091      1.176
REMARK  Name = 
REMARK  8 active torsions:
REMARK  status: ('A' for Active; 'I' for Inactive)
REMARK    1  A    between atoms: C_1  and  O_2
REMARK    2  A    between atoms: O_2  and  C_3
REMARK    3  A    between atoms: C_9  and  N_10
REMARK    4  A    between atoms: N_10  and  S_11
REMARK    5  A    between atoms: S_11  and  C_14
REMARK    6  A    between atoms: C_17  and  O_18
REMARK    7  A    between atoms: O_18  and  C_19
REMARK    8  A    between atoms: C_20  and  N_21
REMARK                            x       y       z     vdW  Elec       q    Type
REMARK                         _______ _______ _______ _____ _____    ______ ____
ROOT
ATOM      1  C   UNL     1       2.017   8.000  19.383  0.00  0.00    +0.000 A 
ATOM      2  C   UNL     1       1.787   7.658  20.710  0.00  0.00    +0.000 A 
ATOM      3  C   UNL     1       0.980   8.480  21.488  0.00  0.00    +0.000 A 
ATOM      4  C   UNL     1       0.436   9.664  20.962  0.00  0.00    +0.000 A 
ATOM      5  C   UNL     1       0.736  10.071  19.630  0.00  0.00    +0.000 A 
ATOM      6  C   UNL     1       1.540   9.206  18.858  0.00  0.00    +0.000 A 
ENDROOT
BRANCH   5   7
ATOM      7  N   UNL     1       0.319  11.291  19.112  0.00  0.00    +0.000 N 
ATOM      8  C   UNL     1      -0.962  11.433  18.398  0.00  0.00    +0.000 C 
ATOM      9  C   UNL     1      -1.595  12.801  18.754  0.00  0.00    +0.000 C 
ATOM     10  N   UNL     1      -0.706  13.951  18.465  0.00  0.00    +0.000 NA
ATOM     11  C   UNL     1       0.593  13.741  19.137  0.00  0.00    +0.000 C 
ATOM     12  C   UNL     1       1.262  12.381  18.815  0.00  0.00    +0.000 C 
ATOM     13  H   UNL     1      -1.135  14.796  18.835  0.00  0.00    +0.000 HD
ENDBRANCH   5   7
BRANCH   1  14
ATOM     14  S   UNL     1       2.882   6.843  18.348  0.00  0.00    +0.000 S 
ATOM     15  O   UNL     1       3.707   7.580  17.420  0.00  0.00    +0.000 OA
ATOM     16  O   UNL     1       1.914   5.865  17.885  0.00  0.00    +0.000 OA
BRANCH  14  17
ATOM     17  N   UNL     1       3.874   6.035  19.472  0.00  0.00    +0.000 N 
ATOM     18  H   UNL     1       3.949   6.596  20.319  0.00  0.00    +0.000 HD
BRANCH  17  25
ATOM     19  C   UNL     1       4.392   3.667  18.981  0.00  0.00    +0.000 A 
ATOM     20  C   UNL     1       4.165   2.310  19.247  0.00  0.00    +0.000 A 
ATOM     21  C   UNL     1       3.197   1.922  20.177  0.00  0.00    +0.000 A 
ATOM     22  C   UNL     1       2.455   2.891  20.849  0.00  0.00    +0.000 A 
ATOM     23 CL   UNL     1       1.255   2.411  21.983  0.00  0.00    +0.000 Cl
ATOM     24  C   UNL     1       2.676   4.243  20.605  0.00  0.00    +0.000 A 
ATOM     25  C   UNL     1       3.648   4.633  19.682  0.00  0.00    +0.000 A 
BRANCH  19  27
ATOM     26  C   UNL     1       4.915   4.011  16.690  0.00  0.00    +0.000 C 
ATOM     27  O   UNL     1       5.294   4.136  18.059  0.00  0.00    +0.000 OA
ENDBRANCH  19  27
ENDBRANCH  17  25
ENDBRANCH  14  17
ENDBRANCH   1  14
BRANCH   4  28
ATOM     28  O   UNL     1      -0.382  10.487  21.702  0.00  0.00    +0.000 OA
ATOM     29  C   UNL     1      -0.701  10.093  23.031  0.00  0.00    +0.000 C 
ENDBRANCH   4  28
TORSDOF 6
ENDMDL
MODEL 4
REMARK VINA RESULT:      -6.9      0.395      1.016
REMARK  Name = 
REMARK  8 active torsions:
REMARK  status: ('A' for Active; 'I' for Inactive)
REMARK    1  A    between atoms: C_1  and  O_2
REMARK    2  A    between atoms: O_2  and  C_3
REMARK    3  A    between atoms: C_9  and  N_10
REMARK    4  A    between atoms: N_10  and  S_11
REMARK    5  A    between atoms: S_11  and  C_14
REMARK    6  A    between atoms: C_17  and  O_18
REMARK    7  A    between atoms: O_18  and  C_19
REMARK    8  A    between atoms: C_20  and  N_21
REMARK                            x       y       z     vdW  Elec       q    Type
REMARK                         _______ _______ _______ _____ _____    ______ ____
ROOT
ATOM      1  C   UNL     1       2.095   7.843  19.381  0.00  0.00    +0.000 A 
ATOM      2  C   UNL     1       1.870   7.351  20.661  0.00  0.00    +0.000 A 
ATOM      3  C   UNL     1       0.946   7.993  21.477  0.00  0.00    +0.000 A 
ATOM      4  C   UNL     1       0.276   9.148  21.040  0.00  0.00    +0.000 A 
ATOM      5  C   UNL     1       0.562   9.713  19.763  0.00  0.00    +0.000 A 
ATOM      6  C   UNL     1       1.488   9.027  18.949  0.00  0.00    +0.000 A 
ENDROOT
BRANCH   5   7
ATOM      7  N   UNL     1       0.014  10.918  19.342  0.00  0.00    +0.000 N 
ATOM      8  C   UNL     1       0.644  12.210  19.663  0.00  0.00    +0.000 C 
ATOM      9  C   UNL     1       0.487  13.168  18.455  0.00  0.00    +0.000 C 
ATOM     10  N   UNL     1      -0.922  13.363  18.042  0.00  0.00    +0.000 NA
ATOM     11  C   UNL     1      -1.542  12.044  17.796  0.00  0.00    +0.000 C 
ATOM     12  C   UNL     1      -1.406  11.049  18.977  0.00  0.00    +0.000 C 
ATOM     13  H   UNL     1      -0.936  13.898  17.176  0.00  0.00    +0.000 HD
ENDBRANCH   5   7
BRANCH   1  14
ATOM     14  S   UNL     1       3.125   6.901  18.281  0.00  0.00    +0.000 S 
ATOM     15  O   UNL     1       4.245   6.380  19.030  0.00  0.00    +0.000 OA
ATOM     16  O   UNL     1       3.323   7.696  17.083  0.00  0.00    +0.000 OA
BRANCH  14  17
ATOM     17  N   UNL     1       2.093   5.621  17.838  0.00  0.00    +0.000 N 
ATOM     18  H   UNL     1       1.957   5.631  16.829  0.00  0.00    +0.000 HD
BRANCH  17  25
ATOM     19  C   UNL     1       3.133   3.379  17.741  0.00  0.00    +0.000 A 
ATOM     20  C   UNL     1       3.383   2.145  18.357  0.00  0.00    +0.000 A 
ATOM     21  C   UNL     1       2.834   1.854  19.608  0.00  0.00    +0.000 A 
ATOM     22  C   UNL     1       2.037   2.798  20.252  0.00  0.00    +0.000 A 
ATOM     23 CL   UNL     1       1.352   2.432  21.786  0.00  0.00    +0.000 Cl
ATOM     24  C   UNL     1       1.789   4.032  19.659  0.00  0.00    +0.000 A 
ATOM     25  C   UNL     1       2.342   4.329  18.412  0.00  0.00    +0.000 A 
BRANCH  19  27
ATOM     26  C   UNL     1       4.997   3.999  16.407  0.00  0.00    +0.000 C 
ATOM     27  O   UNL     1       3.599   3.734  16.500  0.00  0.00    +0.000 OA
ENDBRANCH  19  27
ENDBRANCH  17  25
ENDBRANCH  14  17
ENDBRANCH   1  14
BRANCH   4  28
ATOM     28  O   UNL     1      -0.657   9.794  21.818  0.00  0.00    +0.000 OA
ATOM     29  C   UNL     1      -0.418   9.878  23.217  0.00  0.00    +0.000 C 
ENDBRANCH   4  28
TORSDOF 6
ENDMDL
MODEL 5
REMARK VINA RESULT:      -6.8      2.916      7.807
REMARK  Name = 
REMARK  8 active torsions:
REMARK  status: ('A' for Active; 'I' for Inactive)
REMARK    1  A    between atoms: C_1  and  O_2
REMARK    2  A    between atoms: O_2  and  C_3
REMARK    3  A    between atoms: C_9  and  N_10
REMARK    4  A    between atoms: N_10  and  S_11
REMARK    5  A    between atoms: S_11  and  C_14
REMARK    6  A    between atoms: C_17  and  O_18
REMARK    7  A    between atoms: O_18  and  C_19
REMARK    8  A    between atoms: C_20  and  N_21
REMARK                            x       y       z     vdW  Elec       q    Type
REMARK                         _______ _______ _______ _____ _____    ______ ____
ROOT
ATOM      1  C   UNL     1       1.758   6.922  20.398  0.00  0.00    +0.000 A 
ATOM      2  C   UNL     1       1.265   5.682  20.785  0.00  0.00    +0.000 A 
ATOM      3  C   UNL     1       1.939   4.534  20.386  0.00  0.00    +0.000 A 
ATOM      4  C   UNL     1       3.078   4.613  19.567  0.00  0.00    +0.000 A 
ATOM      5  C   UNL     1       3.543   5.874  19.092  0.00  0.00    +0.000 A 
ATOM      6  C   UNL     1       2.851   7.022  19.531  0.00  0.00    +0.000 A 
ENDROOT
BRANCH   5   7
ATOM      7  N   UNL     1       4.589   5.988  18.185  0.00  0.00    +0.000 N 
ATOM      8  C   UNL     1       5.986   5.733  18.578  0.00  0.00    +0.000 C 
ATOM      9  C   UNL     1       6.724   5.029  17.411  0.00  0.00    +0.000 C 
ATOM     10  N   UNL     1       6.669   5.790  16.140  0.00  0.00    +0.000 NA
ATOM     11  C   UNL     1       5.259   6.089  15.814  0.00  0.00    +0.000 C 
ATOM     12  C   UNL     1       4.478   6.789  16.955  0.00  0.00    +0.000 C 
ATOM     13  H   UNL     1       7.062   5.214  15.399  0.00  0.00    +0.000 HD
ENDBRANCH   5   7
BRANCH   1  14
ATOM     14  S   UNL     1       1.006   8.381  21.078  0.00  0.00    +0.000 S 
ATOM     15  O   UNL     1       1.800   8.831  22.198  0.00  0.00    +0.000 OA
ATOM     16  O   UNL     1      -0.414   8.114  21.218  0.00  0.00    +0.000 OA
BRANCH  14  17
ATOM     17  N   UNL     1       1.158   9.489  19.793  0.00  0.00    +0.000 N 
ATOM     18  H   UNL     1       1.727   9.076  19.057  0.00  0.00    +0.000 HD
BRANCH  17  25
ATOM     19  C   UNL     1      -0.576  11.230  20.084  0.00  0.00    +0.000 A 
ATOM     20  C   UNL     1      -1.710  11.887  19.589  0.00  0.00    +0.000 A 
ATOM     21  C   UNL     1      -2.303  11.473  18.393  0.00  0.00    +0.000 A 
ATOM     22  C   UNL     1      -1.759  10.405  17.684  0.00  0.00    +0.000 A 
ATOM     23 CL   UNL     1      -2.498   9.890  16.219  0.00  0.00    +0.000 Cl
ATOM     24  C   UNL     1      -0.626   9.750  18.155  0.00  0.00    +0.000 A 
ATOM     25  C   UNL     1      -0.027  10.165  19.347  0.00  0.00    +0.000 A 
BRANCH  19  27
ATOM     26  C   UNL     1      -0.774  11.527  22.432  0.00  0.00    +0.000 C 
ATOM     27  O   UNL     1       0.047  11.544  21.266  0.00  0.00    +0.000 OA
ENDBRANCH  19  27
ENDBRANCH  17  25
ENDBRANCH  14  17
ENDBRANCH   1  14
BRANCH   4  28
ATOM     28  O   UNL     1       3.777   3.495  19.172  0.00  0.00    +0.000 OA
ATOM     29  C   UNL     1       3.042   2.306  18.910  0.00  0.00    +0.000 C 
ENDBRANCH   4  28
TORSDOF 6
ENDMDL
MODEL 6
REMARK VINA RESULT:      -6.8      2.853      8.276
REMARK  Name = 
REMARK  8 active torsions:
REMARK  status: ('A' for Active; 'I' for Inactive)
REMARK    1  A    between atoms: C_1  and  O_2
REMARK    2  A    between atoms: O_2  and  C_3
REMARK    3  A    between atoms: C_9  and  N_10
REMARK    4  A    between atoms: N_10  and  S_11
REMARK    5  A    between atoms: S_11  and  C_14
REMARK    6  A    between atoms: C_17  and  O_18
REMARK    7  A    between atoms: O_18  and  C_19
REMARK    8  A    between atoms: C_20  and  N_21
REMARK                            x       y       z     vdW  Elec       q    Type
REMARK                         _______ _______ _______ _____ _____    ______ ____
ROOT
ATOM      1  C   UNL     1       1.614   8.653  19.801  0.00  0.00    +0.000 A 
ATOM      2  C   UNL     1       2.014   9.132  18.560  0.00  0.00    +0.000 A 
ATOM      3  C   UNL     1       2.689   8.280  17.693  0.00  0.00    +0.000 A 
ATOM      4  C   UNL     1       3.006   6.966  18.076  0.00  0.00    +0.000 A 
ATOM      5  C   UNL     1       2.679   6.490  19.379  0.00  0.00    +0.000 A 
ATOM      6  C   UNL     1       1.975   7.370  20.227  0.00  0.00    +0.000 A 
ENDROOT
BRANCH   5   7
ATOM      7  N   UNL     1       3.080   5.242  19.838  0.00  0.00    +0.000 N 
ATOM      8  C   UNL     1       2.301   4.500  20.845  0.00  0.00    +0.000 C 
ATOM      9  C   UNL     1       2.343   2.988  20.509  0.00  0.00    +0.000 C 
ATOM     10  N   UNL     1       3.719   2.448  20.411  0.00  0.00    +0.000 NA
ATOM     11  C   UNL     1       4.491   3.258  19.447  0.00  0.00    +0.000 C 
ATOM     12  C   UNL     1       4.474   4.780  19.741  0.00  0.00    +0.000 C 
ATOM     13  H   UNL     1       3.669   1.491  20.070  0.00  0.00    +0.000 HD
ENDBRANCH   5   7
BRANCH   1  14
ATOM     14  S   UNL     1       0.581   9.685  20.814  0.00  0.00    +0.000 S 
ATOM     15  O   UNL     1       1.346  10.123  21.958  0.00  0.00    +0.000 OA
ATOM     16  O   UNL     1      -0.691   9.005  20.972  0.00  0.00    +0.000 OA
BRANCH  14  17
ATOM     17  N   UNL     1       0.288  11.011  19.786  0.00  0.00    +0.000 N 
ATOM     18  H   UNL     1       1.069  11.117  19.142  0.00  0.00    +0.000 HD
BRANCH  17  25
ATOM     19  C   UNL     1      -2.017  11.909  19.796  0.00  0.00    +0.000 A 
ATOM     20  C   UNL     1      -3.261  12.025  19.162  0.00  0.00    +0.000 A 
ATOM     21  C   UNL     1      -3.511  11.353  17.963  0.00  0.00    +0.000 A 
ATOM     22  C   UNL     1      -2.515  10.566  17.389  0.00  0.00    +0.000 A 
ATOM     23 CL   UNL     1      -2.829   9.729  15.920  0.00  0.00    +0.000 Cl
ATOM     24  C   UNL     1      -1.270  10.450  17.999  0.00  0.00    +0.000 A 
ATOM     25  C   UNL     1      -1.015  11.126  19.194  0.00  0.00    +0.000 A 
BRANCH  19  27
ATOM     26  C   UNL     1      -2.755  12.604  21.943  0.00  0.00    +0.000 C 
ATOM     27  O   UNL     1      -1.698  12.502  20.992  0.00  0.00    +0.000 OA
ENDBRANCH  19  27
ENDBRANCH  17  25
ENDBRANCH  14  17
ENDBRANCH   1  14
BRANCH   4  28
ATOM     28  O   UNL     1       3.658   6.094  17.233  0.00  0.00    +0.000 OA
ATOM     29  C   UNL     1       4.814   6.562  16.551  0.00  0.00    +0.000 C 
ENDBRANCH   4  28
TORSDOF 6
ENDMDL
MODEL 7
REMARK VINA RESULT:      -6.8      1.074      1.486
REMARK  Name = 
REMARK  8 active torsions:
REMARK  status: ('A' for Active; 'I' for Inactive)
REMARK    1  A    between atoms: C_1  and  O_2
REMARK    2  A    between atoms: O_2  and  C_3
REMARK    3  A    between atoms: C_9  and  N_10
REMARK    4  A    between atoms: N_10  and  S_11
REMARK    5  A    between atoms: S_11  and  C_14
REMARK    6  A    between atoms: C_17  and  O_18
REMARK    7  A    between atoms: O_18  and  C_19
REMARK    8  A    between atoms: C_20  and  N_21
REMARK                            x       y       z     vdW  Elec       q    Type
REMARK                         _______ _______ _______ _____ _____    ______ ____
ROOT
ATOM      1  C   UNL     1       1.964   7.945  19.490  0.00  0.00    +0.000 A 
ATOM      2  C   UNL     1       1.783   7.536  20.806  0.00  0.00    +0.000 A 
ATOM      3  C   UNL     1       0.916   8.252  21.622  0.00  0.00    +0.000 A 
ATOM      4  C   UNL     1       0.262   9.401  21.147  0.00  0.00    +0.000 A 
ATOM      5  C   UNL     1       0.506   9.882  19.828  0.00  0.00    +0.000 A 
ATOM      6  C   UNL     1       1.374   9.121  19.016  0.00  0.00    +0.000 A 
ENDROOT
BRANCH   5   7
ATOM      7  N   UNL     1      -0.025  11.077  19.360  0.00  0.00    +0.000 N 
ATOM      8  C   UNL     1       0.585  12.378  19.690  0.00  0.00    +0.000 C 
ATOM      9  C   UNL     1       0.484  13.315  18.460  0.00  0.00    +0.000 C 
ATOM     10  N   UNL     1      -0.904  13.497  17.976  0.00  0.00    +0.000 NA
ATOM     11  C   UNL     1      -1.508  12.172  17.722  0.00  0.00    +0.000 C 
ATOM     12  C   UNL     1      -1.426  11.197  18.924  0.00  0.00    +0.000 C 
ATOM     13  H   UNL     1      -0.878  14.018  17.102  0.00  0.00    +0.000 HD
ENDBRANCH   5   7
BRANCH   1  14
ATOM     14  S   UNL     1       2.915   6.908  18.405  0.00  0.00    +0.000 S 
ATOM     15  O   UNL     1       3.757   7.748  17.585  0.00  0.00    +0.000 OA
ATOM     16  O   UNL     1       2.003   5.947  17.812  0.00  0.00    +0.000 OA
BRANCH  14  17
ATOM     17  N   UNL     1       3.880   6.036  19.503  0.00  0.00    +0.000 N 
ATOM     18  H   UNL     1       3.962   6.561  20.372  0.00  0.00    +0.000 HD
BRANCH  17  25
ATOM     19  C   UNL     1       4.292   3.681  18.869  0.00  0.00    +0.000 A 
ATOM     20  C   UNL     1       4.037   2.319  19.082  0.00  0.00    +0.000 A 
ATOM     21  C   UNL     1       3.109   1.915  20.045  0.00  0.00    +0.000 A 
ATOM     22  C   UNL     1       2.437   2.870  20.804  0.00  0.00    +0.000 A 
ATOM     23 CL   UNL     1       1.286   2.370  21.980  0.00  0.00    +0.000 Cl
ATOM     24  C   UNL     1       2.689   4.225  20.614  0.00  0.00    +0.000 A 
ATOM     25  C   UNL     1       3.620   4.633  19.657  0.00  0.00    +0.000 A 
BRANCH  19  27
ATOM     26  C   UNL     1       4.753   4.012  16.563  0.00  0.00    +0.000 C 
ATOM     27  O   UNL     1       5.157   4.168  17.921  0.00  0.00    +0.000 OA
ENDBRANCH  19  27
ENDBRANCH  17  25
ENDBRANCH  14  17
ENDBRANCH   1  14
BRANCH   4  28
ATOM     28  O   UNL     1      -0.616  10.121  21.926  0.00  0.00    +0.000 OA
ATOM     29  C   UNL     1      -0.558   9.944  23.335  0.00  0.00    +0.000 C 
ENDBRANCH   4  28
TORSDOF 6
ENDMDL
MODEL 8
REMARK VINA RESULT:      -6.7      2.866      3.584
REMARK  Name = 
REMARK  8 active torsions:
REMARK  status: ('A' for Active; 'I' for Inactive)
REMARK    1  A    between atoms: C_1  and  O_2
REMARK    2  A    between atoms: O_2  and  C_3
REMARK    3  A    between atoms: C_9  and  N_10
REMARK    4  A    between atoms: N_10  and  S_11
REMARK    5  A    between atoms: S_11  and  C_14
REMARK    6  A    between atoms: C_17  and  O_18
REMARK    7  A    between atoms: O_18  and  C_19
REMARK    8  A    between atoms: C_20  and  N_21
REMARK                            x       y       z     vdW  Elec       q    Type
REMARK                         _______ _______ _______ _____ _____    ______ ____
ROOT
ATOM      1  C   UNL     1       2.242   7.069  19.476  0.00  0.00    +0.000 A 
ATOM      2  C   UNL     1       1.920   6.854  20.810  0.00  0.00    +0.000 A 
ATOM      3  C   UNL     1       1.134   7.789  21.474  0.00  0.00    +0.000 A 
ATOM      4  C   UNL     1       0.704   8.960  20.827  0.00  0.00    +0.000 A 
ATOM      5  C   UNL     1       1.101   9.235  19.486  0.00  0.00    +0.000 A 
ATOM      6  C   UNL     1       1.880   8.257  18.832  0.00  0.00    +0.000 A 
ENDROOT
BRANCH   5   7
ATOM      7  N   UNL     1       0.800  10.433  18.851  0.00  0.00    +0.000 N 
ATOM      8  C   UNL     1      -0.488  10.646  18.168  0.00  0.00    +0.000 C 
ATOM      9  C   UNL     1      -0.948  12.109  18.392  0.00  0.00    +0.000 C 
ATOM     10  N   UNL     1       0.050  13.111  17.949  0.00  0.00    +0.000 NA
ATOM     11  C   UNL     1       1.346  12.824  18.599  0.00  0.00    +0.000 C 
ATOM     12  C   UNL     1       1.844  11.370  18.406  0.00  0.00    +0.000 C 
ATOM     13  H   UNL     1      -0.265  14.034  18.239  0.00  0.00    +0.000 HD
ENDBRANCH   5   7
BRANCH   1  14
ATOM     14  S   UNL     1       3.074   5.775  18.587  0.00  0.00    +0.000 S 
ATOM     15  O   UNL     1       2.129   5.149  17.691  0.00  0.00    +0.000 OA
ATOM     16  O   UNL     1       3.827   4.998  19.554  0.00  0.00    +0.000 OA
BRANCH  14  17
ATOM     17  N   UNL     1       4.221   6.649  17.681  0.00  0.00    +0.000 N 
ATOM     18  H   UNL     1       4.575   7.422  18.241  0.00  0.00    +0.000 HD
BRANCH  17  25
ATOM     19  C   UNL     1       6.496   5.694  17.507  0.00  0.00    +0.000 A 
ATOM     20  C   UNL     1       7.423   4.927  16.788  0.00  0.00    +0.000 A 
ATOM     21  C   UNL     1       7.089   4.402  15.537  0.00  0.00    +0.000 A 
ATOM     22  C   UNL     1       5.825   4.636  15.002  0.00  0.00    +0.000 A 
ATOM     23 CL   UNL     1       5.420   4.000  13.457  0.00  0.00    +0.000 Cl
ATOM     24  C   UNL     1       4.888   5.385  15.709  0.00  0.00    +0.000 A 
ATOM     25  C   UNL     1       5.217   5.905  16.962  0.00  0.00    +0.000 A 
BRANCH  19  27
ATOM     26  C   UNL     1       7.756   5.656  19.520  0.00  0.00    +0.000 C 
ATOM     27  O   UNL     1       6.751   6.278  18.723  0.00  0.00    +0.000 OA
ENDBRANCH  19  27
ENDBRANCH  17  25
ENDBRANCH  14  17
ENDBRANCH   1  14
BRANCH   4  28
ATOM     28  O   UNL     1      -0.089   9.895  21.453  0.00  0.00    +0.000 OA
ATOM     29  C   UNL     1      -0.147   9.879  22.873  0.00  0.00    +0.000 C 
ENDBRANCH   4  28
TORSDOF 6
ENDMDL
MODEL 9
REMARK VINA RESULT:      -6.6      3.319      8.470
REMARK  Name = 
REMARK  8 active torsions:
REMARK  status: ('A' for Active; 'I' for Inactive)
REMARK    1  A    between atoms: C_1  and  O_2
REMARK    2  A    between atoms: O_2  and  C_3
REMARK    3  A    between atoms: C_9  and  N_10
REMARK    4  A    between atoms: N_10  and  S_11
REMARK    5  A    between atoms: S_11  and  C_14
REMARK    6  A    between atoms: C_17  and  O_18
REMARK    7  A    between atoms: O_18  and  C_19
REMARK    8  A    between atoms: C_20  and  N_21
REMARK                            x       y       z     vdW  Elec       q    Type
REMARK                         _______ _______ _______ _____ _____    ______ ____
ROOT
ATOM      1  C   UNL     1       1.424   8.354  20.240  0.00  0.00    +0.000 A 
ATOM      2  C   UNL     1       1.563   9.051  19.046  0.00  0.00    +0.000 A 
ATOM      3  C   UNL     1       2.242   8.453  17.990  0.00  0.00    +0.000 A 
ATOM      4  C   UNL     1       2.822   7.182  18.134  0.00  0.00    +0.000 A 
ATOM      5  C   UNL     1       2.763   6.494  19.380  0.00  0.00    +0.000 A 
ATOM      6  C   UNL     1       2.048   7.116  20.426  0.00  0.00    +0.000 A 
ENDROOT
BRANCH   5   7
ATOM      7  N   UNL     1       3.425   5.292  19.600  0.00  0.00    +0.000 N 
ATOM      8  C   UNL     1       2.785   4.175  20.316  0.00  0.00    +0.000 C 
ATOM      9  C   UNL     1       3.217   2.837  19.663  0.00  0.00    +0.000 C 
ATOM     10  N   UNL     1       4.687   2.656  19.619  0.00  0.00    +0.000 NA
ATOM     11  C   UNL     1       5.301   3.826  18.959  0.00  0.00    +0.000 C 
ATOM     12  C   UNL     1       4.893   5.189  19.575  0.00  0.00    +0.000 C 
ATOM     13  H   UNL     1       4.896   1.824  19.071  0.00  0.00    +0.000 HD
ENDBRANCH   5   7
BRANCH   1  14
ATOM     14  S   UNL     1       0.386   9.043  21.507  0.00  0.00    +0.000 S 
ATOM     15  O   UNL     1       1.226   9.538  22.573  0.00  0.00    +0.000 OA
ATOM     16  O   UNL     1      -0.677   8.090  21.764  0.00  0.00    +0.000 OA
BRANCH  14  17
ATOM     17  N   UNL     1      -0.336  10.356  20.697  0.00  0.00    +0.000 N 
ATOM     18  H   UNL     1      -1.141  10.025  20.169  0.00  0.00    +0.000 HD
BRANCH  17  25
ATOM     19  C   UNL     1       0.346  12.651  21.319  0.00  0.00    +0.000 A 
ATOM     20  C   UNL     1       0.081  13.830  22.029  0.00  0.00    +0.000 A 
ATOM     21  C   UNL     1      -1.037  13.919  22.863  0.00  0.00    +0.000 A 
ATOM     22  C   UNL     1      -1.898  12.831  22.985  0.00  0.00    +0.000 A 
ATOM     23 CL   UNL     1      -3.265  12.938  24.022  0.00  0.00    +0.000 Cl
ATOM     24  C   UNL     1      -1.656  11.658  22.277  0.00  0.00    +0.000 A 
ATOM     25  C   UNL     1      -0.544  11.568  21.438  0.00  0.00    +0.000 A 
BRANCH  19  27
ATOM     26  C   UNL     1       2.381  13.532  20.469  0.00  0.00    +0.000 C 
ATOM     27  O   UNL     1       1.438  12.464  20.509  0.00  0.00    +0.000 OA
ENDBRANCH  19  27
ENDBRANCH  17  25
ENDBRANCH  14  17
ENDBRANCH   1  14
BRANCH   4  28
ATOM     28  O   UNL     1       3.485   6.557  17.101  0.00  0.00    +0.000 OA
ATOM     29  C   UNL     1       4.751   7.073  16.711  0.00  0.00    +0.000 C 
ENDBRANCH   4  28
TORSDOF 6
ENDMDL
