MODEL 1
REMARK VINA RESULT:      -7.7      0.000      0.000
REMARK  Name = 
REMARK  7 active torsions:
REMARK  status: ('A' for Active; 'I' for Inactive)
REMARK    1  A    between atoms: C_1  and  N_2
REMARK    2  A    between atoms: N_5  and  C_6
REMARK    3  A    between atoms: C_6  and  C_7
REMARK    4  A    between atoms: C_7  and  N_8
REMARK    5  A    between atoms: C_9  and  C_11
REMARK    6  A    between atoms: N_15  and  C_16
REMARK    7  A    between atoms: C_19  and  C_20
REMARK                            x       y       z     vdW  Elec       q    Type
REMARK                         _______ _______ _______ _____ _____    ______ ____
ROOT
ATOM      1  C   UNL     1       6.102   5.143  17.763  0.00  0.00    +0.000 A 
ATOM      2  C   UNL     1       6.220   4.774  16.386  0.00  0.00    +0.000 A 
ATOM      3  C   UNL     1       7.354   5.088  15.602  0.00  0.00    +0.000 A 
ATOM      4  C   UNL     1       7.431   4.749  14.260  0.00  0.00    +0.000 A 
ATOM      5  N   UNL     1       6.421   4.083  13.681  0.00  0.00    +0.000 N 
ATOM      6  C   UNL     1       6.492   3.706  12.259  0.00  0.00    +0.000 C 
ATOM      7  C   UNL     1       5.326   3.741  14.391  0.00  0.00    +0.000 A 
ATOM      8  C   UNL     1       5.170   4.061  15.753  0.00  0.00    +0.000 A 
ATOM      9  C   UNL     1       3.993   3.693  16.486  0.00  0.00    +0.000 A 
ATOM     10  C   UNL     1       2.843   2.942  15.852  0.00  0.00    +0.000 C 
ATOM     11  C   UNL     1       3.894   4.062  17.859  0.00  0.00    +0.000 A 
ATOM     12  C   UNL     1       4.932   4.774  18.453  0.00  0.00    +0.000 A 
ATOM     13  N   UNL     1       4.533   5.053  19.747  0.00  0.00    +0.000 N 
ATOM     14  C   UNL     1       3.322   4.482  20.032  0.00  0.00    +0.000 A 
ATOM     15  C   UNL     1       2.591   4.480  21.227  0.00  0.00    +0.000 A 
ATOM     16  C   UNL     1       1.348   3.842  21.226  0.00  0.00    +0.000 A 
ATOM     17  C   UNL     1       0.860   3.236  20.075  0.00  0.00    +0.000 A 
ATOM     18  C   UNL     1       1.610   3.241  18.897  0.00  0.00    +0.000 A 
ATOM     19  C   UNL     1       2.876   3.871  18.865  0.00  0.00    +0.000 A 
ATOM     20  H   UNL     1       5.064   5.607  20.406  0.00  0.00    +0.000 HD
ENDROOT
BRANCH   1  22
ATOM     21  N   UNL     1       7.427   7.215  17.852  0.00  0.00    +0.000 N 
ATOM     22  C   UNL     1       7.121   6.004  18.440  0.00  0.00    +0.000 C 
ATOM     23  O   UNL     1       7.661   5.611  19.469  0.00  0.00    +0.000 OA
ATOM     24  H   UNL     1       6.758   7.635  17.219  0.00  0.00    +0.000 HD
BRANCH  21  25
ATOM     25  C   UNL     1       8.393   8.123  18.463  0.00  0.00    +0.000 C 
BRANCH  25  26
ATOM     26  C   UNL     1       8.177   9.606  18.108  0.00  0.00    +0.000 C 
BRANCH  26  31
ATOM     27  C   UNL     1      11.711  12.290  20.129  0.00  0.00    +0.000 C 
ATOM     28  N   UNL     1      11.021  11.679  19.022  0.00  0.00    +0.000 N 
ATOM     29  C   UNL     1       9.892  10.945  19.233  0.00  0.00    +0.000 C 
ATOM     30  O   UNL     1       9.386  10.777  20.336  0.00  0.00    +0.000 OA
ATOM     31  N   UNL     1       9.410  10.373  18.091  0.00  0.00    +0.000 N 
ATOM     32  H   UNL     1      11.368  11.819  18.085  0.00  0.00    +0.000 HD
ATOM     33  H   UNL     1       9.741  10.721  17.204  0.00  0.00    +0.000 HD
ENDBRANCH  26  31
ENDBRANCH  25  26
ENDBRANCH  21  25
ENDBRANCH   1  22
TORSDOF 4
ENDMDL
MODEL 2
REMARK VINA RESULT:      -7.6     10.478     12.204
REMARK  Name = 
REMARK  7 active torsions:
REMARK  status: ('A' for Active; 'I' for Inactive)
REMARK    1  A    between atoms: C_1  and  N_2
REMARK    2  A    between atoms: N_5  and  C_6
REMARK    3  A    between atoms: C_6  and  C_7
REMARK    4  A    between atoms: C_7  and  N_8
REMARK    5  A    between atoms: C_9  and  C_11
REMARK    6  A    between atoms: N_15  and  C_16
REMARK    7  A    between atoms: C_19  and  C_20
REMARK                            x       y       z     vdW  Elec       q    Type
REMARK                         _______ _______ _______ _____ _____    ______ ____
ROOT
ATOM      1  C   UNL     1      -2.041  11.790  20.676  0.00  0.00    +0.000 A 
ATOM      2  C   UNL     1      -1.026  11.075  19.968  0.00  0.00    +0.000 A 
ATOM      3  C   UNL     1       0.211  10.717  20.551  0.00  0.00    +0.000 A 
ATOM      4  C   UNL     1       1.194  10.053  19.834  0.00  0.00    +0.000 A 
ATOM      5  N   UNL     1       0.971   9.712  18.556  0.00  0.00    +0.000 N 
ATOM      6  C   UNL     1       2.000   8.997  17.784  0.00  0.00    +0.000 C 
ATOM      7  C   UNL     1      -0.201  10.011  17.959  0.00  0.00    +0.000 A 
ATOM      8  C   UNL     1      -1.241  10.693  18.618  0.00  0.00    +0.000 A 
ATOM      9  C   UNL     1      -2.476  11.007  17.960  0.00  0.00    +0.000 A 
ATOM     10  C   UNL     1      -2.747  10.632  16.520  0.00  0.00    +0.000 C 
ATOM     11  C   UNL     1      -3.480  11.714  18.682  0.00  0.00    +0.000 A 
ATOM     12  C   UNL     1      -3.240  12.090  20.001  0.00  0.00    +0.000 A 
ATOM     13  N   UNL     1      -4.342  12.814  20.415  0.00  0.00    +0.000 N 
ATOM     14  C   UNL     1      -5.311  12.849  19.450  0.00  0.00    +0.000 A 
ATOM     15  C   UNL     1      -6.585  13.429  19.479  0.00  0.00    +0.000 A 
ATOM     16  C   UNL     1      -7.363  13.346  18.322  0.00  0.00    +0.000 A 
ATOM     17  C   UNL     1      -6.880  12.713  17.183  0.00  0.00    +0.000 A 
ATOM     18  C   UNL     1      -5.609  12.133  17.178  0.00  0.00    +0.000 A 
ATOM     19  C   UNL     1      -4.799  12.191  18.336  0.00  0.00    +0.000 A 
ATOM     20  H   UNL     1      -4.429  13.263  21.318  0.00  0.00    +0.000 HD
ENDROOT
BRANCH   1  22
ATOM     21  N   UNL     1      -1.364  13.627  22.168  0.00  0.00    +0.000 N 
ATOM     22  C   UNL     1      -1.815  12.326  22.054  0.00  0.00    +0.000 C 
ATOM     23  O   UNL     1      -2.013  11.606  23.027  0.00  0.00    +0.000 OA
ATOM     24  H   UNL     1      -1.521  14.268  21.401  0.00  0.00    +0.000 HD
BRANCH  21  25
ATOM     25  C   UNL     1      -1.141  14.231  23.477  0.00  0.00    +0.000 C 
BRANCH  25  26
ATOM     26  C   UNL     1      -2.365  14.973  24.047  0.00  0.00    +0.000 C 
BRANCH  26  31
ATOM     27  C   UNL     1      -6.708  12.759  23.957  0.00  0.00    +0.000 C 
ATOM     28  N   UNL     1      -5.438  13.098  24.548  0.00  0.00    +0.000 N 
ATOM     29  C   UNL     1      -4.572  13.925  23.896  0.00  0.00    +0.000 C 
ATOM     30  O   UNL     1      -4.811  14.441  22.811  0.00  0.00    +0.000 OA
ATOM     31  N   UNL     1      -3.388  14.079  24.557  0.00  0.00    +0.000 N 
ATOM     32  H   UNL     1      -5.206  12.736  25.460  0.00  0.00    +0.000 HD
ATOM     33  H   UNL     1      -3.342  13.807  25.527  0.00  0.00    +0.000 HD
ENDBRANCH  26  31
ENDBRANCH  25  26
ENDBRANCH  21  25
ENDBRANCH   1  22
TORSDOF 4
ENDMDL
MODEL 3
REMARK VINA RESULT:      -7.6      3.723      6.205
REMARK  Name = 
REMARK  7 active torsions:
REMARK  status: ('A' for Active; 'I' for Inactive)
REMARK    1  A    between atoms: C_1  and  N_2
REMARK    2  A    between atoms: N_5  and  C_6
REMARK    3  A    between atoms: C_6  and  C_7
REMARK    4  A    between atoms: C_7  and  N_8
REMARK    5  A    between atoms: C_9  and  C_11
REMARK    6  A    between atoms: N_15  and  C_16
REMARK    7  A    between atoms: C_19  and  C_20
REMARK                            x       y       z     vdW  Elec       q    Type
REMARK                         _______ _______ _______ _____ _____    ______ ____
ROOT
ATOM      1  C   UNL     1       3.280   6.485  18.269  0.00  0.00    +0.000 A 
ATOM      2  C   UNL     1       2.902   5.456  19.187  0.00  0.00    +0.000 A 
ATOM      3  C   UNL     1       3.392   4.133  19.102  0.00  0.00    +0.000 A 
ATOM      4  C   UNL     1       2.985   3.143  19.983  0.00  0.00    +0.000 A 
ATOM      5  N   UNL     1       2.119   3.439  20.963  0.00  0.00    +0.000 N 
ATOM      6  C   UNL     1       1.684   2.402  21.914  0.00  0.00    +0.000 C 
ATOM      7  C   UNL     1       1.637   4.692  21.101  0.00  0.00    +0.000 A 
ATOM      8  C   UNL     1       1.995   5.745  20.239  0.00  0.00    +0.000 A 
ATOM      9  C   UNL     1       1.463   7.068  20.400  0.00  0.00    +0.000 A 
ATOM     10  C   UNL     1       0.486   7.423  21.499  0.00  0.00    +0.000 C 
ATOM     11  C   UNL     1       1.856   8.084  19.482  0.00  0.00    +0.000 A 
ATOM     12  C   UNL     1       2.736   7.771  18.449  0.00  0.00    +0.000 A 
ATOM     13  N   UNL     1       2.875   8.915  17.685  0.00  0.00    +0.000 N 
ATOM     14  C   UNL     1       2.190   9.967  18.229  0.00  0.00    +0.000 A 
ATOM     15  C   UNL     1       2.106  11.299  17.802  0.00  0.00    +0.000 A 
ATOM     16  C   UNL     1       1.291  12.165  18.535  0.00  0.00    +0.000 A 
ATOM     17  C   UNL     1       0.588  11.713  19.645  0.00  0.00    +0.000 A 
ATOM     18  C   UNL     1       0.693  10.382  20.059  0.00  0.00    +0.000 A 
ATOM     19  C   UNL     1       1.516   9.481  19.344  0.00  0.00    +0.000 A 
ATOM     20  H   UNL     1       3.417   8.975  16.833  0.00  0.00    +0.000 HD
ENDROOT
BRANCH   1  22
ATOM     21  N   UNL     1       4.631   4.923  16.930  0.00  0.00    +0.000 N 
ATOM     22  C   UNL     1       4.129   6.202  17.071  0.00  0.00    +0.000 C 
ATOM     23  O   UNL     1       4.370   7.100  16.270  0.00  0.00    +0.000 OA
ATOM     24  H   UNL     1       4.166   4.160  17.406  0.00  0.00    +0.000 HD
BRANCH  21  25
ATOM     25  C   UNL     1       5.449   4.561  15.778  0.00  0.00    +0.000 C 
BRANCH  25  26
ATOM     26  C   UNL     1       6.965   4.711  16.007  0.00  0.00    +0.000 C 
BRANCH  26  31
ATOM     27  C   UNL     1       8.204   8.872  18.225  0.00  0.00    +0.000 C 
ATOM     28  N   UNL     1       7.915   8.053  17.075  0.00  0.00    +0.000 N 
ATOM     29  C   UNL     1       7.564   6.745  17.231  0.00  0.00    +0.000 C 
ATOM     30  O   UNL     1       7.448   6.197  18.321  0.00  0.00    +0.000 OA
ATOM     31  N   UNL     1       7.401   6.094  16.042  0.00  0.00    +0.000 N 
ATOM     32  H   UNL     1       7.953   8.463  16.155  0.00  0.00    +0.000 HD
ATOM     33  H   UNL     1       7.300   6.647  15.204  0.00  0.00    +0.000 HD
ENDBRANCH  26  31
ENDBRANCH  25  26
ENDBRANCH  21  25
ENDBRANCH   1  22
TORSDOF 4
ENDMDL
MODEL 4
REMARK VINA RESULT:      -7.5      8.570     11.562
REMARK  Name = 
REMARK  7 active torsions:
REMARK  status: ('A' for Active; 'I' for Inactive)
REMARK    1  A    between atoms: C_1  and  N_2
REMARK    2  A    between atoms: N_5  and  C_6
REMARK    3  A    between atoms: C_6  and  C_7
REMARK    4  A    between atoms: C_7  and  N_8
REMARK    5  A    between atoms: C_9  and  C_11
REMARK    6  A    between atoms: N_15  and  C_16
REMARK    7  A    between atoms: C_19  and  C_20
REMARK                            x       y       z     vdW  Elec       q    Type
REMARK                         _______ _______ _______ _____ _____    ______ ____
ROOT
ATOM      1  C   UNL     1      -1.079  11.676  20.825  0.00  0.00    +0.000 A 
ATOM      2  C   UNL     1      -1.731  12.547  21.753  0.00  0.00    +0.000 A 
ATOM      3  C   UNL     1      -1.174  12.892  23.005  0.00  0.00    +0.000 A 
ATOM      4  C   UNL     1      -1.841  13.711  23.902  0.00  0.00    +0.000 A 
ATOM      5  N   UNL     1      -3.040  14.217  23.578  0.00  0.00    +0.000 N 
ATOM      6  C   UNL     1      -3.757  15.098  24.516  0.00  0.00    +0.000 C 
ATOM      7  C   UNL     1      -3.606  13.937  22.387  0.00  0.00    +0.000 A 
ATOM      8  C   UNL     1      -2.995  13.104  21.430  0.00  0.00    +0.000 A 
ATOM      9  C   UNL     1      -3.621  12.813  20.172  0.00  0.00    +0.000 A 
ATOM     10  C   UNL     1      -4.971  13.374  19.787  0.00  0.00    +0.000 C 
ATOM     11  C   UNL     1      -2.954  11.949  19.256  0.00  0.00    +0.000 A 
ATOM     12  C   UNL     1      -1.720  11.404  19.602  0.00  0.00    +0.000 A 
ATOM     13  N   UNL     1      -1.354  10.561  18.569  0.00  0.00    +0.000 N 
ATOM     14  C   UNL     1      -2.257  10.606  17.542  0.00  0.00    +0.000 A 
ATOM     15  C   UNL     1      -2.239   9.951  16.304  0.00  0.00    +0.000 A 
ATOM     16  C   UNL     1      -3.325  10.151  15.448  0.00  0.00    +0.000 A 
ATOM     17  C   UNL     1      -4.384  10.970  15.821  0.00  0.00    +0.000 A 
ATOM     18  C   UNL     1      -4.377  11.621  17.057  0.00  0.00    +0.000 A 
ATOM     19  C   UNL     1      -3.289  11.447  17.944  0.00  0.00    +0.000 A 
ATOM     20  H   UNL     1      -0.524   9.983  18.565  0.00  0.00    +0.000 HD
ENDROOT
BRANCH   1  22
ATOM     21  N   UNL     1       0.103   9.622  21.488  0.00  0.00    +0.000 N 
ATOM     22  C   UNL     1       0.190  10.963  21.169  0.00  0.00    +0.000 C 
ATOM     23  O   UNL     1       1.251  11.579  21.179  0.00  0.00    +0.000 OA
ATOM     24  H   UNL     1      -0.696   9.093  21.164  0.00  0.00    +0.000 HD
BRANCH  21  25
ATOM     25  C   UNL     1       1.298   8.849  21.813  0.00  0.00    +0.000 C 
BRANCH  25  26
ATOM     26  C   UNL     1       1.739   7.872  20.706  0.00  0.00    +0.000 C 
BRANCH  26  31
ATOM     27  C   UNL     1       2.445   3.086  20.107  0.00  0.00    +0.000 C 
ATOM     28  N   UNL     1       2.050   4.253  20.853  0.00  0.00    +0.000 N 
ATOM     29  C   UNL     1       2.119   5.491  20.284  0.00  0.00    +0.000 C 
ATOM     30  O   UNL     1       2.485   5.691  19.132  0.00  0.00    +0.000 OA
ATOM     31  N   UNL     1       1.785   6.491  21.150  0.00  0.00    +0.000 N 
ATOM     32  H   UNL     1       1.700   4.145  21.792  0.00  0.00    +0.000 HD
ATOM     33  H   UNL     1       1.295   6.247  21.997  0.00  0.00    +0.000 HD
ENDBRANCH  26  31
ENDBRANCH  25  26
ENDBRANCH  21  25
ENDBRANCH   1  22
TORSDOF 4
ENDMDL
MODEL 5
REMARK VINA RESULT:      -7.4      1.340      5.136
REMARK  Name = 
REMARK  7 active torsions:
REMARK  status: ('A' for Active; 'I' for Inactive)
REMARK    1  A    between atoms: C_1  and  N_2
REMARK    2  A    between atoms: N_5  and  C_6
REMARK    3  A    between atoms: C_6  and  C_7
REMARK    4  A    between atoms: C_7  and  N_8
REMARK    5  A    between atoms: C_9  and  C_11
REMARK    6  A    between atoms: N_15  and  C_16
REMARK    7  A    between atoms: C_19  and  C_20
REMARK                            x       y       z     vdW  Elec       q    Type
REMARK                         _______ _______ _______ _____ _____    ______ ____
ROOT
ATOM      1  C   UNL     1       6.129   5.678  17.481  0.00  0.00    +0.000 A 
ATOM      2  C   UNL     1       4.969   5.266  18.209  0.00  0.00    +0.000 A 
ATOM      3  C   UNL     1       4.721   5.659  19.544  0.00  0.00    +0.000 A 
ATOM      4  C   UNL     1       3.606   5.219  20.240  0.00  0.00    +0.000 A 
ATOM      5  N   UNL     1       2.717   4.417  19.637  0.00  0.00    +0.000 N 
ATOM      6  C   UNL     1       1.522   3.950  20.359  0.00  0.00    +0.000 C 
ATOM      7  C   UNL     1       2.896   4.031  18.357  0.00  0.00    +0.000 A 
ATOM      8  C   UNL     1       4.008   4.426  17.590  0.00  0.00    +0.000 A 
ATOM      9  C   UNL     1       4.182   3.997  16.232  0.00  0.00    +0.000 A 
ATOM     10  C   UNL     1       3.191   3.093  15.534  0.00  0.00    +0.000 C 
ATOM     11  C   UNL     1       5.339   4.422  15.519  0.00  0.00    +0.000 A 
ATOM     12  C   UNL     1       6.275   5.235  16.153  0.00  0.00    +0.000 A 
ATOM     13  N   UNL     1       7.311   5.422  15.257  0.00  0.00    +0.000 N 
ATOM     14  C   UNL     1       7.042   4.836  14.050  0.00  0.00    +0.000 A 
ATOM     15  C   UNL     1       7.795   4.829  12.870  0.00  0.00    +0.000 A 
ATOM     16  C   UNL     1       7.293   4.107  11.784  0.00  0.00    +0.000 A 
ATOM     17  C   UNL     1       6.090   3.420  11.881  0.00  0.00    +0.000 A 
ATOM     18  C   UNL     1       5.349   3.448  13.065  0.00  0.00    +0.000 A 
ATOM     19  C   UNL     1       5.825   4.176  14.181  0.00  0.00    +0.000 A 
ATOM     20  H   UNL     1       8.162   5.931  15.459  0.00  0.00    +0.000 HD
ENDROOT
BRANCH   1  22
ATOM     21  N   UNL     1       7.401   7.770  17.736  0.00  0.00    +0.000 N 
ATOM     22  C   UNL     1       7.233   6.456  18.127  0.00  0.00    +0.000 C 
ATOM     23  O   UNL     1       7.957   5.912  18.954  0.00  0.00    +0.000 OA
ATOM     24  H   UNL     1       6.620   8.261  17.320  0.00  0.00    +0.000 HD
BRANCH  21  25
ATOM     25  C   UNL     1       8.439   8.602  18.334  0.00  0.00    +0.000 C 
BRANCH  25  26
ATOM     26  C   UNL     1       8.270  10.111  18.071  0.00  0.00    +0.000 C 
BRANCH  26  31
ATOM     27  C   UNL     1      11.067  14.059  17.476  0.00  0.00    +0.000 C 
ATOM     28  N   UNL     1      10.839  12.659  17.725  0.00  0.00    +0.000 N 
ATOM     29  C   UNL     1       9.571  12.158  17.740  0.00  0.00    +0.000 C 
ATOM     30  O   UNL     1       8.571  12.832  17.526  0.00  0.00    +0.000 OA
ATOM     31  N   UNL     1       9.528  10.834  18.067  0.00  0.00    +0.000 N 
ATOM     32  H   UNL     1      11.629  12.048  17.865  0.00  0.00    +0.000 HD
ATOM     33  H   UNL     1      10.383  10.300  18.017  0.00  0.00    +0.000 HD
ENDBRANCH  26  31
ENDBRANCH  25  26
ENDBRANCH  21  25
ENDBRANCH   1  22
TORSDOF 4
ENDMDL
MODEL 6
REMARK VINA RESULT:      -7.3      9.197     11.137
REMARK  Name = 
REMARK  7 active torsions:
REMARK  status: ('A' for Active; 'I' for Inactive)
REMARK    1  A    between atoms: C_1  and  N_2
REMARK    2  A    between atoms: N_5  and  C_6
REMARK    3  A    between atoms: C_6  and  C_7
REMARK    4  A    between atoms: C_7  and  N_8
REMARK    5  A    between atoms: C_9  and  C_11
REMARK    6  A    between atoms: N_15  and  C_16
REMARK    7  A    between atoms: C_19  and  C_20
REMARK                            x       y       z     vdW  Elec       q    Type
REMARK                         _______ _______ _______ _____ _____    ______ ____
ROOT
ATOM      1  C   UNL     1      -2.128  11.459  19.446  0.00  0.00    +0.000 A 
ATOM      2  C   UNL     1      -2.588  11.079  18.146  0.00  0.00    +0.000 A 
ATOM      3  C   UNL     1      -1.813  10.303  17.254  0.00  0.00    +0.000 A 
ATOM      4  C   UNL     1      -2.266   9.975  15.986  0.00  0.00    +0.000 A 
ATOM      5  N   UNL     1      -3.481  10.380  15.587  0.00  0.00    +0.000 N 
ATOM      6  C   UNL     1      -3.982  10.032  14.247  0.00  0.00    +0.000 C 
ATOM      7  C   UNL     1      -4.269  11.105  16.408  0.00  0.00    +0.000 A 
ATOM      8  C   UNL     1      -3.873  11.485  17.704  0.00  0.00    +0.000 A 
ATOM      9  C   UNL     1      -4.725  12.263  18.557  0.00  0.00    +0.000 A 
ATOM     10  C   UNL     1      -6.098  12.729  18.127  0.00  0.00    +0.000 C 
ATOM     11  C   UNL     1      -4.255  12.627  19.852  0.00  0.00    +0.000 A 
ATOM     12  C   UNL     1      -2.983  12.228  20.257  0.00  0.00    +0.000 A 
ATOM     13  N   UNL     1      -2.773  12.780  21.507  0.00  0.00    +0.000 N 
ATOM     14  C   UNL     1      -3.883  13.444  21.955  0.00  0.00    +0.000 A 
ATOM     15  C   UNL     1      -4.105  14.096  23.174  0.00  0.00    +0.000 A 
ATOM     16  C   UNL     1      -5.335  14.733  23.354  0.00  0.00    +0.000 A 
ATOM     17  C   UNL     1      -6.297  14.720  22.352  0.00  0.00    +0.000 A 
ATOM     18  C   UNL     1      -6.058  14.055  21.146  0.00  0.00    +0.000 A 
ATOM     19  C   UNL     1      -4.826  13.392  20.935  0.00  0.00    +0.000 A 
ATOM     20  H   UNL     1      -1.911  12.703  22.032  0.00  0.00    +0.000 HD
ENDROOT
BRANCH   1  22
ATOM     21  N   UNL     1      -0.475   9.898  20.390  0.00  0.00    +0.000 N 
ATOM     22  C   UNL     1      -0.736  11.166  19.908  0.00  0.00    +0.000 C 
ATOM     23  O   UNL     1       0.117  12.048  19.868  0.00  0.00    +0.000 OA
ATOM     24  H   UNL     1      -1.082   9.136  20.115  0.00  0.00    +0.000 HD
BRANCH  21  25
ATOM     25  C   UNL     1       0.862   9.527  20.839  0.00  0.00    +0.000 C 
BRANCH  25  26
ATOM     26  C   UNL     1       1.030   8.028  21.154  0.00  0.00    +0.000 C 
BRANCH  26  31
ATOM     27  C   UNL     1       3.705   4.307  19.493  0.00  0.00    +0.000 C 
ATOM     28  N   UNL     1       3.460   5.695  19.788  0.00  0.00    +0.000 N 
ATOM     29  C   UNL     1       2.286   6.081  20.364  0.00  0.00    +0.000 C 
ATOM     30  O   UNL     1       1.396   5.301  20.683  0.00  0.00    +0.000 OA
ATOM     31  N   UNL     1       2.183   7.434  20.503  0.00  0.00    +0.000 N 
ATOM     32  H   UNL     1       4.175   6.377  19.586  0.00  0.00    +0.000 HD
ATOM     33  H   UNL     1       3.022   7.989  20.423  0.00  0.00    +0.000 HD
ENDBRANCH  26  31
ENDBRANCH  25  26
ENDBRANCH  21  25
ENDBRANCH   1  22
TORSDOF 4
ENDMDL
MODEL 7
REMARK VINA RESULT:      -7.3      9.257     11.668
REMARK  Name = 
REMARK  7 active torsions:
REMARK  status: ('A' for Active; 'I' for Inactive)
REMARK    1  A    between atoms: C_1  and  N_2
REMARK    2  A    between atoms: N_5  and  C_6
REMARK    3  A    between atoms: C_6  and  C_7
REMARK    4  A    between atoms: C_7  and  N_8
REMARK    5  A    between atoms: C_9  and  C_11
REMARK    6  A    between atoms: N_15  and  C_16
REMARK    7  A    between atoms: C_19  and  C_20
REMARK                            x       y       z     vdW  Elec       q    Type
REMARK                         _______ _______ _______ _____ _____    ______ ____
ROOT
ATOM      1  C   UNL     1      -1.122  11.247  19.037  0.00  0.00    +0.000 A 
ATOM      2  C   UNL     1      -0.152  10.216  19.238  0.00  0.00    +0.000 A 
ATOM      3  C   UNL     1       0.574   9.627  18.177  0.00  0.00    +0.000 A 
ATOM      4  C   UNL     1       1.485   8.605  18.393  0.00  0.00    +0.000 A 
ATOM      5  N   UNL     1       1.713   8.168  19.640  0.00  0.00    +0.000 N 
ATOM      6  C   UNL     1       2.686   7.090  19.888  0.00  0.00    +0.000 C 
ATOM      7  C   UNL     1       1.063   8.712  20.690  0.00  0.00    +0.000 A 
ATOM      8  C   UNL     1       0.116   9.743  20.548  0.00  0.00    +0.000 A 
ATOM      9  C   UNL     1      -0.569  10.301  21.679  0.00  0.00    +0.000 A 
ATOM     10  C   UNL     1      -0.327   9.822  23.093  0.00  0.00    +0.000 C 
ATOM     11  C   UNL     1      -1.528  11.333  21.462  0.00  0.00    +0.000 A 
ATOM     12  C   UNL     1      -1.783  11.770  20.165  0.00  0.00    +0.000 A 
ATOM     13  N   UNL     1      -2.795  12.708  20.253  0.00  0.00    +0.000 N 
ATOM     14  C   UNL     1      -3.141  12.950  21.555  0.00  0.00    +0.000 A 
ATOM     15  C   UNL     1      -4.075  13.851  22.080  0.00  0.00    +0.000 A 
ATOM     16  C   UNL     1      -4.257  13.864  23.465  0.00  0.00    +0.000 A 
ATOM     17  C   UNL     1      -3.535  13.006  24.286  0.00  0.00    +0.000 A 
ATOM     18  C   UNL     1      -2.601  12.121  23.741  0.00  0.00    +0.000 A 
ATOM     19  C   UNL     1      -2.386  12.089  22.343  0.00  0.00    +0.000 A 
ATOM     20  H   UNL     1      -3.227  13.164  19.460  0.00  0.00    +0.000 HD
ENDROOT
BRANCH   1  22
ATOM     21  N   UNL     1      -2.448  10.908  16.992  0.00  0.00    +0.000 N 
ATOM     22  C   UNL     1      -1.533  11.690  17.668  0.00  0.00    +0.000 C 
ATOM     23  O   UNL     1      -1.041  12.705  17.184  0.00  0.00    +0.000 OA
ATOM     24  H   UNL     1      -3.053  10.293  17.521  0.00  0.00    +0.000 HD
BRANCH  21  25
ATOM     25  C   UNL     1      -2.917  11.284  15.662  0.00  0.00    +0.000 C 
BRANCH  25  26
ATOM     26  C   UNL     1      -2.967  10.117  14.657  0.00  0.00    +0.000 C 
BRANCH  26  31
ATOM     27  C   UNL     1      -6.137   9.302  11.044  0.00  0.00    +0.000 C 
ATOM     28  N   UNL     1      -5.774   9.585  12.408  0.00  0.00    +0.000 N 
ATOM     29  C   UNL     1      -4.463   9.710  12.762  0.00  0.00    +0.000 C 
ATOM     30  O   UNL     1      -3.533   9.617  11.969  0.00  0.00    +0.000 OA
ATOM     31  N   UNL     1      -4.291   9.900  14.102  0.00  0.00    +0.000 N 
ATOM     32  H   UNL     1      -6.500   9.715  13.096  0.00  0.00    +0.000 HD
ATOM     33  H   UNL     1      -5.089  10.178  14.653  0.00  0.00    +0.000 HD
ENDBRANCH  26  31
ENDBRANCH  25  26
ENDBRANCH  21  25
ENDBRANCH   1  22
TORSDOF 4
ENDMDL
MODEL 8
REMARK VINA RESULT:      -7.2      3.794      6.961
REMARK  Name = 
REMARK  7 active torsions:
REMARK  status: ('A' for Active; 'I' for Inactive)
REMARK    1  A    between atoms: C_1  and  N_2
REMARK    2  A    between atoms: N_5  and  C_6
REMARK    3  A    between atoms: C_6  and  C_7
REMARK    4  A    between atoms: C_7  and  N_8
REMARK    5  A    between atoms: C_9  and  C_11
REMARK    6  A    between atoms: N_15  and  C_16
REMARK    7  A    between atoms: C_19  and  C_20
REMARK                            x       y       z     vdW  Elec       q    Type
REMARK                         _______ _______ _______ _____ _____    ______ ____
ROOT
ATOM      1  C   UNL     1       3.560   6.534  18.526  0.00  0.00    +0.000 A 
ATOM      2  C   UNL     1       3.111   5.474  19.374  0.00  0.00    +0.000 A 
ATOM      3  C   UNL     1       3.714   4.196  19.391  0.00  0.00    +0.000 A 
ATOM      4  C   UNL     1       3.239   3.173  20.197  0.00  0.00    +0.000 A 
ATOM      5  N   UNL     1       2.193   3.394  21.007  0.00  0.00    +0.000 N 
ATOM      6  C   UNL     1       1.683   2.321  21.877  0.00  0.00    +0.000 C 
ATOM      7  C   UNL     1       1.595   4.603  21.044  0.00  0.00    +0.000 A 
ATOM      8  C   UNL     1       2.013   5.685  20.247  0.00  0.00    +0.000 A 
ATOM      9  C   UNL     1       1.356   6.959  20.298  0.00  0.00    +0.000 A 
ATOM     10  C   UNL     1       0.175   7.229  21.203  0.00  0.00    +0.000 C 
ATOM     11  C   UNL     1       1.821   8.007  19.452  0.00  0.00    +0.000 A 
ATOM     12  C   UNL     1       2.892   7.771  18.593  0.00  0.00    +0.000 A 
ATOM     13  N   UNL     1       3.070   8.925  17.853  0.00  0.00    +0.000 N 
ATOM     14  C   UNL     1       2.216   9.916  18.256  0.00  0.00    +0.000 A 
ATOM     15  C   UNL     1       2.102  11.237  17.807  0.00  0.00    +0.000 A 
ATOM     16  C   UNL     1       1.103  12.031  18.376  0.00  0.00    +0.000 A 
ATOM     17  C   UNL     1       0.254  11.519  19.349  0.00  0.00    +0.000 A 
ATOM     18  C   UNL     1       0.392  10.201  19.790  0.00  0.00    +0.000 A 
ATOM     19  C   UNL     1       1.399   9.372  19.241  0.00  0.00    +0.000 A 
ATOM     20  H   UNL     1       3.746   9.032  17.109  0.00  0.00    +0.000 HD
ENDROOT
BRANCH   1  22
ATOM     21  N   UNL     1       5.941   6.452  17.907  0.00  0.00    +0.000 N 
ATOM     22  C   UNL     1       4.628   6.325  17.498  0.00  0.00    +0.000 C 
ATOM     23  O   UNL     1       4.315   6.072  16.339  0.00  0.00    +0.000 OA
ATOM     24  H   UNL     1       6.162   6.339  18.888  0.00  0.00    +0.000 HD
BRANCH  21  25
ATOM     25  C   UNL     1       7.041   6.242  16.971  0.00  0.00    +0.000 C 
BRANCH  25  26
ATOM     26  C   UNL     1       7.520   4.781  16.877  0.00  0.00    +0.000 C 
BRANCH  26  31
ATOM     27  C   UNL     1       6.158   3.615  12.343  0.00  0.00    +0.000 C 
ATOM     28  N   UNL     1       6.109   3.506  13.778  0.00  0.00    +0.000 N 
ATOM     29  C   UNL     1       6.907   4.290  14.558  0.00  0.00    +0.000 C 
ATOM     30  O   UNL     1       7.679   5.131  14.111  0.00  0.00    +0.000 OA
ATOM     31  N   UNL     1       6.794   4.006  15.888  0.00  0.00    +0.000 N 
ATOM     32  H   UNL     1       5.462   2.861  14.203  0.00  0.00    +0.000 HD
ATOM     33  H   UNL     1       5.999   3.466  16.196  0.00  0.00    +0.000 HD
ENDBRANCH  26  31
ENDBRANCH  25  26
ENDBRANCH  21  25
ENDBRANCH   1  22
TORSDOF 4
ENDMDL
MODEL 9
REMARK VINA RESULT:      -7.2      8.059     10.203
REMARK  Name = 
REMARK  7 active torsions:
REMARK  status: ('A' for Active; 'I' for Inactive)
REMARK    1  A    between atoms: C_1  and  N_2
REMARK    2  A    between atoms: N_5  and  C_6
REMARK    3  A    between atoms: C_6  and  C_7
REMARK    4  A    between atoms: C_7  and  N_8
REMARK    5  A    between atoms: C_9  and  C_11
REMARK    6  A    between atoms: N_15  and  C_16
REMARK    7  A    between atoms: C_19  and  C_20
REMARK                            x       y       z     vdW  Elec       q    Type
REMARK                         _______ _______ _______ _____ _____    ______ ____
ROOT
ATOM      1  C   UNL     1      -0.550  12.434  19.845  0.00  0.00    +0.000 A 
ATOM      2  C   UNL     1      -1.302  12.568  21.054  0.00  0.00    +0.000 A 
ATOM      3  C   UNL     1      -2.068  13.717  21.358  0.00  0.00    +0.000 A 
ATOM      4  C   UNL     1      -2.762  13.838  22.552  0.00  0.00    +0.000 A 
ATOM      5  N   UNL     1      -2.733  12.838  23.444  0.00  0.00    +0.000 N 
ATOM      6  C   UNL     1      -3.473  12.947  24.713  0.00  0.00    +0.000 C 
ATOM      7  C   UNL     1      -2.034  11.712  23.193  0.00  0.00    +0.000 A 
ATOM      8  C   UNL     1      -1.296  11.520  22.010  0.00  0.00    +0.000 A 
ATOM      9  C   UNL     1      -0.554  10.317  21.768  0.00  0.00    +0.000 A 
ATOM     10  C   UNL     1      -0.508   9.177  22.761  0.00  0.00    +0.000 C 
ATOM     11  C   UNL     1       0.184  10.195  20.555  0.00  0.00    +0.000 A 
ATOM     12  C   UNL     1       0.174  11.244  19.639  0.00  0.00    +0.000 A 
ATOM     13  N   UNL     1       1.023  10.882  18.611  0.00  0.00    +0.000 N 
ATOM     14  C   UNL     1       1.511   9.615  18.786  0.00  0.00    +0.000 A 
ATOM     15  C   UNL     1       2.354   8.857  17.963  0.00  0.00    +0.000 A 
ATOM     16  C   UNL     1       2.730   7.589  18.413  0.00  0.00    +0.000 A 
ATOM     17  C   UNL     1       2.283   7.105  19.636  0.00  0.00    +0.000 A 
ATOM     18  C   UNL     1       1.435   7.874  20.436  0.00  0.00    +0.000 A 
ATOM     19  C   UNL     1       1.028   9.159  20.008  0.00  0.00    +0.000 A 
ATOM     20  H   UNL     1       1.257  11.471  17.822  0.00  0.00    +0.000 HD
ENDROOT
BRANCH   1  22
ATOM     21  N   UNL     1      -0.042  14.792  19.358  0.00  0.00    +0.000 N 
ATOM     22  C   UNL     1      -0.419  13.558  18.866  0.00  0.00    +0.000 C 
ATOM     23  O   UNL     1      -0.664  13.363  17.680  0.00  0.00    +0.000 OA
ATOM     24  H   UNL     1       0.449  14.838  20.241  0.00  0.00    +0.000 HD
BRANCH  21  25
ATOM     25  C   UNL     1       0.130  15.934  18.465  0.00  0.00    +0.000 C 
BRANCH  25  26
ATOM     26  C   UNL     1       1.565  16.492  18.424  0.00  0.00    +0.000 C 
BRANCH  26  31
ATOM     27  C   UNL     1       6.115  14.868  17.769  0.00  0.00    +0.000 C 
ATOM     28  N   UNL     1       4.681  14.732  17.787  0.00  0.00    +0.000 N 
ATOM     29  C   UNL     1       3.891  15.795  18.111  0.00  0.00    +0.000 C 
ATOM     30  O   UNL     1       4.325  16.909  18.376  0.00  0.00    +0.000 OA
ATOM     31  N   UNL     1       2.565  15.475  18.158  0.00  0.00    +0.000 N 
ATOM     32  H   UNL     1       4.266  13.848  17.536  0.00  0.00    +0.000 HD
ATOM     33  H   UNL     1       2.264  14.614  17.726  0.00  0.00    +0.000 HD
ENDBRANCH  26  31
ENDBRANCH  25  26
ENDBRANCH  21  25
ENDBRANCH   1  22
TORSDOF 4
ENDMDL
