MODEL 1
REMARK VINA RESULT:      -7.2      0.000      0.000
REMARK  Name = 
REMARK  6 active torsions:
REMARK  status: ('A' for Active; 'I' for Inactive)
REMARK    1  A    between atoms: C_1  and  C_2
REMARK    2  A    between atoms: C_2  and  O_3
REMARK    3  A    between atoms: O_3  and  C_4
REMARK    4  A    between atoms: C_6  and  C_7
REMARK    5  A    between atoms: C_7  and  N_8
REMARK    6  A    between atoms: N_13  and  N_14
REMARK                            x       y       z     vdW  Elec       q    Type
REMARK                         _______ _______ _______ _____ _____    ______ ____
ROOT
ATOM      1  C   UNL     1       4.550   5.992  17.217  0.00  0.00    +0.000 C 
ENDROOT
BRANCH   1   4
ATOM      2  C   UNL     1       1.902   4.195  19.326  0.00  0.00    +0.000 A 
ATOM      3  C   UNL     1       2.847   5.144  18.911  0.00  0.00    +0.000 A 
ATOM      4  C   UNL     1       3.490   5.027  17.671  0.00  0.00    +0.000 A 
ATOM      5  C   UNL     1       3.118   3.957  16.868  0.00  0.00    +0.000 A 
ATOM      6  N   UNL     1       2.185   3.043  17.205  0.00  0.00    +0.000 NA
ATOM      7  C   UNL     1       1.589   3.185  18.414  0.00  0.00    +0.000 A 
ATOM      8 CL   UNL     1       0.358   2.001  18.625  0.00  0.00    +0.000 Cl
BRANCH   2   9
ATOM      9  O   UNL     1       1.395   4.426  20.575  0.00  0.00    +0.000 OA
BRANCH   9  11
ATOM     10  C   UNL     1       1.590   2.460  21.937  0.00  0.00    +0.000 C 
ATOM     11  C   UNL     1       2.101   3.868  21.685  0.00  0.00    +0.000 C 
ENDBRANCH   9  11
ENDBRANCH   2   9
ENDBRANCH   1   4
BRANCH   1  12
ATOM     12  N   UNL     1       5.872   5.409  17.250  0.00  0.00    +0.000 N 
ATOM     13  C   UNL     1       6.505   5.034  18.509  0.00  0.00    +0.000 C 
ATOM     14  C   UNL     1       7.954   4.789  18.070  0.00  0.00    +0.000 C 
ATOM     15  N   UNL     1       7.792   4.533  16.650  0.00  0.00    +0.000 N 
ATOM     16  C   UNL     1       6.640   5.098  16.138  0.00  0.00    +0.000 C 
ATOM     17  N   UNL     1       6.284   5.353  14.927  0.00  0.00    +0.000 NA
ATOM     18  H   UNL     1       8.617   4.557  16.052  0.00  0.00    +0.000 HD
BRANCH  17  19
ATOM     19  N   UNL     1       7.117   5.008  13.929  0.00  0.00    +0.000 N 
ATOM     20  O   UNL     1       8.185   5.622  13.747  0.00  0.00    +0.000 OA
ATOM     21  O   UNL     1       6.751   4.093  13.178  0.00  0.00    +0.000 OA
ENDBRANCH  17  19
ENDBRANCH   1  12
TORSDOF 5
ENDMDL
MODEL 2
REMARK VINA RESULT:      -7.1      1.905      2.227
REMARK  Name = 
REMARK  6 active torsions:
REMARK  status: ('A' for Active; 'I' for Inactive)
REMARK    1  A    between atoms: C_1  and  C_2
REMARK    2  A    between atoms: C_2  and  O_3
REMARK    3  A    between atoms: O_3  and  C_4
REMARK    4  A    between atoms: C_6  and  C_7
REMARK    5  A    between atoms: C_7  and  N_8
REMARK    6  A    between atoms: N_13  and  N_14
REMARK                            x       y       z     vdW  Elec       q    Type
REMARK                         _______ _______ _______ _____ _____    ______ ____
ROOT
ATOM      1  C   UNL     1       4.139   4.384  16.824  0.00  0.00    +0.000 C 
ENDROOT
BRANCH   1   4
ATOM      2  C   UNL     1       1.993   5.490  19.800  0.00  0.00    +0.000 A 
ATOM      3  C   UNL     1       2.680   4.672  18.892  0.00  0.00    +0.000 A 
ATOM      4  C   UNL     1       3.437   5.228  17.851  0.00  0.00    +0.000 A 
ATOM      5  C   UNL     1       3.503   6.613  17.791  0.00  0.00    +0.000 A 
ATOM      6  N   UNL     1       2.895   7.441  18.666  0.00  0.00    +0.000 NA
ATOM      7  C   UNL     1       2.167   6.867  19.656  0.00  0.00    +0.000 A 
ATOM      8 CL   UNL     1       1.559   8.066  20.732  0.00  0.00    +0.000 Cl
BRANCH   2   9
ATOM      9  O   UNL     1       1.268   4.798  20.731  0.00  0.00    +0.000 OA
BRANCH   9  11
ATOM     10  C   UNL     1       1.705   2.663  21.736  0.00  0.00    +0.000 C 
ATOM     11  C   UNL     1       1.122   3.390  20.536  0.00  0.00    +0.000 C 
ENDBRANCH   9  11
ENDBRANCH   2   9
ENDBRANCH   1   4
BRANCH   1  12
ATOM     12  N   UNL     1       5.577   4.460  16.943  0.00  0.00    +0.000 N 
ATOM     13  C   UNL     1       6.238   4.356  18.240  0.00  0.00    +0.000 C 
ATOM     14  C   UNL     1       7.663   4.812  17.903  0.00  0.00    +0.000 C 
ATOM     15  N   UNL     1       7.717   4.575  16.472  0.00  0.00    +0.000 N 
ATOM     16  C   UNL     1       6.466   4.580  15.886  0.00  0.00    +0.000 C 
ATOM     17  N   UNL     1       6.104   4.701  14.656  0.00  0.00    +0.000 NA
ATOM     18  H   UNL     1       8.475   4.996  15.935  0.00  0.00    +0.000 HD
BRANCH  17  19
ATOM     19  N   UNL     1       7.059   4.815  13.716  0.00  0.00    +0.000 N 
ATOM     20  O   UNL     1       8.021   5.591  13.873  0.00  0.00    +0.000 OA
ATOM     21  O   UNL     1       6.912   4.157  12.677  0.00  0.00    +0.000 OA
ENDBRANCH  17  19
ENDBRANCH   1  12
TORSDOF 5
ENDMDL
MODEL 3
REMARK VINA RESULT:      -6.9      1.597      2.052
REMARK  Name = 
REMARK  6 active torsions:
REMARK  status: ('A' for Active; 'I' for Inactive)
REMARK    1  A    between atoms: C_1  and  C_2
REMARK    2  A    between atoms: C_2  and  O_3
REMARK    3  A    between atoms: O_3  and  C_4
REMARK    4  A    between atoms: C_6  and  C_7
REMARK    5  A    between atoms: C_7  and  N_8
REMARK    6  A    between atoms: N_13  and  N_14
REMARK                            x       y       z     vdW  Elec       q    Type
REMARK                         _______ _______ _______ _____ _____    ______ ____
ROOT
ATOM      1  C   UNL     1       4.614   6.290  17.154  0.00  0.00    +0.000 C 
ENDROOT
BRANCH   1   4
ATOM      2  C   UNL     1       1.999   5.642  19.880  0.00  0.00    +0.000 A 
ATOM      3  C   UNL     1       2.920   6.305  19.056  0.00  0.00    +0.000 A 
ATOM      4  C   UNL     1       3.578   5.628  18.020  0.00  0.00    +0.000 A 
ATOM      5  C   UNL     1       3.244   4.295  17.828  0.00  0.00    +0.000 A 
ATOM      6  N   UNL     1       2.335   3.626  18.566  0.00  0.00    +0.000 NA
ATOM      7  C   UNL     1       1.723   4.311  19.563  0.00  0.00    +0.000 A 
ATOM      8 CL   UNL     1       0.524   3.335  20.321  0.00  0.00    +0.000 Cl
BRANCH   2   9
ATOM      9  O   UNL     1       1.474   6.428  20.869  0.00  0.00    +0.000 OA
BRANCH   9  11
ATOM     10  C   UNL     1       0.431   8.541  21.322  0.00  0.00    +0.000 C 
ATOM     11  C   UNL     1       1.652   7.840  20.751  0.00  0.00    +0.000 C 
ENDBRANCH   9  11
ENDBRANCH   2   9
ENDBRANCH   1   4
BRANCH   1  12
ATOM     12  N   UNL     1       5.879   5.592  17.184  0.00  0.00    +0.000 N 
ATOM     13  C   UNL     1       6.499   5.199  18.445  0.00  0.00    +0.000 C 
ATOM     14  C   UNL     1       7.912   4.813  17.992  0.00  0.00    +0.000 C 
ATOM     15  N   UNL     1       7.704   4.532  16.583  0.00  0.00    +0.000 N 
ATOM     16  C   UNL     1       6.597   5.182  16.072  0.00  0.00    +0.000 C 
ATOM     17  N   UNL     1       6.244   5.433  14.859  0.00  0.00    +0.000 NA
ATOM     18  H   UNL     1       8.517   4.464  15.972  0.00  0.00    +0.000 HD
BRANCH  17  19
ATOM     19  N   UNL     1       7.025   4.986  13.859  0.00  0.00    +0.000 N 
ATOM     20  O   UNL     1       6.668   4.026  13.150  0.00  0.00    +0.000 OA
ATOM     21  O   UNL     1       8.126   5.535  13.713  0.00  0.00    +0.000 OA
ENDBRANCH  17  19
ENDBRANCH   1  12
TORSDOF 5
ENDMDL
MODEL 4
REMARK VINA RESULT:      -6.8      1.703      2.071
REMARK  Name = 
REMARK  6 active torsions:
REMARK  status: ('A' for Active; 'I' for Inactive)
REMARK    1  A    between atoms: C_1  and  C_2
REMARK    2  A    between atoms: C_2  and  O_3
REMARK    3  A    between atoms: O_3  and  C_4
REMARK    4  A    between atoms: C_6  and  C_7
REMARK    5  A    between atoms: C_7  and  N_8
REMARK    6  A    between atoms: N_13  and  N_14
REMARK                            x       y       z     vdW  Elec       q    Type
REMARK                         _______ _______ _______ _____ _____    ______ ____
ROOT
ATOM      1  C   UNL     1       4.910   6.502  17.180  0.00  0.00    +0.000 C 
ENDROOT
BRANCH   1   4
ATOM      2  C   UNL     1       2.119   4.118  18.283  0.00  0.00    +0.000 A 
ATOM      3  C   UNL     1       3.201   4.654  17.570  0.00  0.00    +0.000 A 
ATOM      4  C   UNL     1       3.787   5.867  17.954  0.00  0.00    +0.000 A 
ATOM      5  C   UNL     1       3.275   6.483  19.088  0.00  0.00    +0.000 A 
ATOM      6  N   UNL     1       2.266   5.986  19.831  0.00  0.00    +0.000 NA
ATOM      7  C   UNL     1       1.718   4.813  19.425  0.00  0.00    +0.000 A 
ATOM      8 CL   UNL     1       0.527   4.281  20.548  0.00  0.00    +0.000 Cl
BRANCH   2   9
ATOM      9  O   UNL     1       1.633   2.951  17.760  0.00  0.00    +0.000 OA
BRANCH   9  11
ATOM     10  C   UNL     1       3.394   1.484  18.471  0.00  0.00    +0.000 C 
ATOM     11  C   UNL     1       1.898   1.747  18.482  0.00  0.00    +0.000 C 
ENDBRANCH   9  11
ENDBRANCH   2   9
ENDBRANCH   1   4
BRANCH   1  12
ATOM     12  N   UNL     1       6.102   5.684  17.176  0.00  0.00    +0.000 N 
ATOM     13  C   UNL     1       6.690   5.194  18.418  0.00  0.00    +0.000 C 
ATOM     14  C   UNL     1       8.056   4.687  17.938  0.00  0.00    +0.000 C 
ATOM     15  N   UNL     1       7.811   4.472  16.524  0.00  0.00    +0.000 N 
ATOM     16  C   UNL     1       6.768   5.241  16.044  0.00  0.00    +0.000 C 
ATOM     17  N   UNL     1       6.432   5.563  14.843  0.00  0.00    +0.000 NA
ATOM     18  H   UNL     1       8.609   4.345  15.903  0.00  0.00    +0.000 HD
BRANCH  17  19
ATOM     19  N   UNL     1       7.159   5.074  13.822  0.00  0.00    +0.000 N 
ATOM     20  O   UNL     1       8.199   5.646  13.447  0.00  0.00    +0.000 OA
ATOM     21  O   UNL     1       6.722   4.067  13.248  0.00  0.00    +0.000 OA
ENDBRANCH  17  19
ENDBRANCH   1  12
TORSDOF 5
ENDMDL
MODEL 5
REMARK VINA RESULT:      -6.7      3.282      6.874
REMARK  Name = 
REMARK  6 active torsions:
REMARK  status: ('A' for Active; 'I' for Inactive)
REMARK    1  A    between atoms: C_1  and  C_2
REMARK    2  A    between atoms: C_2  and  O_3
REMARK    3  A    between atoms: O_3  and  C_4
REMARK    4  A    between atoms: C_6  and  C_7
REMARK    5  A    between atoms: C_7  and  N_8
REMARK    6  A    between atoms: N_13  and  N_14
REMARK                            x       y       z     vdW  Elec       q    Type
REMARK                         _______ _______ _______ _____ _____    ______ ____
ROOT
ATOM      1  C   UNL     1       5.427   4.222  18.149  0.00  0.00    +0.000 C 
ENDROOT
BRANCH   1   4
ATOM      2  C   UNL     1       5.700   4.311  14.327  0.00  0.00    +0.000 A 
ATOM      3  C   UNL     1       5.177   4.133  15.616  0.00  0.00    +0.000 A 
ATOM      4  C   UNL     1       5.933   4.454  16.752  0.00  0.00    +0.000 A 
ATOM      5  C   UNL     1       7.195   4.988  16.537  0.00  0.00    +0.000 A 
ATOM      6  N   UNL     1       7.726   5.218  15.319  0.00  0.00    +0.000 NA
ATOM      7  C   UNL     1       6.968   4.890  14.243  0.00  0.00    +0.000 A 
ATOM      8 CL   UNL     1       7.757   5.351  12.784  0.00  0.00    +0.000 Cl
BRANCH   2   9
ATOM      9  O   UNL     1       4.857   3.915  13.326  0.00  0.00    +0.000 OA
BRANCH   9  11
ATOM     10  C   UNL     1       4.378   3.011  11.155  0.00  0.00    +0.000 C 
ATOM     11  C   UNL     1       5.424   3.173  12.245  0.00  0.00    +0.000 C 
ENDBRANCH   9  11
ENDBRANCH   2   9
ENDBRANCH   1   4
BRANCH   1  12
ATOM     12  N   UNL     1       4.160   4.874  18.388  0.00  0.00    +0.000 N 
ATOM     13  C   UNL     1       3.984   6.302  18.145  0.00  0.00    +0.000 C 
ATOM     14  C   UNL     1       2.640   6.573  18.832  0.00  0.00    +0.000 C 
ATOM     15  N   UNL     1       2.049   5.247  18.857  0.00  0.00    +0.000 N 
ATOM     16  C   UNL     1       2.997   4.244  18.803  0.00  0.00    +0.000 C 
ATOM     17  N   UNL     1       2.925   2.990  19.089  0.00  0.00    +0.000 NA
ATOM     18  H   UNL     1       1.243   5.082  19.459  0.00  0.00    +0.000 HD
BRANCH  17  19
ATOM     19  N   UNL     1       1.741   2.491  19.486  0.00  0.00    +0.000 N 
ATOM     20  O   UNL     1       0.893   2.117  18.653  0.00  0.00    +0.000 OA
ATOM     21  O   UNL     1       1.516   2.470  20.704  0.00  0.00    +0.000 OA
ENDBRANCH  17  19
ENDBRANCH   1  12
TORSDOF 5
ENDMDL
MODEL 6
REMARK VINA RESULT:      -6.6      3.352      6.991
REMARK  Name = 
REMARK  6 active torsions:
REMARK  status: ('A' for Active; 'I' for Inactive)
REMARK    1  A    between atoms: C_1  and  C_2
REMARK    2  A    between atoms: C_2  and  O_3
REMARK    3  A    between atoms: O_3  and  C_4
REMARK    4  A    between atoms: C_6  and  C_7
REMARK    5  A    between atoms: C_7  and  N_8
REMARK    6  A    between atoms: N_13  and  N_14
REMARK                            x       y       z     vdW  Elec       q    Type
REMARK                         _______ _______ _______ _____ _____    ______ ____
ROOT
ATOM      1  C   UNL     1       5.328   4.053  18.177  0.00  0.00    +0.000 C 
ENDROOT
BRANCH   1   4
ATOM      2  C   UNL     1       5.709   4.341  14.374  0.00  0.00    +0.000 A 
ATOM      3  C   UNL     1       5.150   4.095  15.636  0.00  0.00    +0.000 A 
ATOM      4  C   UNL     1       5.872   4.358  16.808  0.00  0.00    +0.000 A 
ATOM      5  C   UNL     1       7.138   4.906  16.658  0.00  0.00    +0.000 A 
ATOM      6  N   UNL     1       7.702   5.200  15.468  0.00  0.00    +0.000 NA
ATOM      7  C   UNL     1       6.976   4.926  14.355  0.00  0.00    +0.000 A 
ATOM      8 CL   UNL     1       7.804   5.465  12.945  0.00  0.00    +0.000 Cl
BRANCH   2   9
ATOM      9  O   UNL     1       4.896   3.994  13.330  0.00  0.00    +0.000 OA
BRANCH   9  11
ATOM     10  C   UNL     1       4.414   2.948  11.225  0.00  0.00    +0.000 C 
ATOM     11  C   UNL     1       5.450   3.154  12.317  0.00  0.00    +0.000 C 
ENDBRANCH   9  11
ENDBRANCH   2   9
ENDBRANCH   1   4
BRANCH   1  12
ATOM     12  N   UNL     1       4.178   4.866  18.502  0.00  0.00    +0.000 N 
ATOM     13  C   UNL     1       3.948   6.151  17.851  0.00  0.00    +0.000 C 
ATOM     14  C   UNL     1       2.846   6.754  18.730  0.00  0.00    +0.000 C 
ATOM     15  N   UNL     1       2.279   5.569  19.347  0.00  0.00    +0.000 N 
ATOM     16  C   UNL     1       3.172   4.515  19.388  0.00  0.00    +0.000 C 
ATOM     17  N   UNL     1       3.175   3.430  20.084  0.00  0.00    +0.000 NA
ATOM     18  H   UNL     1       1.668   5.682  20.155  0.00  0.00    +0.000 HD
BRANCH  17  19
ATOM     19  N   UNL     1       2.143   3.201  20.915  0.00  0.00    +0.000 N 
ATOM     20  O   UNL     1       2.229   3.466  22.129  0.00  0.00    +0.000 OA
ATOM     21  O   UNL     1       1.133   2.672  20.431  0.00  0.00    +0.000 OA
ENDBRANCH  17  19
ENDBRANCH   1  12
TORSDOF 5
ENDMDL
MODEL 7
REMARK VINA RESULT:      -6.6      2.695      3.368
REMARK  Name = 
REMARK  6 active torsions:
REMARK  status: ('A' for Active; 'I' for Inactive)
REMARK    1  A    between atoms: C_1  and  C_2
REMARK    2  A    between atoms: C_2  and  O_3
REMARK    3  A    between atoms: O_3  and  C_4
REMARK    4  A    between atoms: C_6  and  C_7
REMARK    5  A    between atoms: C_7  and  N_8
REMARK    6  A    between atoms: N_13  and  N_14
REMARK                            x       y       z     vdW  Elec       q    Type
REMARK                         _______ _______ _______ _____ _____    ______ ____
ROOT
ATOM      1  C   UNL     1       4.330   3.968  16.953  0.00  0.00    +0.000 C 
ENDROOT
BRANCH   1   4
ATOM      2  C   UNL     1       2.193   5.422  19.784  0.00  0.00    +0.000 A 
ATOM      3  C   UNL     1       2.901   4.506  18.993  0.00  0.00    +0.000 A 
ATOM      4  C   UNL     1       3.607   4.928  17.858  0.00  0.00    +0.000 A 
ATOM      5  C   UNL     1       3.602   6.289  17.584  0.00  0.00    +0.000 A 
ATOM      6  N   UNL     1       2.972   7.213  18.337  0.00  0.00    +0.000 NA
ATOM      7  C   UNL     1       2.294   6.767  19.424  0.00  0.00    +0.000 A 
ATOM      8 CL   UNL     1       1.650   8.088  20.319  0.00  0.00    +0.000 Cl
BRANCH   2   9
ATOM      9  O   UNL     1       1.524   4.850  20.830  0.00  0.00    +0.000 OA
BRANCH   9  11
ATOM     10  C   UNL     1       1.646   2.640  21.758  0.00  0.00    +0.000 C 
ATOM     11  C   UNL     1       1.059   3.510  20.659  0.00  0.00    +0.000 C 
ENDBRANCH   9  11
ENDBRANCH   2   9
ENDBRANCH   1   4
BRANCH   1  12
ATOM     12  N   UNL     1       5.489   4.567  16.333  0.00  0.00    +0.000 N 
ATOM     13  C   UNL     1       5.605   4.673  14.882  0.00  0.00    +0.000 C 
ATOM     14  C   UNL     1       7.082   5.051  14.713  0.00  0.00    +0.000 C 
ATOM     15  N   UNL     1       7.394   5.609  16.016  0.00  0.00    +0.000 N 
ATOM     16  C   UNL     1       6.557   5.138  17.009  0.00  0.00    +0.000 C 
ATOM     17  N   UNL     1       6.670   5.147  18.292  0.00  0.00    +0.000 NA
ATOM     18  H   UNL     1       8.373   5.742  16.269  0.00  0.00    +0.000 HD
BRANCH  17  19
ATOM     19  N   UNL     1       7.755   5.728  18.834  0.00  0.00    +0.000 N 
ATOM     20  O   UNL     1       8.080   6.890  18.524  0.00  0.00    +0.000 OA
ATOM     21  O   UNL     1       8.436   5.043  19.609  0.00  0.00    +0.000 OA
ENDBRANCH  17  19
ENDBRANCH   1  12
TORSDOF 5
ENDMDL
MODEL 8
REMARK VINA RESULT:      -6.5      2.042      2.858
REMARK  Name = 
REMARK  6 active torsions:
REMARK  status: ('A' for Active; 'I' for Inactive)
REMARK    1  A    between atoms: C_1  and  C_2
REMARK    2  A    between atoms: C_2  and  O_3
REMARK    3  A    between atoms: O_3  and  C_4
REMARK    4  A    between atoms: C_6  and  C_7
REMARK    5  A    between atoms: C_7  and  N_8
REMARK    6  A    between atoms: N_13  and  N_14
REMARK                            x       y       z     vdW  Elec       q    Type
REMARK                         _______ _______ _______ _____ _____    ______ ____
ROOT
ATOM      1  C   UNL     1       6.606   4.203  18.820  0.00  0.00    +0.000 C 
ENDROOT
BRANCH   1   4
ATOM      2  C   UNL     1       3.098   5.578  19.521  0.00  0.00    +0.000 A 
ATOM      3  C   UNL     1       4.441   5.509  19.123  0.00  0.00    +0.000 A 
ATOM      4  C   UNL     1       5.150   4.302  19.184  0.00  0.00    +0.000 A 
ATOM      5  C   UNL     1       4.452   3.183  19.616  0.00  0.00    +0.000 A 
ATOM      6  N   UNL     1       3.151   3.189  19.969  0.00  0.00    +0.000 NA
ATOM      7  C   UNL     1       2.498   4.376  19.903  0.00  0.00    +0.000 A 
ATOM      8 CL   UNL     1       0.832   4.172  20.283  0.00  0.00    +0.000 Cl
BRANCH   2   9
ATOM      9  O   UNL     1       2.559   6.832  19.441  0.00  0.00    +0.000 OA
BRANCH   9  11
ATOM     10  C   UNL     1       1.880   8.821  18.282  0.00  0.00    +0.000 C 
ATOM     11  C   UNL     1       2.528   7.453  18.155  0.00  0.00    +0.000 C 
ENDBRANCH   9  11
ENDBRANCH   2   9
ENDBRANCH   1   4
BRANCH   1  12
ATOM     12  N   UNL     1       7.062   5.350  18.068  0.00  0.00    +0.000 N 
ATOM     13  C   UNL     1       7.602   6.529  18.735  0.00  0.00    +0.000 C 
ATOM     14  C   UNL     1       7.628   7.551  17.592  0.00  0.00    +0.000 C 
ATOM     15  N   UNL     1       7.632   6.687  16.425  0.00  0.00    +0.000 N 
ATOM     16  C   UNL     1       7.092   5.443  16.685  0.00  0.00    +0.000 C 
ATOM     17  N   UNL     1       6.652   4.525  15.896  0.00  0.00    +0.000 NA
ATOM     18  H   UNL     1       7.424   7.095  15.514  0.00  0.00    +0.000 HD
BRANCH  17  19
ATOM     19  N   UNL     1       6.730   4.731  14.569  0.00  0.00    +0.000 N 
ATOM     20  O   UNL     1       7.702   5.331  14.072  0.00  0.00    +0.000 OA
ATOM     21  O   UNL     1       5.777   4.344  13.879  0.00  0.00    +0.000 OA
ENDBRANCH  17  19
ENDBRANCH   1  12
TORSDOF 5
ENDMDL
MODEL 9
REMARK VINA RESULT:      -6.5      3.540      6.636
REMARK  Name = 
REMARK  6 active torsions:
REMARK  status: ('A' for Active; 'I' for Inactive)
REMARK    1  A    between atoms: C_1  and  C_2
REMARK    2  A    between atoms: C_2  and  O_3
REMARK    3  A    between atoms: O_3  and  C_4
REMARK    4  A    between atoms: C_6  and  C_7
REMARK    5  A    between atoms: C_7  and  N_8
REMARK    6  A    between atoms: N_13  and  N_14
REMARK                            x       y       z     vdW  Elec       q    Type
REMARK                         _______ _______ _______ _____ _____    ______ ____
ROOT
ATOM      1  C   UNL     1       5.480   4.430  18.158  0.00  0.00    +0.000 C 
ENDROOT
BRANCH   1   4
ATOM      2  C   UNL     1       6.256   3.952  14.435  0.00  0.00    +0.000 A 
ATOM      3  C   UNL     1       5.658   3.805  15.695  0.00  0.00    +0.000 A 
ATOM      4  C   UNL     1       6.057   4.599  16.779  0.00  0.00    +0.000 A 
ATOM      5  C   UNL     1       7.033   5.554  16.534  0.00  0.00    +0.000 A 
ATOM      6  N   UNL     1       7.607   5.762  15.332  0.00  0.00    +0.000 NA
ATOM      7  C   UNL     1       7.201   4.971  14.307  0.00  0.00    +0.000 A 
ATOM      8 CL   UNL     1       7.957   5.450  12.837  0.00  0.00    +0.000 Cl
BRANCH   2   9
ATOM      9  O   UNL     1       5.787   3.078  13.493  0.00  0.00    +0.000 OA
BRANCH   9  11
ATOM     10  C   UNL     1       4.407   3.184  11.532  0.00  0.00    +0.000 C 
ATOM     11  C   UNL     1       5.758   3.527  12.137  0.00  0.00    +0.000 C 
ENDBRANCH   9  11
ENDBRANCH   2   9
ENDBRANCH   1   4
BRANCH   1  12
ATOM     12  N   UNL     1       4.035   4.397  18.146  0.00  0.00    +0.000 N 
ATOM     13  C   UNL     1       3.305   3.133  18.143  0.00  0.00    +0.000 C 
ATOM     14  C   UNL     1       1.882   3.594  17.804  0.00  0.00    +0.000 C 
ATOM     15  N   UNL     1       1.924   4.991  18.198  0.00  0.00    +0.000 N 
ATOM     16  C   UNL     1       3.206   5.506  18.190  0.00  0.00    +0.000 C 
ATOM     17  N   UNL     1       3.634   6.721  18.184  0.00  0.00    +0.000 NA
ATOM     18  H   UNL     1       1.180   5.611  17.879  0.00  0.00    +0.000 HD
BRANCH  17  19
ATOM     19  N   UNL     1       2.731   7.718  18.225  0.00  0.00    +0.000 N 
ATOM     20  O   UNL     1       2.574   8.478  17.251  0.00  0.00    +0.000 OA
ATOM     21  O   UNL     1       2.106   7.872  19.284  0.00  0.00    +0.000 OA
ENDBRANCH  17  19
ENDBRANCH   1  12
TORSDOF 5
ENDMDL
