MODEL 1
REMARK VINA RESULT:      -8.2      0.000      0.000
REMARK  Name = 
REMARK  2 active torsions:
REMARK  status: ('A' for Active; 'I' for Inactive)
REMARK    1  A    between atoms: N_10  and  C_11
REMARK    2  A    between atoms: C_11  and  C_12
REMARK                            x       y       z     vdW  Elec       q    Type
REMARK                         _______ _______ _______ _____ _____    ______ ____
ROOT
ATOM      1  O   UNL     1       5.198   1.565  20.591  0.00  0.00    +0.000 OA
ATOM      2  C   UNL     1       4.339   2.241  20.055  0.00  0.00    +0.000 C 
ATOM      3  C   UNL     1       4.496   3.676  19.667  0.00  0.00    +0.000 C 
ATOM      4  C   UNL     1       3.176   4.022  18.960  0.00  0.00    +0.000 C 
ATOM      5  C   UNL     1       2.349   2.770  19.109  0.00  0.00    +0.000 C 
ATOM      6  O   UNL     1       1.182   2.617  18.779  0.00  0.00    +0.000 OA
ATOM      7  N   UNL     1       3.102   1.805  19.705  0.00  0.00    +0.000 N 
ATOM      8  C   UNL     1       3.546   4.325  17.511  0.00  0.00    +0.000 C 
ATOM      9  O   UNL     1       3.523   3.465  16.632  0.00  0.00    +0.000 OA
ATOM     10  N   UNL     1       4.075   5.593  17.318  0.00  0.00    +0.000 N 
ATOM     11  C   UNL     1       3.424   6.714  17.818  0.00  0.00    +0.000 C 
ATOM     12  O   UNL     1       3.503   7.828  17.309  0.00  0.00    +0.000 OA
ATOM     13  C   UNL     1       2.652   6.445  19.011  0.00  0.00    +0.000 A 
ATOM     14  C   UNL     1       1.971   7.319  19.835  0.00  0.00    +0.000 A 
ATOM     15  C   UNL     1       1.506   6.582  20.950  0.00  0.00    +0.000 A 
ATOM     16  C   UNL     1       1.885   5.270  20.766  0.00  0.00    +0.000 A 
ATOM     17  N   UNL     1       2.537   5.188  19.563  0.00  0.00    +0.000 N 
ATOM     18  H   UNL     1       2.773   0.877  19.890  0.00  0.00    +0.000 HD
ENDROOT
BRANCH  10  19
ATOM     19  C   UNL     1       5.155   5.780  16.359  0.00  0.00    +0.000 C 
BRANCH  19  20
ATOM     20  C   UNL     1       6.343   6.413  17.081  0.00  0.00    +0.000 A 
ATOM     21  C   UNL     1       6.991   5.750  18.136  0.00  0.00    +0.000 A 
ATOM     22  C   UNL     1       7.972   6.403  18.892  0.00  0.00    +0.000 A 
ATOM     23  C   UNL     1       8.320   7.711  18.581  0.00  0.00    +0.000 A 
ATOM     24  F   UNL     1       9.247   8.343  19.317  0.00  0.00    +0.000 F 
ATOM     25  C   UNL     1       7.712   8.379  17.527  0.00  0.00    +0.000 A 
ATOM     26  C   UNL     1       6.725   7.731  16.778  0.00  0.00    +0.000 A 
ENDBRANCH  19  20
ENDBRANCH  10  19
TORSDOF 2
ENDMDL
MODEL 2
REMARK VINA RESULT:      -7.8      2.827      3.507
REMARK  Name = 
REMARK  2 active torsions:
REMARK  status: ('A' for Active; 'I' for Inactive)
REMARK    1  A    between atoms: N_10  and  C_11
REMARK    2  A    between atoms: C_11  and  C_12
REMARK                            x       y       z     vdW  Elec       q    Type
REMARK                         _______ _______ _______ _____ _____    ______ ____
ROOT
ATOM      1  O   UNL     1       3.348   2.496  21.454  0.00  0.00    +0.000 OA
ATOM      2  C   UNL     1       3.072   3.079  20.421  0.00  0.00    +0.000 C 
ATOM      3  C   UNL     1       3.929   4.112  19.764  0.00  0.00    +0.000 C 
ATOM      4  C   UNL     1       3.176   4.459  18.470  0.00  0.00    +0.000 C 
ATOM      5  C   UNL     1       1.903   3.658  18.568  0.00  0.00    +0.000 C 
ATOM      6  O   UNL     1       0.952   3.693  17.802  0.00  0.00    +0.000 OA
ATOM      7  N   UNL     1       1.949   2.879  19.685  0.00  0.00    +0.000 N 
ATOM      8  C   UNL     1       4.081   4.003  17.327  0.00  0.00    +0.000 C 
ATOM      9  O   UNL     1       3.983   2.891  16.813  0.00  0.00    +0.000 OA
ATOM     10  N   UNL     1       5.123   4.878  17.051  0.00  0.00    +0.000 N 
ATOM     11  C   UNL     1       4.877   6.233  16.865  0.00  0.00    +0.000 C 
ATOM     12  O   UNL     1       5.572   6.957  16.161  0.00  0.00    +0.000 OA
ATOM     13  C   UNL     1       3.727   6.713  17.598  0.00  0.00    +0.000 A 
ATOM     14  C   UNL     1       3.249   8.001  17.742  0.00  0.00    +0.000 A 
ATOM     15  C   UNL     1       2.190   7.963  18.679  0.00  0.00    +0.000 A 
ATOM     16  C   UNL     1       2.024   6.650  19.062  0.00  0.00    +0.000 A 
ATOM     17  N   UNL     1       2.928   5.893  18.364  0.00  0.00    +0.000 N 
ATOM     18  H   UNL     1       1.223   2.242  19.950  0.00  0.00    +0.000 HD
ENDROOT
BRANCH  10  19
ATOM     19  C   UNL     1       6.425   4.344  16.679  0.00  0.00    +0.000 C 
BRANCH  19  20
ATOM     20  C   UNL     1       6.577   4.445  15.162  0.00  0.00    +0.000 A 
ATOM     21  C   UNL     1       5.772   3.685  14.297  0.00  0.00    +0.000 A 
ATOM     22  C   UNL     1       6.026   3.666  12.921  0.00  0.00    +0.000 A 
ATOM     23  C   UNL     1       7.071   4.422  12.406  0.00  0.00    +0.000 A 
ATOM     24  F   UNL     1       7.325   4.390  11.089  0.00  0.00    +0.000 F 
ATOM     25  C   UNL     1       7.864   5.201  13.236  0.00  0.00    +0.000 A 
ATOM     26  C   UNL     1       7.618   5.212  14.612  0.00  0.00    +0.000 A 
ENDBRANCH  19  20
ENDBRANCH  10  19
TORSDOF 2
ENDMDL
MODEL 3
REMARK VINA RESULT:      -7.3      2.821      3.557
REMARK  Name = 
REMARK  2 active torsions:
REMARK  status: ('A' for Active; 'I' for Inactive)
REMARK    1  A    between atoms: N_10  and  C_11
REMARK    2  A    between atoms: C_11  and  C_12
REMARK                            x       y       z     vdW  Elec       q    Type
REMARK                         _______ _______ _______ _____ _____    ______ ____
ROOT
ATOM      1  O   UNL     1       2.873   2.820  21.368  0.00  0.00    +0.000 OA
ATOM      2  C   UNL     1       2.728   3.384  20.298  0.00  0.00    +0.000 C 
ATOM      3  C   UNL     1       3.679   4.382  19.720  0.00  0.00    +0.000 C 
ATOM      4  C   UNL     1       3.085   4.714  18.342  0.00  0.00    +0.000 C 
ATOM      5  C   UNL     1       1.789   3.944  18.315  0.00  0.00    +0.000 C 
ATOM      6  O   UNL     1       0.930   3.982  17.446  0.00  0.00    +0.000 OA
ATOM      7  N   UNL     1       1.690   3.192  19.446  0.00  0.00    +0.000 N 
ATOM      8  C   UNL     1       4.099   4.210  17.318  0.00  0.00    +0.000 C 
ATOM      9  O   UNL     1       4.031   3.088  16.821  0.00  0.00    +0.000 OA
ATOM     10  N   UNL     1       5.187   5.054  17.142  0.00  0.00    +0.000 N 
ATOM     11  C   UNL     1       4.997   6.409  16.901  0.00  0.00    +0.000 C 
ATOM     12  O   UNL     1       5.785   7.100  16.263  0.00  0.00    +0.000 OA
ATOM     13  C   UNL     1       3.786   6.933  17.490  0.00  0.00    +0.000 A 
ATOM     14  C   UNL     1       3.328   8.235  17.551  0.00  0.00    +0.000 A 
ATOM     15  C   UNL     1       2.170   8.243  18.364  0.00  0.00    +0.000 A 
ATOM     16  C   UNL     1       1.929   6.944  18.754  0.00  0.00    +0.000 A 
ATOM     17  N   UNL     1       2.886   6.150  18.179  0.00  0.00    +0.000 N 
ATOM     18  H   UNL     1       0.923   2.578  19.642  0.00  0.00    +0.000 HD
ENDROOT
BRANCH  10  19
ATOM     19  C   UNL     1       6.509   4.482  16.930  0.00  0.00    +0.000 C 
BRANCH  19  20
ATOM     20  C   UNL     1       6.775   4.416  15.427  0.00  0.00    +0.000 A 
ATOM     21  C   UNL     1       7.786   5.188  14.831  0.00  0.00    +0.000 A 
ATOM     22  C   UNL     1       7.915   5.240  13.439  0.00  0.00    +0.000 A 
ATOM     23  C   UNL     1       7.048   4.503  12.641  0.00  0.00    +0.000 A 
ATOM     24  F   UNL     1       7.162   4.567  11.306  0.00  0.00    +0.000 F 
ATOM     25  C   UNL     1       6.058   3.713  13.207  0.00  0.00    +0.000 A 
ATOM     26  C   UNL     1       5.921   3.669  14.597  0.00  0.00    +0.000 A 
ENDBRANCH  19  20
ENDBRANCH  10  19
TORSDOF 2
ENDMDL
MODEL 4
REMARK VINA RESULT:      -7.1      2.944      4.960
REMARK  Name = 
REMARK  2 active torsions:
REMARK  status: ('A' for Active; 'I' for Inactive)
REMARK    1  A    between atoms: N_10  and  C_11
REMARK    2  A    between atoms: C_11  and  C_12
REMARK                            x       y       z     vdW  Elec       q    Type
REMARK                         _______ _______ _______ _____ _____    ______ ____
ROOT
ATOM      1  O   UNL     1       7.721   5.519  20.202  0.00  0.00    +0.000 OA
ATOM      2  C   UNL     1       6.966   5.174  19.311  0.00  0.00    +0.000 C 
ATOM      3  C   UNL     1       5.486   5.387  19.311  0.00  0.00    +0.000 C 
ATOM      4  C   UNL     1       5.030   4.856  17.943  0.00  0.00    +0.000 C 
ATOM      5  C   UNL     1       6.290   4.294  17.336  0.00  0.00    +0.000 C 
ATOM      6  O   UNL     1       6.388   3.679  16.284  0.00  0.00    +0.000 OA
ATOM      7  N   UNL     1       7.340   4.554  18.163  0.00  0.00    +0.000 N 
ATOM      8  C   UNL     1       4.490   6.067  17.185  0.00  0.00    +0.000 C 
ATOM      9  O   UNL     1       5.192   6.739  16.432  0.00  0.00    +0.000 OA
ATOM     10  N   UNL     1       3.207   6.439  17.560  0.00  0.00    +0.000 N 
ATOM     11  C   UNL     1       2.185   5.499  17.612  0.00  0.00    +0.000 C 
ATOM     12  O   UNL     1       1.003   5.772  17.433  0.00  0.00    +0.000 OA
ATOM     13  C   UNL     1       2.649   4.164  17.914  0.00  0.00    +0.000 A 
ATOM     14  C   UNL     1       1.925   3.011  18.150  0.00  0.00    +0.000 A 
ATOM     15  C   UNL     1       2.837   2.006  18.549  0.00  0.00    +0.000 A 
ATOM     16  C   UNL     1       4.099   2.556  18.516  0.00  0.00    +0.000 A 
ATOM     17  N   UNL     1       3.981   3.851  18.084  0.00  0.00    +0.000 N 
ATOM     18  H   UNL     1       8.286   4.295  17.961  0.00  0.00    +0.000 HD
ENDROOT
BRANCH  10  19
ATOM     19  C   UNL     1       2.862   7.853  17.626  0.00  0.00    +0.000 C 
BRANCH  19  20
ATOM     20  C   UNL     1       2.165   8.121  18.958  0.00  0.00    +0.000 A 
ATOM     21  C   UNL     1       2.236   7.200  20.017  0.00  0.00    +0.000 A 
ATOM     22  C   UNL     1       1.466   7.381  21.171  0.00  0.00    +0.000 A 
ATOM     23  C   UNL     1       0.641   8.494  21.278  0.00  0.00    +0.000 A 
ATOM     24  F   UNL     1      -0.110   8.658  22.378  0.00  0.00    +0.000 F 
ATOM     25  C   UNL     1       0.573   9.431  20.258  0.00  0.00    +0.000 A 
ATOM     26  C   UNL     1       1.333   9.246  19.099  0.00  0.00    +0.000 A 
ENDBRANCH  19  20
ENDBRANCH  10  19
TORSDOF 2
ENDMDL
MODEL 5
REMARK VINA RESULT:      -7.0      1.079      1.300
REMARK  Name = 
REMARK  2 active torsions:
REMARK  status: ('A' for Active; 'I' for Inactive)
REMARK    1  A    between atoms: N_10  and  C_11
REMARK    2  A    between atoms: C_11  and  C_12
REMARK                            x       y       z     vdW  Elec       q    Type
REMARK                         _______ _______ _______ _____ _____    ______ ____
ROOT
ATOM      1  O   UNL     1       4.753   1.963  20.576  0.00  0.00    +0.000 OA
ATOM      2  C   UNL     1       3.913   2.677  20.058  0.00  0.00    +0.000 C 
ATOM      3  C   UNL     1       4.103   4.122  19.727  0.00  0.00    +0.000 C 
ATOM      4  C   UNL     1       2.797   4.522  19.022  0.00  0.00    +0.000 C 
ATOM      5  C   UNL     1       1.944   3.283  19.115  0.00  0.00    +0.000 C 
ATOM      6  O   UNL     1       0.777   3.166  18.769  0.00  0.00    +0.000 OA
ATOM      7  N   UNL     1       2.671   2.280  19.681  0.00  0.00    +0.000 N 
ATOM      8  C   UNL     1       3.188   4.871  17.588  0.00  0.00    +0.000 C 
ATOM      9  O   UNL     1       3.156   4.046  16.677  0.00  0.00    +0.000 OA
ATOM     10  N   UNL     1       3.745   6.135  17.448  0.00  0.00    +0.000 N 
ATOM     11  C   UNL     1       3.111   7.249  17.985  0.00  0.00    +0.000 C 
ATOM     12  O   UNL     1       3.219   8.379  17.520  0.00  0.00    +0.000 OA
ATOM     13  C   UNL     1       2.323   6.951  19.159  0.00  0.00    +0.000 A 
ATOM     14  C   UNL     1       1.652   7.807  20.010  0.00  0.00    +0.000 A 
ATOM     15  C   UNL     1       1.161   7.039  21.092  0.00  0.00    +0.000 A 
ATOM     16  C   UNL     1       1.515   5.727  20.862  0.00  0.00    +0.000 A 
ATOM     17  N   UNL     1       2.177   5.677  19.663  0.00  0.00    +0.000 N 
ATOM     18  H   UNL     1       2.322   1.352  19.827  0.00  0.00    +0.000 HD
ENDROOT
BRANCH  10  19
ATOM     19  C   UNL     1       4.837   6.335  16.506  0.00  0.00    +0.000 C 
BRANCH  19  20
ATOM     20  C   UNL     1       6.147   5.956  17.194  0.00  0.00    +0.000 A 
ATOM     21  C   UNL     1       6.701   4.673  17.052  0.00  0.00    +0.000 A 
ATOM     22  C   UNL     1       7.812   4.288  17.810  0.00  0.00    +0.000 A 
ATOM     23  C   UNL     1       8.384   5.192  18.697  0.00  0.00    +0.000 A 
ATOM     24  F   UNL     1       9.439   4.816  19.436  0.00  0.00    +0.000 F 
ATOM     25  C   UNL     1       7.872   6.474  18.837  0.00  0.00    +0.000 A 
ATOM     26  C   UNL     1       6.755   6.855  18.087  0.00  0.00    +0.000 A 
ENDBRANCH  19  20
ENDBRANCH  10  19
TORSDOF 2
ENDMDL
MODEL 6
REMARK VINA RESULT:      -6.6      9.363     12.154
REMARK  Name = 
REMARK  2 active torsions:
REMARK  status: ('A' for Active; 'I' for Inactive)
REMARK    1  A    between atoms: N_10  and  C_11
REMARK    2  A    between atoms: C_11  and  C_12
REMARK                            x       y       z     vdW  Elec       q    Type
REMARK                         _______ _______ _______ _____ _____    ______ ____
ROOT
ATOM      1  O   UNL     1      -4.992  11.788  17.708  0.00  0.00    +0.000 OA
ATOM      2  C   UNL     1      -5.244  12.502  18.662  0.00  0.00    +0.000 C 
ATOM      3  C   UNL     1      -4.797  12.245  20.065  0.00  0.00    +0.000 C 
ATOM      4  C   UNL     1      -5.297  13.469  20.849  0.00  0.00    +0.000 C 
ATOM      5  C   UNL     1      -6.075  14.257  19.828  0.00  0.00    +0.000 C 
ATOM      6  O   UNL     1      -6.737  15.266  20.026  0.00  0.00    +0.000 OA
ATOM      7  N   UNL     1      -5.958  13.655  18.612  0.00  0.00    +0.000 N 
ATOM      8  C   UNL     1      -4.044  14.194  21.334  0.00  0.00    +0.000 C 
ATOM      9  O   UNL     1      -3.522  15.106  20.696  0.00  0.00    +0.000 OA
ATOM     10  N   UNL     1      -3.456  13.617  22.452  0.00  0.00    +0.000 N 
ATOM     11  C   UNL     1      -4.218  13.317  23.574  0.00  0.00    +0.000 C 
ATOM     12  O   UNL     1      -3.765  13.295  24.714  0.00  0.00    +0.000 OA
ATOM     13  C   UNL     1      -5.599  13.017  23.268  0.00  0.00    +0.000 A 
ATOM     14  C   UNL     1      -6.610  12.577  24.099  0.00  0.00    +0.000 A 
ATOM     15  C   UNL     1      -7.734  12.286  23.290  0.00  0.00    +0.000 A 
ATOM     16  C   UNL     1      -7.395  12.584  21.989  0.00  0.00    +0.000 A 
ATOM     17  N   UNL     1      -6.114  13.073  21.991  0.00  0.00    +0.000 N 
ATOM     18  H   UNL     1      -6.373  14.009  17.772  0.00  0.00    +0.000 HD
ENDROOT
BRANCH  10  19
ATOM     19  C   UNL     1      -2.005  13.583  22.560  0.00  0.00    +0.000 C 
BRANCH  19  20
ATOM     20  C   UNL     1      -1.524  12.176  22.208  0.00  0.00    +0.000 A 
ATOM     21  C   UNL     1      -1.311  11.208  23.203  0.00  0.00    +0.000 A 
ATOM     22  C   UNL     1      -0.721   9.979  22.886  0.00  0.00    +0.000 A 
ATOM     23  C   UNL     1      -0.364   9.708  21.571  0.00  0.00    +0.000 A 
ATOM     24  F   UNL     1       0.217   8.536  21.271  0.00  0.00    +0.000 F 
ATOM     25  C   UNL     1      -0.588  10.637  20.566  0.00  0.00    +0.000 A 
ATOM     26  C   UNL     1      -1.167  11.870  20.883  0.00  0.00    +0.000 A 
ENDBRANCH  19  20
ENDBRANCH  10  19
TORSDOF 2
ENDMDL
MODEL 7
REMARK VINA RESULT:      -6.4      6.582      8.563
REMARK  Name = 
REMARK  2 active torsions:
REMARK  status: ('A' for Active; 'I' for Inactive)
REMARK    1  A    between atoms: N_10  and  C_11
REMARK    2  A    between atoms: C_11  and  C_12
REMARK                            x       y       z     vdW  Elec       q    Type
REMARK                         _______ _______ _______ _____ _____    ______ ____
ROOT
ATOM      1  O   UNL     1       2.583  10.467  17.451  0.00  0.00    +0.000 OA
ATOM      2  C   UNL     1       1.538  10.530  18.072  0.00  0.00    +0.000 C 
ATOM      3  C   UNL     1       1.360  11.225  19.383  0.00  0.00    +0.000 C 
ATOM      4  C   UNL     1      -0.141  11.084  19.684  0.00  0.00    +0.000 C 
ATOM      5  C   UNL     1      -0.654  10.226  18.557  0.00  0.00    +0.000 C 
ATOM      6  O   UNL     1      -1.783   9.773  18.433  0.00  0.00    +0.000 OA
ATOM      7  N   UNL     1       0.356   9.994  17.674  0.00  0.00    +0.000 N 
ATOM      8  C   UNL     1      -0.705  12.502  19.660  0.00  0.00    +0.000 C 
ATOM      9  O   UNL     1      -1.191  13.001  18.646  0.00  0.00    +0.000 OA
ATOM     10  N   UNL     1      -0.459  13.226  20.818  0.00  0.00    +0.000 N 
ATOM     11  C   UNL     1      -0.754  12.687  22.064  0.00  0.00    +0.000 C 
ATOM     12  O   UNL     1      -1.048  13.366  23.044  0.00  0.00    +0.000 OA
ATOM     13  C   UNL     1      -0.667  11.245  22.101  0.00  0.00    +0.000 A 
ATOM     14  C   UNL     1      -0.784  10.383  23.174  0.00  0.00    +0.000 A 
ATOM     15  C   UNL     1      -0.468   9.082  22.714  0.00  0.00    +0.000 A 
ATOM     16  C   UNL     1      -0.197   9.174  21.367  0.00  0.00    +0.000 A 
ATOM     17  N   UNL     1      -0.368  10.482  20.994  0.00  0.00    +0.000 N 
ATOM     18  H   UNL     1       0.249   9.464  16.830  0.00  0.00    +0.000 HD
ENDROOT
BRANCH  10  19
ATOM     19  C   UNL     1      -0.156  14.648  20.723  0.00  0.00    +0.000 C 
BRANCH  19  20
ATOM     20  C   UNL     1       1.285  14.806  20.242  0.00  0.00    +0.000 A 
ATOM     21  C   UNL     1       1.574  15.221  18.932  0.00  0.00    +0.000 A 
ATOM     22  C   UNL     1       2.890  15.210  18.455  0.00  0.00    +0.000 A 
ATOM     23  C   UNL     1       3.921  14.804  19.294  0.00  0.00    +0.000 A 
ATOM     24  F   UNL     1       5.179  14.777  18.831  0.00  0.00    +0.000 F 
ATOM     25  C   UNL     1       3.663  14.415  20.601  0.00  0.00    +0.000 A 
ATOM     26  C   UNL     1       2.348  14.415  21.074  0.00  0.00    +0.000 A 
ENDBRANCH  19  20
ENDBRANCH  10  19
TORSDOF 2
ENDMDL
MODEL 8
REMARK VINA RESULT:      -6.4      3.015      5.315
REMARK  Name = 
REMARK  2 active torsions:
REMARK  status: ('A' for Active; 'I' for Inactive)
REMARK    1  A    between atoms: N_10  and  C_11
REMARK    2  A    between atoms: C_11  and  C_12
REMARK                            x       y       z     vdW  Elec       q    Type
REMARK                         _______ _______ _______ _____ _____    ______ ____
ROOT
ATOM      1  O   UNL     1       8.061   4.608  18.487  0.00  0.00    +0.000 OA
ATOM      2  C   UNL     1       6.914   4.602  18.078  0.00  0.00    +0.000 C 
ATOM      3  C   UNL     1       5.696   4.607  18.944  0.00  0.00    +0.000 C 
ATOM      4  C   UNL     1       4.527   4.683  17.949  0.00  0.00    +0.000 C 
ATOM      5  C   UNL     1       5.196   4.608  16.601  0.00  0.00    +0.000 C 
ATOM      6  O   UNL     1       4.648   4.537  15.511  0.00  0.00    +0.000 OA
ATOM      7  N   UNL     1       6.548   4.603  16.772  0.00  0.00    +0.000 N 
ATOM      8  C   UNL     1       3.848   6.027  18.204  0.00  0.00    +0.000 C 
ATOM      9  O   UNL     1       4.144   7.043  17.579  0.00  0.00    +0.000 OA
ATOM     10  N   UNL     1       3.012   6.034  19.311  0.00  0.00    +0.000 N 
ATOM     11  C   UNL     1       2.046   5.049  19.473  0.00  0.00    +0.000 C 
ATOM     12  O   UNL     1       0.993   5.225  20.079  0.00  0.00    +0.000 OA
ATOM     13  C   UNL     1       2.407   3.786  18.869  0.00  0.00    +0.000 A 
ATOM     14  C   UNL     1       1.756   2.569  18.917  0.00  0.00    +0.000 A 
ATOM     15  C   UNL     1       2.592   1.612  18.294  0.00  0.00    +0.000 A 
ATOM     16  C   UNL     1       3.717   2.271  17.852  0.00  0.00    +0.000 A 
ATOM     17  N   UNL     1       3.574   3.598  18.161  0.00  0.00    +0.000 N 
ATOM     18  H   UNL     1       7.205   4.579  16.016  0.00  0.00    +0.000 HD
ENDROOT
BRANCH  10  19
ATOM     19  C   UNL     1       2.954   7.219  20.157  0.00  0.00    +0.000 C 
BRANCH  19  20
ATOM     20  C   UNL     1       1.847   8.134  19.636  0.00  0.00    +0.000 A 
ATOM     21  C   UNL     1       1.814   8.545  18.294  0.00  0.00    +0.000 A 
ATOM     22  C   UNL     1       0.891   9.507  17.866  0.00  0.00    +0.000 A 
ATOM     23  C   UNL     1      -0.013  10.043  18.775  0.00  0.00    +0.000 A 
ATOM     24  F   UNL     1      -0.886  10.977  18.369  0.00  0.00    +0.000 F 
ATOM     25  C   UNL     1      -0.017   9.634  20.101  0.00  0.00    +0.000 A 
ATOM     26  C   UNL     1       0.912   8.681  20.531  0.00  0.00    +0.000 A 
ENDBRANCH  19  20
ENDBRANCH  10  19
TORSDOF 2
ENDMDL
MODEL 9
REMARK VINA RESULT:      -6.4      6.480      8.388
REMARK  Name = 
REMARK  2 active torsions:
REMARK  status: ('A' for Active; 'I' for Inactive)
REMARK    1  A    between atoms: N_10  and  C_11
REMARK    2  A    between atoms: C_11  and  C_12
REMARK                            x       y       z     vdW  Elec       q    Type
REMARK                         _______ _______ _______ _____ _____    ______ ____
ROOT
ATOM      1  O   UNL     1       2.521  10.010  17.460  0.00  0.00    +0.000 OA
ATOM      2  C   UNL     1       1.492  10.232  18.073  0.00  0.00    +0.000 C 
ATOM      3  C   UNL     1       1.400  11.035  19.330  0.00  0.00    +0.000 C 
ATOM      4  C   UNL     1      -0.106  11.081  19.637  0.00  0.00    +0.000 C 
ATOM      5  C   UNL     1      -0.717  10.205  18.574  0.00  0.00    +0.000 C 
ATOM      6  O   UNL     1      -1.889   9.871  18.481  0.00  0.00    +0.000 OA
ATOM      7  N   UNL     1       0.257   9.801  17.712  0.00  0.00    +0.000 N 
ATOM      8  C   UNL     1      -0.512  12.547  19.509  0.00  0.00    +0.000 C 
ATOM      9  O   UNL     1      -0.947  13.021  18.461  0.00  0.00    +0.000 OA
ATOM     10  N   UNL     1      -0.181  13.321  20.613  0.00  0.00    +0.000 N 
ATOM     11  C   UNL     1      -0.526  12.909  21.894  0.00  0.00    +0.000 C 
ATOM     12  O   UNL     1      -0.738  13.685  22.821  0.00  0.00    +0.000 OA
ATOM     13  C   UNL     1      -0.596  11.472  22.035  0.00  0.00    +0.000 A 
ATOM     14  C   UNL     1      -0.801  10.708  23.167  0.00  0.00    +0.000 A 
ATOM     15  C   UNL     1      -0.631   9.351  22.804  0.00  0.00    +0.000 A 
ATOM     16  C   UNL     1      -0.360   9.315  21.453  0.00  0.00    +0.000 A 
ATOM     17  N   UNL     1      -0.389  10.603  20.986  0.00  0.00    +0.000 N 
ATOM     18  H   UNL     1       0.087   9.226  16.909  0.00  0.00    +0.000 HD
ENDROOT
BRANCH  10  19
ATOM     19  C   UNL     1       0.275  14.690  20.415  0.00  0.00    +0.000 C 
BRANCH  19  20
ATOM     20  C   UNL     1       1.754  14.660  20.036  0.00  0.00    +0.000 A 
ATOM     21  C   UNL     1       2.748  14.420  20.999  0.00  0.00    +0.000 A 
ATOM     22  C   UNL     1       4.103  14.552  20.672  0.00  0.00    +0.000 A 
ATOM     23  C   UNL     1       4.465  14.903  19.377  0.00  0.00    +0.000 A 
ATOM     24  F   UNL     1       5.763  15.047  19.069  0.00  0.00    +0.000 F 
ATOM     25  C   UNL     1       3.503  15.121  18.402  0.00  0.00    +0.000 A 
ATOM     26  C   UNL     1       2.149  15.000  18.730  0.00  0.00    +0.000 A 
ENDBRANCH  19  20
ENDBRANCH  10  19
TORSDOF 2
ENDMDL
