MODEL 1
REMARK VINA RESULT:      -7.5      0.000      0.000
REMARK  Name = 
REMARK  11 active torsions:
REMARK  status: ('A' for Active; 'I' for Inactive)
REMARK    1  A    between atoms: C_1  and  C_2
REMARK    2  A    between atoms: C_2  and  C_3
REMARK    3  A    between atoms: C_3  and  C_4
REMARK    4  A    between atoms: C_4  and  C_5
REMARK    5  A    between atoms: C_5  and  N_6
REMARK    6  A    between atoms: C_8  and  C_9
REMARK    7  A    between atoms: C_13  and  C_15
REMARK    8  A    between atoms: C_15  and  C_16
REMARK    9  A    between atoms: C_16  and  C_17
REMARK   10  A    between atoms: C_16  and  C_18
REMARK   11  A    between atoms: C_16  and  C_19
REMARK                            x       y       z     vdW  Elec       q    Type
REMARK                         _______ _______ _______ _____ _____    ______ ____
ROOT
ATOM      1  N   UNL     1       2.553   6.700  19.631  0.00  0.00    +0.000 N 
ATOM      2  C   UNL     1       3.797   6.758  19.064  0.00  0.00    +0.000 A 
ATOM      3  C   UNL     1       4.374   5.502  19.106  0.00  0.00    +0.000 A 
ATOM      4  C   UNL     1       3.383   4.632  19.684  0.00  0.00    +0.000 A 
ATOM      5  C   UNL     1       3.343   3.250  19.970  0.00  0.00    +0.000 A 
ATOM      6  C   UNL     1       2.213   2.691  20.577  0.00  0.00    +0.000 A 
ATOM      7  C   UNL     1       1.115   3.483  20.882  0.00  0.00    +0.000 A 
ATOM      8  C   UNL     1       1.114   4.849  20.588  0.00  0.00    +0.000 A 
ATOM      9  C   UNL     1       2.261   5.406  19.999  0.00  0.00    +0.000 A 
ENDROOT
BRANCH   3  10
ATOM     10  C   UNL     1       5.752   5.102  18.613  0.00  0.00    +0.000 C 
ATOM     11  C   UNL     1       6.386   6.157  17.690  0.00  0.00    +0.000 C 
ATOM     12  C   UNL     1       5.736   6.166  16.314  0.00  0.00    +0.000 C 
ATOM     13  N   UNL     1       5.816   4.839  15.708  0.00  0.00    +0.000 N 
ATOM     14  C   UNL     1       6.291   4.733  14.411  0.00  0.00    +0.000 C 
ATOM     15  O   UNL     1       6.713   5.721  13.810  0.00  0.00    +0.000 OA
ATOM     16  C   UNL     1       5.221   3.762  16.491  0.00  0.00    +0.000 C 
ATOM     17  C   UNL     1       5.797   3.729  17.909  0.00  0.00    +0.000 C 
BRANCH  14  18
ATOM     18  C   UNL     1       6.275   3.347  13.771  0.00  0.00    +0.000 C 
BRANCH  18  19
ATOM     19  C   UNL     1       6.056   3.308  12.235  0.00  0.00    +0.000 C 
ATOM     20  C   UNL     1       4.629   3.747  11.870  0.00  0.00    +0.000 C 
ATOM     21  C   UNL     1       7.037   4.310  11.582  0.00  0.00    +0.000 C 
ATOM     22  C   UNL     1       6.364   1.915  11.660  0.00  0.00    +0.000 C 
ENDBRANCH  18  19
ENDBRANCH  14  18
ENDBRANCH   3  10
BRANCH   1  23
ATOM     23  C   UNL     1       1.693   7.862  19.795  0.00  0.00    +0.000 C 
BRANCH  23  24
ATOM     24  C   UNL     1       1.298   8.160  21.243  0.00  0.00    +0.000 C 
BRANCH  24  25
ATOM     25  C   UNL     1       0.130   9.142  21.364  0.00  0.00    +0.000 C 
BRANCH  25  27
ATOM     26  C   UNL     1      -0.996  10.650  23.033  0.00  0.00    +0.000 C 
ATOM     27  C   UNL     1      -0.282   9.324  22.823  0.00  0.00    +0.000 C 
ENDBRANCH  25  27
ENDBRANCH  24  25
ENDBRANCH  23  24
ENDBRANCH   1  23
TORSDOF 7
ENDMDL
MODEL 2
REMARK VINA RESULT:      -7.4      4.543      8.053
REMARK  Name = 
REMARK  11 active torsions:
REMARK  status: ('A' for Active; 'I' for Inactive)
REMARK    1  A    between atoms: C_1  and  C_2
REMARK    2  A    between atoms: C_2  and  C_3
REMARK    3  A    between atoms: C_3  and  C_4
REMARK    4  A    between atoms: C_4  and  C_5
REMARK    5  A    between atoms: C_5  and  N_6
REMARK    6  A    between atoms: C_8  and  C_9
REMARK    7  A    between atoms: C_13  and  C_15
REMARK    8  A    between atoms: C_15  and  C_16
REMARK    9  A    between atoms: C_16  and  C_17
REMARK   10  A    between atoms: C_16  and  C_18
REMARK   11  A    between atoms: C_16  and  C_19
REMARK                            x       y       z     vdW  Elec       q    Type
REMARK                         _______ _______ _______ _____ _____    ______ ____
ROOT
ATOM      1  N   UNL     1      -2.292  10.380  17.669  0.00  0.00    +0.000 N 
ATOM      2  C   UNL     1      -0.987   9.980  17.782  0.00  0.00    +0.000 A 
ATOM      3  C   UNL     1      -0.395  10.652  18.835  0.00  0.00    +0.000 A 
ATOM      4  C   UNL     1      -1.433  11.460  19.420  0.00  0.00    +0.000 A 
ATOM      5  C   UNL     1      -1.481  12.343  20.522  0.00  0.00    +0.000 A 
ATOM      6  C   UNL     1      -2.666  13.020  20.827  0.00  0.00    +0.000 A 
ATOM      7  C   UNL     1      -3.810  12.814  20.068  0.00  0.00    +0.000 A 
ATOM      8  C   UNL     1      -3.801  11.928  18.988  0.00  0.00    +0.000 A 
ATOM      9  C   UNL     1      -2.601  11.269  18.674  0.00  0.00    +0.000 A 
ENDROOT
BRANCH   3  10
ATOM     10  C   UNL     1       1.041  10.540  19.310  0.00  0.00    +0.000 C 
ATOM     11  C   UNL     1       2.030  10.261  18.165  0.00  0.00    +0.000 C 
ATOM     12  C   UNL     1       1.929   8.826  17.670  0.00  0.00    +0.000 C 
ATOM     13  N   UNL     1       2.145   7.893  18.774  0.00  0.00    +0.000 N 
ATOM     14  C   UNL     1       3.053   6.862  18.599  0.00  0.00    +0.000 C 
ATOM     15  O   UNL     1       3.723   6.779  17.570  0.00  0.00    +0.000 OA
ATOM     16  C   UNL     1       1.242   8.054  19.909  0.00  0.00    +0.000 C 
ATOM     17  C   UNL     1       1.258   9.495  20.425  0.00  0.00    +0.000 C 
BRANCH  14  18
ATOM     18  C   UNL     1       3.190   5.850  19.733  0.00  0.00    +0.000 C 
BRANCH  18  19
ATOM     19  C   UNL     1       2.457   4.497  19.531  0.00  0.00    +0.000 C 
ATOM     20  C   UNL     1       1.348   4.308  20.579  0.00  0.00    +0.000 C 
ATOM     21  C   UNL     1       1.787   4.514  18.137  0.00  0.00    +0.000 C 
ATOM     22  C   UNL     1       3.442   3.316  19.557  0.00  0.00    +0.000 C 
ENDBRANCH  18  19
ENDBRANCH  14  18
ENDBRANCH   3  10
BRANCH   1  23
ATOM     23  C   UNL     1      -3.188   9.905  16.628  0.00  0.00    +0.000 C 
BRANCH  23  24
ATOM     24  C   UNL     1      -2.849  10.403  15.221  0.00  0.00    +0.000 C 
BRANCH  24  25
ATOM     25  C   UNL     1      -3.967  10.159  14.205  0.00  0.00    +0.000 C 
BRANCH  25  27
ATOM     26  C   UNL     1      -4.450   9.778  11.765  0.00  0.00    +0.000 C 
ATOM     27  C   UNL     1      -3.395   9.720  12.858  0.00  0.00    +0.000 C 
ENDBRANCH  25  27
ENDBRANCH  24  25
ENDBRANCH  23  24
ENDBRANCH   1  23
TORSDOF 7
ENDMDL
MODEL 3
REMARK VINA RESULT:      -7.3      4.071      8.444
REMARK  Name = 
REMARK  11 active torsions:
REMARK  status: ('A' for Active; 'I' for Inactive)
REMARK    1  A    between atoms: C_1  and  C_2
REMARK    2  A    between atoms: C_2  and  C_3
REMARK    3  A    between atoms: C_3  and  C_4
REMARK    4  A    between atoms: C_4  and  C_5
REMARK    5  A    between atoms: C_5  and  N_6
REMARK    6  A    between atoms: C_8  and  C_9
REMARK    7  A    between atoms: C_13  and  C_15
REMARK    8  A    between atoms: C_15  and  C_16
REMARK    9  A    between atoms: C_16  and  C_17
REMARK   10  A    between atoms: C_16  and  C_18
REMARK   11  A    between atoms: C_16  and  C_19
REMARK                            x       y       z     vdW  Elec       q    Type
REMARK                         _______ _______ _______ _____ _____    ______ ____
ROOT
ATOM      1  N   UNL     1       1.996   6.017  20.178  0.00  0.00    +0.000 N 
ATOM      2  C   UNL     1       1.575   7.283  20.482  0.00  0.00    +0.000 A 
ATOM      3  C   UNL     1       2.133   8.175  19.585  0.00  0.00    +0.000 A 
ATOM      4  C   UNL     1       2.889   7.378  18.655  0.00  0.00    +0.000 A 
ATOM      5  C   UNL     1       3.658   7.678  17.509  0.00  0.00    +0.000 A 
ATOM      6  C   UNL     1       4.312   6.655  16.815  0.00  0.00    +0.000 A 
ATOM      7  C   UNL     1       4.192   5.336  17.230  0.00  0.00    +0.000 A 
ATOM      8  C   UNL     1       3.418   5.004  18.344  0.00  0.00    +0.000 A 
ATOM      9  C   UNL     1       2.783   6.039  19.049  0.00  0.00    +0.000 A 
ENDROOT
BRANCH   3  10
ATOM     10  C   UNL     1       1.962   9.682  19.555  0.00  0.00    +0.000 C 
ATOM     11  C   UNL     1       0.985  10.195  20.627  0.00  0.00    +0.000 C 
ATOM     12  C   UNL     1      -0.460   9.878  20.270  0.00  0.00    +0.000 C 
ATOM     13  N   UNL     1      -0.793  10.436  18.962  0.00  0.00    +0.000 N 
ATOM     14  C   UNL     1      -1.950  11.189  18.840  0.00  0.00    +0.000 C 
ATOM     15  O   UNL     1      -2.638  11.452  19.826  0.00  0.00    +0.000 OA
ATOM     16  C   UNL     1       0.060   9.997  17.863  0.00  0.00    +0.000 C 
ATOM     17  C   UNL     1       1.537  10.242  18.180  0.00  0.00    +0.000 C 
BRANCH  14  18
ATOM     18  C   UNL     1      -2.321  11.682  17.444  0.00  0.00    +0.000 C 
BRANCH  18  19
ATOM     19  C   UNL     1      -3.452  10.900  16.724  0.00  0.00    +0.000 C 
ATOM     20  C   UNL     1      -3.105  10.667  15.245  0.00  0.00    +0.000 C 
ATOM     21  C   UNL     1      -3.586   9.514  17.398  0.00  0.00    +0.000 C 
ATOM     22  C   UNL     1      -4.805  11.616  16.863  0.00  0.00    +0.000 C 
ENDBRANCH  18  19
ENDBRANCH  14  18
ENDBRANCH   3  10
BRANCH   1  23
ATOM     23  C   UNL     1       1.634   4.844  20.957  0.00  0.00    +0.000 C 
BRANCH  23  24
ATOM     24  C   UNL     1       0.841   3.787  20.186  0.00  0.00    +0.000 C 
BRANCH  24  25
ATOM     25  C   UNL     1       1.520   2.417  20.158  0.00  0.00    +0.000 C 
BRANCH  25  27
ATOM     26  C   UNL     1       3.171   1.557  18.465  0.00  0.00    +0.000 C 
ATOM     27  C   UNL     1       1.721   1.935  18.723  0.00  0.00    +0.000 C 
ENDBRANCH  25  27
ENDBRANCH  24  25
ENDBRANCH  23  24
ENDBRANCH   1  23
TORSDOF 7
ENDMDL
MODEL 4
REMARK VINA RESULT:      -7.3      1.346      1.762
REMARK  Name = 
REMARK  11 active torsions:
REMARK  status: ('A' for Active; 'I' for Inactive)
REMARK    1  A    between atoms: C_1  and  C_2
REMARK    2  A    between atoms: C_2  and  C_3
REMARK    3  A    between atoms: C_3  and  C_4
REMARK    4  A    between atoms: C_4  and  C_5
REMARK    5  A    between atoms: C_5  and  N_6
REMARK    6  A    between atoms: C_8  and  C_9
REMARK    7  A    between atoms: C_13  and  C_15
REMARK    8  A    between atoms: C_15  and  C_16
REMARK    9  A    between atoms: C_16  and  C_17
REMARK   10  A    between atoms: C_16  and  C_18
REMARK   11  A    between atoms: C_16  and  C_19
REMARK                            x       y       z     vdW  Elec       q    Type
REMARK                         _______ _______ _______ _____ _____    ______ ____
ROOT
ATOM      1  N   UNL     1       2.646   6.684  19.478  0.00  0.00    +0.000 N 
ATOM      2  C   UNL     1       3.896   6.677  18.918  0.00  0.00    +0.000 A 
ATOM      3  C   UNL     1       4.424   5.403  19.002  0.00  0.00    +0.000 A 
ATOM      4  C   UNL     1       3.397   4.589  19.599  0.00  0.00    +0.000 A 
ATOM      5  C   UNL     1       3.302   3.218  19.927  0.00  0.00    +0.000 A 
ATOM      6  C   UNL     1       2.148   2.722  20.542  0.00  0.00    +0.000 A 
ATOM      7  C   UNL     1       1.079   3.564  20.815  0.00  0.00    +0.000 A 
ATOM      8  C   UNL     1       1.132   4.919  20.480  0.00  0.00    +0.000 A 
ATOM      9  C   UNL     1       2.303   5.415  19.883  0.00  0.00    +0.000 A 
ENDROOT
BRANCH   3  10
ATOM     10  C   UNL     1       5.788   4.936  18.532  0.00  0.00    +0.000 C 
ATOM     11  C   UNL     1       6.507   5.977  17.656  0.00  0.00    +0.000 C 
ATOM     12  C   UNL     1       5.895   6.063  16.265  0.00  0.00    +0.000 C 
ATOM     13  N   UNL     1       5.912   4.751  15.622  0.00  0.00    +0.000 N 
ATOM     14  C   UNL     1       6.414   4.653  14.335  0.00  0.00    +0.000 C 
ATOM     15  O   UNL     1       6.909   5.630  13.774  0.00  0.00    +0.000 OA
ATOM     16  C   UNL     1       5.236   3.689  16.359  0.00  0.00    +0.000 C 
ATOM     17  C   UNL     1       5.771   3.583  17.789  0.00  0.00    +0.000 C 
BRANCH  14  18
ATOM     18  C   UNL     1       6.334   3.289  13.654  0.00  0.00    +0.000 C 
BRANCH  18  19
ATOM     19  C   UNL     1       6.096   3.306  12.121  0.00  0.00    +0.000 C 
ATOM     20  C   UNL     1       7.083   4.252  11.420  0.00  0.00    +0.000 C 
ATOM     21  C   UNL     1       6.347   1.879  11.578  0.00  0.00    +0.000 C 
ATOM     22  C   UNL     1       4.644   3.681  11.783  0.00  0.00    +0.000 C 
ENDBRANCH  18  19
ENDBRANCH  14  18
ENDBRANCH   3  10
BRANCH   1  23
ATOM     23  C   UNL     1       1.831   7.882  19.601  0.00  0.00    +0.000 C 
BRANCH  23  24
ATOM     24  C   UNL     1       1.493   8.560  18.272  0.00  0.00    +0.000 C 
BRANCH  24  25
ATOM     25  C   UNL     1       0.898   9.960  18.437  0.00  0.00    +0.000 C 
BRANCH  25  27
ATOM     26  C   UNL     1      -1.304  11.175  18.515  0.00  0.00    +0.000 C 
ATOM     27  C   UNL     1      -0.535  10.012  17.910  0.00  0.00    +0.000 C 
ENDBRANCH  25  27
ENDBRANCH  24  25
ENDBRANCH  23  24
ENDBRANCH   1  23
TORSDOF 7
ENDMDL
MODEL 5
REMARK VINA RESULT:      -7.2      0.516      1.062
REMARK  Name = 
REMARK  11 active torsions:
REMARK  status: ('A' for Active; 'I' for Inactive)
REMARK    1  A    between atoms: C_1  and  C_2
REMARK    2  A    between atoms: C_2  and  C_3
REMARK    3  A    between atoms: C_3  and  C_4
REMARK    4  A    between atoms: C_4  and  C_5
REMARK    5  A    between atoms: C_5  and  N_6
REMARK    6  A    between atoms: C_8  and  C_9
REMARK    7  A    between atoms: C_13  and  C_15
REMARK    8  A    between atoms: C_15  and  C_16
REMARK    9  A    between atoms: C_16  and  C_17
REMARK   10  A    between atoms: C_16  and  C_18
REMARK   11  A    between atoms: C_16  and  C_19
REMARK                            x       y       z     vdW  Elec       q    Type
REMARK                         _______ _______ _______ _____ _____    ______ ____
ROOT
ATOM      1  N   UNL     1       2.609   6.613  19.586  0.00  0.00    +0.000 N 
ATOM      2  C   UNL     1       3.861   6.649  19.034  0.00  0.00    +0.000 A 
ATOM      3  C   UNL     1       4.412   5.382  19.075  0.00  0.00    +0.000 A 
ATOM      4  C   UNL     1       3.397   4.529  19.636  0.00  0.00    +0.000 A 
ATOM      5  C   UNL     1       3.325   3.146  19.913  0.00  0.00    +0.000 A 
ATOM      6  C   UNL     1       2.177   2.607  20.503  0.00  0.00    +0.000 A 
ATOM      7  C   UNL     1       1.091   3.419  20.800  0.00  0.00    +0.000 A 
ATOM      8  C   UNL     1       1.122   4.786  20.514  0.00  0.00    +0.000 A 
ATOM      9  C   UNL     1       2.287   5.324  19.942  0.00  0.00    +0.000 A 
ENDROOT
BRANCH   3  10
ATOM     10  C   UNL     1       5.787   4.957  18.596  0.00  0.00    +0.000 C 
ATOM     11  C   UNL     1       6.468   6.019  17.714  0.00  0.00    +0.000 C 
ATOM     12  C   UNL     1       5.844   6.083  16.327  0.00  0.00    +0.000 C 
ATOM     13  N   UNL     1       5.899   4.771  15.687  0.00  0.00    +0.000 N 
ATOM     14  C   UNL     1       6.395   4.686  14.396  0.00  0.00    +0.000 C 
ATOM     15  O   UNL     1       6.855   5.678  13.831  0.00  0.00    +0.000 OA
ATOM     16  C   UNL     1       5.260   3.690  16.429  0.00  0.00    +0.000 C 
ATOM     17  C   UNL     1       5.808   3.603  17.856  0.00  0.00    +0.000 C 
BRANCH  14  18
ATOM     18  C   UNL     1       6.353   3.319  13.718  0.00  0.00    +0.000 C 
BRANCH  18  19
ATOM     19  C   UNL     1       6.183   3.329  12.176  0.00  0.00    +0.000 C 
ATOM     20  C   UNL     1       6.411   1.927  11.587  0.00  0.00    +0.000 C 
ATOM     21  C   UNL     1       4.728   3.742  11.853  0.00  0.00    +0.000 C 
ATOM     22  C   UNL     1       7.116   4.358  11.515  0.00  0.00    +0.000 C 
ENDBRANCH  18  19
ENDBRANCH  14  18
ENDBRANCH   3  10
BRANCH   1  23
ATOM     23  C   UNL     1       1.771   7.791  19.747  0.00  0.00    +0.000 C 
BRANCH  23  24
ATOM     24  C   UNL     1       1.390   8.107  21.194  0.00  0.00    +0.000 C 
BRANCH  24  25
ATOM     25  C   UNL     1       0.003   8.738  21.334  0.00  0.00    +0.000 C 
BRANCH  25  27
ATOM     26  C   UNL     1      -0.634  10.911  20.236  0.00  0.00    +0.000 C 
ATOM     27  C   UNL     1       0.099  10.261  21.399  0.00  0.00    +0.000 C 
ENDBRANCH  25  27
ENDBRANCH  24  25
ENDBRANCH  23  24
ENDBRANCH   1  23
TORSDOF 7
ENDMDL
MODEL 6
REMARK VINA RESULT:      -7.2      3.765      9.185
REMARK  Name = 
REMARK  11 active torsions:
REMARK  status: ('A' for Active; 'I' for Inactive)
REMARK    1  A    between atoms: C_1  and  C_2
REMARK    2  A    between atoms: C_2  and  C_3
REMARK    3  A    between atoms: C_3  and  C_4
REMARK    4  A    between atoms: C_4  and  C_5
REMARK    5  A    between atoms: C_5  and  N_6
REMARK    6  A    between atoms: C_8  and  C_9
REMARK    7  A    between atoms: C_13  and  C_15
REMARK    8  A    between atoms: C_15  and  C_16
REMARK    9  A    between atoms: C_16  and  C_17
REMARK   10  A    between atoms: C_16  and  C_18
REMARK   11  A    between atoms: C_16  and  C_19
REMARK                            x       y       z     vdW  Elec       q    Type
REMARK                         _______ _______ _______ _____ _____    ______ ____
ROOT
ATOM      1  N   UNL     1       2.349   6.297  19.686  0.00  0.00    +0.000 N 
ATOM      2  C   UNL     1       1.521   7.366  19.471  0.00  0.00    +0.000 A 
ATOM      3  C   UNL     1       1.995   8.099  18.399  0.00  0.00    +0.000 A 
ATOM      4  C   UNL     1       3.146   7.385  17.911  0.00  0.00    +0.000 A 
ATOM      5  C   UNL     1       4.045   7.592  16.842  0.00  0.00    +0.000 A 
ATOM      6  C   UNL     1       5.111   6.709  16.639  0.00  0.00    +0.000 A 
ATOM      7  C   UNL     1       5.282   5.611  17.471  0.00  0.00    +0.000 A 
ATOM      8  C   UNL     1       4.395   5.365  18.522  0.00  0.00    +0.000 A 
ATOM      9  C   UNL     1       3.340   6.268  18.732  0.00  0.00    +0.000 A 
ENDROOT
BRANCH   3  10
ATOM     10  C   UNL     1       1.409   9.373  17.821  0.00  0.00    +0.000 C 
ATOM     11  C   UNL     1       2.192  10.632  18.233  0.00  0.00    +0.000 C 
ATOM     12  C   UNL     1       1.939  11.002  19.687  0.00  0.00    +0.000 C 
ATOM     13  N   UNL     1       0.508  11.187  19.921  0.00  0.00    +0.000 N 
ATOM     14  C   UNL     1       0.088  12.337  20.570  0.00  0.00    +0.000 C 
ATOM     15  O   UNL     1       0.891  13.220  20.870  0.00  0.00    +0.000 OA
ATOM     16  C   UNL     1      -0.330  10.041  19.584  0.00  0.00    +0.000 C 
ATOM     17  C   UNL     1      -0.085   9.585  18.144  0.00  0.00    +0.000 C 
BRANCH  14  18
ATOM     18  C   UNL     1      -1.400  12.460  20.883  0.00  0.00    +0.000 C 
BRANCH  18  19
ATOM     19  C   UNL     1      -1.785  12.429  22.386  0.00  0.00    +0.000 C 
ATOM     20  C   UNL     1      -3.312  12.418  22.564  0.00  0.00    +0.000 C 
ATOM     21  C   UNL     1      -1.233  11.121  22.999  0.00  0.00    +0.000 C 
ATOM     22  C   UNL     1      -1.153  13.604  23.151  0.00  0.00    +0.000 C 
ENDBRANCH  18  19
ENDBRANCH  14  18
ENDBRANCH   3  10
BRANCH   1  23
ATOM     23  C   UNL     1       2.167   5.350  20.774  0.00  0.00    +0.000 C 
BRANCH  23  24
ATOM     24  C   UNL     1       1.018   4.360  20.570  0.00  0.00    +0.000 C 
BRANCH  24  25
ATOM     25  C   UNL     1       1.489   2.939  20.255  0.00  0.00    +0.000 C 
BRANCH  25  27
ATOM     26  C   UNL     1       2.170   2.600  17.857  0.00  0.00    +0.000 C 
ATOM     27  C   UNL     1       1.033   2.508  18.862  0.00  0.00    +0.000 C 
ENDBRANCH  25  27
ENDBRANCH  24  25
ENDBRANCH  23  24
ENDBRANCH   1  23
TORSDOF 7
ENDMDL
MODEL 7
REMARK VINA RESULT:      -7.0      3.751      8.130
REMARK  Name = 
REMARK  11 active torsions:
REMARK  status: ('A' for Active; 'I' for Inactive)
REMARK    1  A    between atoms: C_1  and  C_2
REMARK    2  A    between atoms: C_2  and  C_3
REMARK    3  A    between atoms: C_3  and  C_4
REMARK    4  A    between atoms: C_4  and  C_5
REMARK    5  A    between atoms: C_5  and  N_6
REMARK    6  A    between atoms: C_8  and  C_9
REMARK    7  A    between atoms: C_13  and  C_15
REMARK    8  A    between atoms: C_15  and  C_16
REMARK    9  A    between atoms: C_16  and  C_17
REMARK   10  A    between atoms: C_16  and  C_18
REMARK   11  A    between atoms: C_16  and  C_19
REMARK                            x       y       z     vdW  Elec       q    Type
REMARK                         _______ _______ _______ _____ _____    ______ ____
ROOT
ATOM      1  N   UNL     1       1.938   5.127  18.836  0.00  0.00    +0.000 N 
ATOM      2  C   UNL     1       1.602   6.383  19.263  0.00  0.00    +0.000 A 
ATOM      3  C   UNL     1       2.483   7.299  18.719  0.00  0.00    +0.000 A 
ATOM      4  C   UNL     1       3.364   6.541  17.870  0.00  0.00    +0.000 A 
ATOM      5  C   UNL     1       4.446   6.884  17.028  0.00  0.00    +0.000 A 
ATOM      6  C   UNL     1       5.139   5.887  16.335  0.00  0.00    +0.000 A 
ATOM      7  C   UNL     1       4.758   4.557  16.448  0.00  0.00    +0.000 A 
ATOM      8  C   UNL     1       3.676   4.189  17.252  0.00  0.00    +0.000 A 
ATOM      9  C   UNL     1       2.999   5.193  17.962  0.00  0.00    +0.000 A 
ENDROOT
BRANCH   3  10
ATOM     10  C   UNL     1       2.505   8.800  18.936  0.00  0.00    +0.000 C 
ATOM     11  C   UNL     1       1.778   9.229  20.222  0.00  0.00    +0.000 C 
ATOM     12  C   UNL     1       0.267   9.125  20.078  0.00  0.00    +0.000 C 
ATOM     13  N   UNL     1      -0.189   9.921  18.941  0.00  0.00    +0.000 N 
ATOM     14  C   UNL     1      -1.244  10.799  19.129  0.00  0.00    +0.000 C 
ATOM     15  O   UNL     1      -1.733  10.966  20.246  0.00  0.00    +0.000 OA
ATOM     16  C   UNL     1       0.421   9.580  17.660  0.00  0.00    +0.000 C 
ATOM     17  C   UNL     1       1.948   9.617  17.750  0.00  0.00    +0.000 C 
BRANCH  14  18
ATOM     18  C   UNL     1      -1.760  11.548  17.904  0.00  0.00    +0.000 C 
BRANCH  18  19
ATOM     19  C   UNL     1      -3.043  10.976  17.246  0.00  0.00    +0.000 C 
ATOM     20  C   UNL     1      -4.276  11.815  17.622  0.00  0.00    +0.000 C 
ATOM     21  C   UNL     1      -2.875  11.053  15.711  0.00  0.00    +0.000 C 
ATOM     22  C   UNL     1      -3.253   9.498  17.617  0.00  0.00    +0.000 C 
ENDBRANCH  18  19
ENDBRANCH  14  18
ENDBRANCH   3  10
BRANCH   1  23
ATOM     23  C   UNL     1       1.243   3.923  19.264  0.00  0.00    +0.000 C 
BRANCH  23  24
ATOM     24  C   UNL     1       1.190   3.724  20.780  0.00  0.00    +0.000 C 
BRANCH  24  25
ATOM     25  C   UNL     1       2.456   3.084  21.354  0.00  0.00    +0.000 C 
BRANCH  25  27
ATOM     26  C   UNL     1       4.548   2.317  20.186  0.00  0.00    +0.000 C 
ATOM     27  C   UNL     1       3.058   2.083  20.369  0.00  0.00    +0.000 C 
ENDBRANCH  25  27
ENDBRANCH  24  25
ENDBRANCH  23  24
ENDBRANCH   1  23
TORSDOF 7
ENDMDL
MODEL 8
REMARK VINA RESULT:      -7.0      7.800     12.124
REMARK  Name = 
REMARK  11 active torsions:
REMARK  status: ('A' for Active; 'I' for Inactive)
REMARK    1  A    between atoms: C_1  and  C_2
REMARK    2  A    between atoms: C_2  and  C_3
REMARK    3  A    between atoms: C_3  and  C_4
REMARK    4  A    between atoms: C_4  and  C_5
REMARK    5  A    between atoms: C_5  and  N_6
REMARK    6  A    between atoms: C_8  and  C_9
REMARK    7  A    between atoms: C_13  and  C_15
REMARK    8  A    between atoms: C_15  and  C_16
REMARK    9  A    between atoms: C_16  and  C_17
REMARK   10  A    between atoms: C_16  and  C_18
REMARK   11  A    between atoms: C_16  and  C_19
REMARK                            x       y       z     vdW  Elec       q    Type
REMARK                         _______ _______ _______ _____ _____    ______ ____
ROOT
ATOM      1  N   UNL     1       9.579  10.803  19.644  0.00  0.00    +0.000 N 
ATOM      2  C   UNL     1       9.096  11.285  20.830  0.00  0.00    +0.000 A 
ATOM      3  C   UNL     1       9.684  12.508  21.096  0.00  0.00    +0.000 A 
ATOM      4  C   UNL     1      10.527  12.795  19.965  0.00  0.00    +0.000 A 
ATOM      5  C   UNL     1      11.361  13.880  19.617  0.00  0.00    +0.000 A 
ATOM      6  C   UNL     1      12.094  13.848  18.426  0.00  0.00    +0.000 A 
ATOM      7  C   UNL     1      11.991  12.764  17.566  0.00  0.00    +0.000 A 
ATOM      8  C   UNL     1      11.155  11.687  17.869  0.00  0.00    +0.000 A 
ATOM      9  C   UNL     1      10.439  11.716  19.078  0.00  0.00    +0.000 A 
ENDROOT
BRANCH   3  10
ATOM     10  C   UNL     1       9.465  13.393  22.309  0.00  0.00    +0.000 C 
ATOM     11  C   UNL     1       8.517  12.764  23.345  0.00  0.00    +0.000 C 
ATOM     12  C   UNL     1       7.070  12.798  22.877  0.00  0.00    +0.000 C 
ATOM     13  N   UNL     1       6.666  14.170  22.577  0.00  0.00    +0.000 N 
ATOM     14  C   UNL     1       5.483  14.644  23.120  0.00  0.00    +0.000 C 
ATOM     15  O   UNL     1       4.827  13.956  23.902  0.00  0.00    +0.000 OA
ATOM     16  C   UNL     1       7.487  14.856  21.586  0.00  0.00    +0.000 C 
ATOM     17  C   UNL     1       8.967  14.814  21.971  0.00  0.00    +0.000 C 
BRANCH  14  18
ATOM     18  C   UNL     1       5.039  16.047  22.716  0.00  0.00    +0.000 C 
BRANCH  18  19
ATOM     19  C   UNL     1       3.874  16.125  21.694  0.00  0.00    +0.000 C 
ATOM     20  C   UNL     1       3.816  14.858  20.826  0.00  0.00    +0.000 C 
ATOM     21  C   UNL     1       2.546  16.216  22.482  0.00  0.00    +0.000 C 
ATOM     22  C   UNL     1       3.980  17.385  20.818  0.00  0.00    +0.000 C 
ENDBRANCH  18  19
ENDBRANCH  14  18
ENDBRANCH   3  10
BRANCH   1  23
ATOM     23  C   UNL     1       9.205   9.510  19.093  0.00  0.00    +0.000 C 
BRANCH  23  24
ATOM     24  C   UNL     1       8.168   9.573  17.970  0.00  0.00    +0.000 C 
BRANCH  24  25
ATOM     25  C   UNL     1       7.687   8.195  17.510  0.00  0.00    +0.000 C 
BRANCH  25  27
ATOM     26  C   UNL     1       7.364   5.811  18.245  0.00  0.00    +0.000 C 
ATOM     27  C   UNL     1       8.116   7.108  18.493  0.00  0.00    +0.000 C 
ENDBRANCH  25  27
ENDBRANCH  24  25
ENDBRANCH  23  24
ENDBRANCH   1  23
TORSDOF 7
ENDMDL
MODEL 9
REMARK VINA RESULT:      -6.9      2.594      8.130
REMARK  Name = 
REMARK  11 active torsions:
REMARK  status: ('A' for Active; 'I' for Inactive)
REMARK    1  A    between atoms: C_1  and  C_2
REMARK    2  A    between atoms: C_2  and  C_3
REMARK    3  A    between atoms: C_3  and  C_4
REMARK    4  A    between atoms: C_4  and  C_5
REMARK    5  A    between atoms: C_5  and  N_6
REMARK    6  A    between atoms: C_8  and  C_9
REMARK    7  A    between atoms: C_13  and  C_15
REMARK    8  A    between atoms: C_15  and  C_16
REMARK    9  A    between atoms: C_16  and  C_17
REMARK   10  A    between atoms: C_16  and  C_18
REMARK   11  A    between atoms: C_16  and  C_19
REMARK                            x       y       z     vdW  Elec       q    Type
REMARK                         _______ _______ _______ _____ _____    ______ ____
ROOT
ATOM      1  N   UNL     1       6.505   5.359  18.530  0.00  0.00    +0.000 N 
ATOM      2  C   UNL     1       5.288   5.501  19.140  0.00  0.00    +0.000 A 
ATOM      3  C   UNL     1       4.288   5.222  18.227  0.00  0.00    +0.000 A 
ATOM      4  C   UNL     1       4.958   4.834  17.014  0.00  0.00    +0.000 A 
ATOM      5  C   UNL     1       4.511   4.411  15.742  0.00  0.00    +0.000 A 
ATOM      6  C   UNL     1       5.437   4.124  14.733  0.00  0.00    +0.000 A 
ATOM      7  C   UNL     1       6.799   4.229  14.978  0.00  0.00    +0.000 A 
ATOM      8  C   UNL     1       7.272   4.620  16.233  0.00  0.00    +0.000 A 
ATOM      9  C   UNL     1       6.337   4.928  17.234  0.00  0.00    +0.000 A 
ENDROOT
BRANCH   3  10
ATOM     10  C   UNL     1       2.789   5.273  18.456  0.00  0.00    +0.000 C 
ATOM     11  C   UNL     1       2.064   6.206  17.470  0.00  0.00    +0.000 C 
ATOM     12  C   UNL     1       2.312   7.671  17.794  0.00  0.00    +0.000 C 
ATOM     13  N   UNL     1       1.905   7.962  19.167  0.00  0.00    +0.000 N 
ATOM     14  C   UNL     1       1.086   9.055  19.396  0.00  0.00    +0.000 C 
ATOM     15  O   UNL     1       0.644   9.720  18.459  0.00  0.00    +0.000 OA
ATOM     16  C   UNL     1       2.551   7.148  20.191  0.00  0.00    +0.000 C 
ATOM     17  C   UNL     1       2.383   5.655  19.896  0.00  0.00    +0.000 C 
BRANCH  14  18
ATOM     18  C   UNL     1       0.754   9.389  20.848  0.00  0.00    +0.000 C 
BRANCH  18  19
ATOM     19  C   UNL     1       0.121  10.784  21.099  0.00  0.00    +0.000 C 
ATOM     20  C   UNL     1       1.131  11.907  20.811  0.00  0.00    +0.000 C 
ATOM     21  C   UNL     1      -1.066  10.959  20.123  0.00  0.00    +0.000 C 
ATOM     22  C   UNL     1      -0.432  10.899  22.529  0.00  0.00    +0.000 C 
ENDBRANCH  18  19
ENDBRANCH  14  18
ENDBRANCH   3  10
BRANCH   1  23
ATOM     23  C   UNL     1       7.770   5.629  19.195  0.00  0.00    +0.000 C 
BRANCH  23  24
ATOM     24  C   UNL     1       8.249   7.078  19.086  0.00  0.00    +0.000 C 
BRANCH  24  25
ATOM     25  C   UNL     1       7.950   7.717  17.728  0.00  0.00    +0.000 C 
BRANCH  25  27
ATOM     26  C   UNL     1       9.020   9.739  18.775  0.00  0.00    +0.000 C 
ATOM     27  C   UNL     1       7.937   9.241  17.831  0.00  0.00    +0.000 C 
ENDBRANCH  25  27
ENDBRANCH  24  25
ENDBRANCH  23  24
ENDBRANCH   1  23
TORSDOF 7
ENDMDL
