MODEL 1
REMARK VINA RESULT:      -7.6      0.000      0.000
REMARK  Name = 
REMARK  8 active torsions:
REMARK  status: ('A' for Active; 'I' for Inactive)
REMARK    1  A    between atoms: C_2  and  C_4
REMARK    2  A    between atoms: C_4  and  S_5
REMARK    3  A    between atoms: S_5  and  C_6
REMARK    4  A    between atoms: C_9  and  C_10
REMARK    5  A    between atoms: C_10  and  N_11
REMARK    6  A    between atoms: N_21  and  C_22
REMARK    7  A    between atoms: C_22  and  C_23
REMARK    8  A    between atoms: C_23  and  C_24
REMARK                            x       y       z     vdW  Elec       q    Type
REMARK                         _______ _______ _______ _____ _____    ______ ____
ROOT
ATOM      1  C   UNL     1       2.227   6.826  19.834  0.00  0.00    +0.000 A 
ATOM      2  N   UNL     1       1.563   7.421  20.795  0.00  0.00    +0.000 NA
ATOM      3  N   UNL     1       1.265   8.687  20.376  0.00  0.00    +0.000 NA
ATOM      4  C   UNL     1       1.721   8.839  19.143  0.00  0.00    +0.000 A 
ATOM      5  N   UNL     1       2.430   7.703  18.795  0.00  0.00    +0.000 N 
ENDROOT
BRANCH   1   6
ATOM      6  S   UNL     1       2.751   5.175  19.877  0.00  0.00    +0.000 S 
BRANCH   6   7
ATOM      7  C   UNL     1       1.230   4.358  20.465  0.00  0.00    +0.000 C 
BRANCH   7   9
ATOM      8  N   UNL     1       1.659   2.554  22.061  0.00  0.00    +0.000 N 
ATOM      9  C   UNL     1       1.514   2.891  20.748  0.00  0.00    +0.000 C 
ATOM     10  O   UNL     1       1.612   2.035  19.871  0.00  0.00    +0.000 OA
ATOM     11  H   UNL     1       1.885   1.595  22.274  0.00  0.00    +0.000 HD
ATOM     12  H   UNL     1       1.681   3.233  22.810  0.00  0.00    +0.000 HD
ENDBRANCH   7   9
ENDBRANCH   6   7
ENDBRANCH   1   6
BRANCH   4  13
ATOM     13  C   UNL     1       1.436  10.046  18.299  0.00  0.00    +0.000 C 
BRANCH  13  14
ATOM     14  N   UNL     1       0.293  10.814  18.755  0.00  0.00    +0.000 N 
ATOM     15  C   UNL     1       0.458  11.852  19.663  0.00  0.00    +0.000 A 
ATOM     16  O   UNL     1       1.497  12.197  20.199  0.00  0.00    +0.000 OA
ATOM     17  S   UNL     1      -1.081  12.690  19.912  0.00  0.00    +0.000 S 
ATOM     18  C   UNL     1      -1.888  11.648  18.735  0.00  0.00    +0.000 A 
ATOM     19  C   UNL     1      -3.164  11.792  18.214  0.00  0.00    +0.000 A 
ATOM     20  C   UNL     1      -3.588  10.886  17.241  0.00  0.00    +0.000 A 
ATOM     21  C   UNL     1      -2.770   9.814  16.866  0.00  0.00    +0.000 A 
ATOM     22  C   UNL     1      -1.491   9.672  17.409  0.00  0.00    +0.000 A 
ATOM     23  C   UNL     1      -1.030  10.643  18.288  0.00  0.00    +0.000 A 
ENDBRANCH  13  14
ENDBRANCH   4  13
BRANCH   5  24
ATOM     24  C   UNL     1       3.157   7.466  17.561  0.00  0.00    +0.000 C 
BRANCH  24  25
ATOM     25  C   UNL     1       4.679   7.583  17.707  0.00  0.00    +0.000 C 
BRANCH  25  26
ATOM     26  C   UNL     1       5.409   6.451  17.020  0.00  0.00    +0.000 A 
ATOM     27  C   UNL     1       6.357   5.688  17.717  0.00  0.00    +0.000 A 
ATOM     28  C   UNL     1       7.063   4.670  17.071  0.00  0.00    +0.000 A 
ATOM     29  C   UNL     1       6.828   4.403  15.725  0.00  0.00    +0.000 A 
ATOM     30  C   UNL     1       5.869   5.138  15.029  0.00  0.00    +0.000 A 
ATOM     31  C   UNL     1       5.157   6.151  15.675  0.00  0.00    +0.000 A 
ENDBRANCH  25  26
ENDBRANCH  24  25
ENDBRANCH   5  24
TORSDOF 8
ENDMDL
MODEL 2
REMARK VINA RESULT:      -7.6      0.615      1.086
REMARK  Name = 
REMARK  8 active torsions:
REMARK  status: ('A' for Active; 'I' for Inactive)
REMARK    1  A    between atoms: C_2  and  C_4
REMARK    2  A    between atoms: C_4  and  S_5
REMARK    3  A    between atoms: S_5  and  C_6
REMARK    4  A    between atoms: C_9  and  C_10
REMARK    5  A    between atoms: C_10  and  N_11
REMARK    6  A    between atoms: N_21  and  C_22
REMARK    7  A    between atoms: C_22  and  C_23
REMARK    8  A    between atoms: C_23  and  C_24
REMARK                            x       y       z     vdW  Elec       q    Type
REMARK                         _______ _______ _______ _____ _____    ______ ____
ROOT
ATOM      1  C   UNL     1       2.265   6.781  19.794  0.00  0.00    +0.000 A 
ATOM      2  N   UNL     1       1.579   7.394  20.728  0.00  0.00    +0.000 NA
ATOM      3  N   UNL     1       1.296   8.653  20.282  0.00  0.00    +0.000 NA
ATOM      4  C   UNL     1       1.784   8.784  19.059  0.00  0.00    +0.000 A 
ATOM      5  N   UNL     1       2.497   7.641  18.747  0.00  0.00    +0.000 N 
ENDROOT
BRANCH   1   6
ATOM      6  S   UNL     1       2.783   5.130  19.876  0.00  0.00    +0.000 S 
BRANCH   6   7
ATOM      7  C   UNL     1       1.330   4.365  20.671  0.00  0.00    +0.000 C 
BRANCH   7   9
ATOM      8  N   UNL     1       1.812   2.105  19.866  0.00  0.00    +0.000 N 
ATOM      9  C   UNL     1       1.616   2.899  20.957  0.00  0.00    +0.000 C 
ATOM     10  O   UNL     1       1.674   2.426  22.090  0.00  0.00    +0.000 OA
ATOM     11  H   UNL     1       1.968   1.122  20.027  0.00  0.00    +0.000 HD
ATOM     12  H   UNL     1       1.682   2.424  18.916  0.00  0.00    +0.000 HD
ENDBRANCH   7   9
ENDBRANCH   6   7
ENDBRANCH   1   6
BRANCH   4  13
ATOM     13  C   UNL     1       1.524   9.979  18.189  0.00  0.00    +0.000 C 
BRANCH  13  14
ATOM     14  N   UNL     1       0.430  10.809  18.657  0.00  0.00    +0.000 N 
ATOM     15  C   UNL     1       0.673  11.890  19.491  0.00  0.00    +0.000 A 
ATOM     16  O   UNL     1       1.748  12.233  19.952  0.00  0.00    +0.000 OA
ATOM     17  S   UNL     1      -0.826  12.791  19.769  0.00  0.00    +0.000 S 
ATOM     18  C   UNL     1      -1.725  11.709  18.699  0.00  0.00    +0.000 A 
ATOM     19  C   UNL     1      -3.021  11.865  18.236  0.00  0.00    +0.000 A 
ATOM     20  C   UNL     1      -3.523  10.919  17.342  0.00  0.00    +0.000 A 
ATOM     21  C   UNL     1      -2.757   9.800  16.989  0.00  0.00    +0.000 A 
ATOM     22  C   UNL     1      -1.456   9.649  17.473  0.00  0.00    +0.000 A 
ATOM     23  C   UNL     1      -0.921  10.653  18.268  0.00  0.00    +0.000 A 
ENDBRANCH  13  14
ENDBRANCH   4  13
BRANCH   5  24
ATOM     24  C   UNL     1       3.254   7.383  17.536  0.00  0.00    +0.000 C 
BRANCH  24  25
ATOM     25  C   UNL     1       4.774   7.459  17.727  0.00  0.00    +0.000 C 
BRANCH  25  26
ATOM     26  C   UNL     1       5.503   6.384  16.955  0.00  0.00    +0.000 A 
ATOM     27  C   UNL     1       5.178   6.124  15.616  0.00  0.00    +0.000 A 
ATOM     28  C   UNL     1       5.821   5.101  14.914  0.00  0.00    +0.000 A 
ATOM     29  C   UNL     1       6.797   4.331  15.541  0.00  0.00    +0.000 A 
ATOM     30  C   UNL     1       7.147   4.597  16.864  0.00  0.00    +0.000 A 
ATOM     31  C   UNL     1       6.510   5.623  17.564  0.00  0.00    +0.000 A 
ENDBRANCH  25  26
ENDBRANCH  24  25
ENDBRANCH   5  24
TORSDOF 8
ENDMDL
MODEL 3
REMARK VINA RESULT:      -7.5      1.228      1.451
REMARK  Name = 
REMARK  8 active torsions:
REMARK  status: ('A' for Active; 'I' for Inactive)
REMARK    1  A    between atoms: C_2  and  C_4
REMARK    2  A    between atoms: C_4  and  S_5
REMARK    3  A    between atoms: S_5  and  C_6
REMARK    4  A    between atoms: C_9  and  C_10
REMARK    5  A    between atoms: C_10  and  N_11
REMARK    6  A    between atoms: N_21  and  C_22
REMARK    7  A    between atoms: C_22  and  C_23
REMARK    8  A    between atoms: C_23  and  C_24
REMARK                            x       y       z     vdW  Elec       q    Type
REMARK                         _______ _______ _______ _____ _____    ______ ____
ROOT
ATOM      1  C   UNL     1       2.193   6.431  19.834  0.00  0.00    +0.000 A 
ATOM      2  N   UNL     1       1.580   6.936  20.877  0.00  0.00    +0.000 NA
ATOM      3  N   UNL     1       1.325   8.252  20.617  0.00  0.00    +0.000 NA
ATOM      4  C   UNL     1       1.754   8.529  19.396  0.00  0.00    +0.000 A 
ATOM      5  N   UNL     1       2.405   7.415  18.897  0.00  0.00    +0.000 N 
ENDROOT
BRANCH   1   6
ATOM      6  S   UNL     1       2.649   4.768  19.670  0.00  0.00    +0.000 S 
BRANCH   6   7
ATOM      7  C   UNL     1       1.519   4.243  18.338  0.00  0.00    +0.000 C 
BRANCH   7   9
ATOM      8  N   UNL     1       2.342   1.966  17.985  0.00  0.00    +0.000 N 
ATOM      9  C   UNL     1       1.304   2.740  18.413  0.00  0.00    +0.000 C 
ATOM     10  O   UNL     1       0.270   2.220  18.829  0.00  0.00    +0.000 OA
ATOM     11  H   UNL     1       2.211   0.966  17.989  0.00  0.00    +0.000 HD
ATOM     12  H   UNL     1       3.172   2.342  17.547  0.00  0.00    +0.000 HD
ENDBRANCH   7   9
ENDBRANCH   6   7
ENDBRANCH   1   6
BRANCH   4  13
ATOM     13  C   UNL     1       1.497   9.836  18.706  0.00  0.00    +0.000 C 
BRANCH  13  14
ATOM     14  N   UNL     1       0.311  10.520  19.184  0.00  0.00    +0.000 N 
ATOM     15  C   UNL     1       0.377  11.356  20.290  0.00  0.00    +0.000 A 
ATOM     16  O   UNL     1       1.354  11.571  20.988  0.00  0.00    +0.000 OA
ATOM     17  S   UNL     1      -1.182  12.156  20.541  0.00  0.00    +0.000 S 
ATOM     18  C   UNL     1      -1.859  11.380  19.105  0.00  0.00    +0.000 A 
ATOM     19  C   UNL     1      -3.074  11.646  18.494  0.00  0.00    +0.000 A 
ATOM     20  C   UNL     1      -3.392  10.957  17.323  0.00  0.00    +0.000 A 
ATOM     21  C   UNL     1      -2.535   9.965  16.830  0.00  0.00    +0.000 A 
ATOM     22  C   UNL     1      -1.320   9.696  17.463  0.00  0.00    +0.000 A 
ATOM     23  C   UNL     1      -0.956  10.467  18.558  0.00  0.00    +0.000 A 
ENDBRANCH  13  14
ENDBRANCH   4  13
BRANCH   5  24
ATOM     24  C   UNL     1       3.089   7.295  17.623  0.00  0.00    +0.000 C 
BRANCH  24  25
ATOM     25  C   UNL     1       4.594   7.032  17.750  0.00  0.00    +0.000 C 
BRANCH  25  26
ATOM     26  C   UNL     1       5.068   5.953  16.802  0.00  0.00    +0.000 A 
ATOM     27  C   UNL     1       5.351   6.256  15.462  0.00  0.00    +0.000 A 
ATOM     28  C   UNL     1       5.747   5.252  14.575  0.00  0.00    +0.000 A 
ATOM     29  C   UNL     1       5.868   3.937  15.018  0.00  0.00    +0.000 A 
ATOM     30  C   UNL     1       5.616   3.629  16.354  0.00  0.00    +0.000 A 
ATOM     31  C   UNL     1       5.226   4.633  17.243  0.00  0.00    +0.000 A 
ENDBRANCH  25  26
ENDBRANCH  24  25
ENDBRANCH   5  24
TORSDOF 8
ENDMDL
MODEL 4
REMARK VINA RESULT:      -7.4      2.487      3.331
REMARK  Name = 
REMARK  8 active torsions:
REMARK  status: ('A' for Active; 'I' for Inactive)
REMARK    1  A    between atoms: C_2  and  C_4
REMARK    2  A    between atoms: C_4  and  S_5
REMARK    3  A    between atoms: S_5  and  C_6
REMARK    4  A    between atoms: C_9  and  C_10
REMARK    5  A    between atoms: C_10  and  N_11
REMARK    6  A    between atoms: N_21  and  C_22
REMARK    7  A    between atoms: C_22  and  C_23
REMARK    8  A    between atoms: C_23  and  C_24
REMARK                            x       y       z     vdW  Elec       q    Type
REMARK                         _______ _______ _______ _____ _____    ______ ____
ROOT
ATOM      1  C   UNL     1       1.483   4.296  19.417  0.00  0.00    +0.000 A 
ATOM      2  N   UNL     1       0.977   4.650  20.573  0.00  0.00    +0.000 NA
ATOM      3  N   UNL     1       1.430   5.906  20.861  0.00  0.00    +0.000 NA
ATOM      4  C   UNL     1       2.183   6.321  19.855  0.00  0.00    +0.000 A 
ATOM      5  N   UNL     1       2.323   5.281  18.953  0.00  0.00    +0.000 N 
ENDROOT
BRANCH   1   6
ATOM      6  S   UNL     1       1.128   2.809  18.601  0.00  0.00    +0.000 S 
BRANCH   6   7
ATOM      7  C   UNL     1       2.272   1.677  19.459  0.00  0.00    +0.000 C 
BRANCH   7   9
ATOM      8  N   UNL     1       4.684   2.009  19.705  0.00  0.00    +0.000 N 
ATOM      9  C   UNL     1       3.657   1.782  18.838  0.00  0.00    +0.000 C 
ATOM     10  O   UNL     1       3.871   1.673  17.632  0.00  0.00    +0.000 OA
ATOM     11  H   UNL     1       5.607   2.119  19.314  0.00  0.00    +0.000 HD
ATOM     12  H   UNL     1       4.550   2.200  20.688  0.00  0.00    +0.000 HD
ENDBRANCH   7   9
ENDBRANCH   6   7
ENDBRANCH   1   6
BRANCH   4  13
ATOM     13  C   UNL     1       2.721   7.718  19.746  0.00  0.00    +0.000 C 
BRANCH  13  14
ATOM     14  N   UNL     1       1.686   8.733  19.677  0.00  0.00    +0.000 N 
ATOM     15  C   UNL     1       1.221   9.182  18.449  0.00  0.00    +0.000 A 
ATOM     16  O   UNL     1       1.624   8.850  17.347  0.00  0.00    +0.000 OA
ATOM     17  S   UNL     1      -0.131  10.300  18.684  0.00  0.00    +0.000 S 
ATOM     18  C   UNL     1      -0.064  10.079  20.436  0.00  0.00    +0.000 A 
ATOM     19  C   UNL     1      -0.975  10.527  21.379  0.00  0.00    +0.000 A 
ATOM     20  C   UNL     1      -0.765  10.187  22.716  0.00  0.00    +0.000 A 
ATOM     21  C   UNL     1       0.383   9.481  23.097  0.00  0.00    +0.000 A 
ATOM     22  C   UNL     1       1.300   9.047  22.137  0.00  0.00    +0.000 A 
ATOM     23  C   UNL     1       1.025   9.285  20.797  0.00  0.00    +0.000 A 
ENDBRANCH  13  14
ENDBRANCH   4  13
BRANCH   5  24
ATOM     24  C   UNL     1       3.119   5.273  17.741  0.00  0.00    +0.000 C 
BRANCH  24  25
ATOM     25  C   UNL     1       4.631   5.220  17.993  0.00  0.00    +0.000 C 
BRANCH  25  26
ATOM     26  C   UNL     1       5.414   4.957  16.727  0.00  0.00    +0.000 A 
ATOM     27  C   UNL     1       6.789   5.232  16.669  0.00  0.00    +0.000 A 
ATOM     28  C   UNL     1       7.504   5.030  15.486  0.00  0.00    +0.000 A 
ATOM     29  C   UNL     1       6.856   4.548  14.352  0.00  0.00    +0.000 A 
ATOM     30  C   UNL     1       5.496   4.247  14.405  0.00  0.00    +0.000 A 
ATOM     31  C   UNL     1       4.781   4.442  15.589  0.00  0.00    +0.000 A 
ENDBRANCH  25  26
ENDBRANCH  24  25
ENDBRANCH   5  24
TORSDOF 8
ENDMDL
MODEL 5
REMARK VINA RESULT:      -7.4      2.487      3.472
REMARK  Name = 
REMARK  8 active torsions:
REMARK  status: ('A' for Active; 'I' for Inactive)
REMARK    1  A    between atoms: C_2  and  C_4
REMARK    2  A    between atoms: C_4  and  S_5
REMARK    3  A    between atoms: S_5  and  C_6
REMARK    4  A    between atoms: C_9  and  C_10
REMARK    5  A    between atoms: C_10  and  N_11
REMARK    6  A    between atoms: N_21  and  C_22
REMARK    7  A    between atoms: C_22  and  C_23
REMARK    8  A    between atoms: C_23  and  C_24
REMARK                            x       y       z     vdW  Elec       q    Type
REMARK                         _______ _______ _______ _____ _____    ______ ____
ROOT
ATOM      1  C   UNL     1       1.719   4.516  19.234  0.00  0.00    +0.000 A 
ATOM      2  N   UNL     1       1.295   4.741  20.453  0.00  0.00    +0.000 NA
ATOM      3  N   UNL     1       1.668   6.009  20.799  0.00  0.00    +0.000 NA
ATOM      4  C   UNL     1       2.287   6.559  19.767  0.00  0.00    +0.000 A 
ATOM      5  N   UNL     1       2.428   5.602  18.778  0.00  0.00    +0.000 N 
ENDROOT
BRANCH   1   6
ATOM      6  S   UNL     1       1.413   3.065  18.338  0.00  0.00    +0.000 S 
BRANCH   6   7
ATOM      7  C   UNL     1       2.216   1.832  19.416  0.00  0.00    +0.000 C 
BRANCH   7   9
ATOM      8  N   UNL     1       4.119   1.415  17.936  0.00  0.00    +0.000 N 
ATOM      9  C   UNL     1       3.716   1.836  19.169  0.00  0.00    +0.000 C 
ATOM     10  O   UNL     1       4.543   2.191  20.006  0.00  0.00    +0.000 OA
ATOM     11  H   UNL     1       5.110   1.373  17.759  0.00  0.00    +0.000 HD
ATOM     12  H   UNL     1       3.488   1.024  17.249  0.00  0.00    +0.000 HD
ENDBRANCH   7   9
ENDBRANCH   6   7
ENDBRANCH   1   6
BRANCH   4  13
ATOM     13  C   UNL     1       2.695   8.003  19.722  0.00  0.00    +0.000 C 
BRANCH  13  14
ATOM     14  N   UNL     1       1.574   8.922  19.747  0.00  0.00    +0.000 N 
ATOM     15  C   UNL     1       0.993   9.357  18.565  0.00  0.00    +0.000 A 
ATOM     16  O   UNL     1       1.351   9.088  17.431  0.00  0.00    +0.000 OA
ATOM     17  S   UNL     1      -0.434  10.344  18.917  0.00  0.00    +0.000 S 
ATOM     18  C   UNL     1      -0.235  10.090  20.654  0.00  0.00    +0.000 A 
ATOM     19  C   UNL     1      -1.118  10.432  21.665  0.00  0.00    +0.000 A 
ATOM     20  C   UNL     1      -0.792  10.082  22.976  0.00  0.00    +0.000 A 
ATOM     21  C   UNL     1       0.435   9.471  23.263  0.00  0.00    +0.000 A 
ATOM     22  C   UNL     1       1.323   9.143  22.235  0.00  0.00    +0.000 A 
ATOM     23  C   UNL     1       0.941   9.388  20.923  0.00  0.00    +0.000 A 
ENDBRANCH  13  14
ENDBRANCH   4  13
BRANCH   5  24
ATOM     24  C   UNL     1       3.106   5.751  17.504  0.00  0.00    +0.000 C 
BRANCH  24  25
ATOM     25  C   UNL     1       4.317   4.825  17.336  0.00  0.00    +0.000 C 
BRANCH  25  26
ATOM     26  C   UNL     1       5.607   5.487  17.762  0.00  0.00    +0.000 A 
ATOM     27  C   UNL     1       6.238   5.115  18.959  0.00  0.00    +0.000 A 
ATOM     28  C   UNL     1       7.407   5.757  19.375  0.00  0.00    +0.000 A 
ATOM     29  C   UNL     1       7.959   6.773  18.600  0.00  0.00    +0.000 A 
ATOM     30  C   UNL     1       7.356   7.133  17.396  0.00  0.00    +0.000 A 
ATOM     31  C   UNL     1       6.191   6.488  16.975  0.00  0.00    +0.000 A 
ENDBRANCH  25  26
ENDBRANCH  24  25
ENDBRANCH   5  24
TORSDOF 8
ENDMDL
MODEL 6
REMARK VINA RESULT:      -7.3      1.126      1.204
REMARK  Name = 
REMARK  8 active torsions:
REMARK  status: ('A' for Active; 'I' for Inactive)
REMARK    1  A    between atoms: C_2  and  C_4
REMARK    2  A    between atoms: C_4  and  S_5
REMARK    3  A    between atoms: S_5  and  C_6
REMARK    4  A    between atoms: C_9  and  C_10
REMARK    5  A    between atoms: C_10  and  N_11
REMARK    6  A    between atoms: N_21  and  C_22
REMARK    7  A    between atoms: C_22  and  C_23
REMARK    8  A    between atoms: C_23  and  C_24
REMARK                            x       y       z     vdW  Elec       q    Type
REMARK                         _______ _______ _______ _____ _____    ______ ____
ROOT
ATOM      1  C   UNL     1       2.225   6.756  19.913  0.00  0.00    +0.000 A 
ATOM      2  N   UNL     1       1.550   7.415  20.824  0.00  0.00    +0.000 NA
ATOM      3  N   UNL     1       1.263   8.652  20.319  0.00  0.00    +0.000 NA
ATOM      4  C   UNL     1       1.736   8.721  19.085  0.00  0.00    +0.000 A 
ATOM      5  N   UNL     1       2.446   7.563  18.822  0.00  0.00    +0.000 N 
ENDROOT
BRANCH   1   6
ATOM      6  S   UNL     1       2.743   5.111  20.071  0.00  0.00    +0.000 S 
BRANCH   6   7
ATOM      7  C   UNL     1       1.628   4.295  18.880  0.00  0.00    +0.000 C 
BRANCH   7   9
ATOM      8  N   UNL     1       2.994   3.535  16.998  0.00  0.00    +0.000 N 
ATOM      9  C   UNL     1       2.374   3.183  18.160  0.00  0.00    +0.000 C 
ATOM     10  O   UNL     1       2.435   2.027  18.573  0.00  0.00    +0.000 OA
ATOM     11  H   UNL     1       3.465   2.808  16.482  0.00  0.00    +0.000 HD
ATOM     12  H   UNL     1       2.895   4.445  16.569  0.00  0.00    +0.000 HD
ENDBRANCH   7   9
ENDBRANCH   6   7
ENDBRANCH   1   6
BRANCH   4  13
ATOM     13  C   UNL     1       1.466   9.871  18.160  0.00  0.00    +0.000 C 
BRANCH  13  14
ATOM     14  N   UNL     1       0.403  10.745  18.617  0.00  0.00    +0.000 N 
ATOM     15  C   UNL     1       0.686  11.837  19.425  0.00  0.00    +0.000 A 
ATOM     16  O   UNL     1       1.775  12.156  19.869  0.00  0.00    +0.000 OA
ATOM     17  S   UNL     1      -0.782  12.790  19.693  0.00  0.00    +0.000 S 
ATOM     18  C   UNL     1      -1.723  11.712  18.655  0.00  0.00    +0.000 A 
ATOM     19  C   UNL     1      -3.018  11.898  18.199  0.00  0.00    +0.000 A 
ATOM     20  C   UNL     1      -3.556  10.947  17.330  0.00  0.00    +0.000 A 
ATOM     21  C   UNL     1      -2.828   9.798  16.997  0.00  0.00    +0.000 A 
ATOM     22  C   UNL     1      -1.528   9.618  17.475  0.00  0.00    +0.000 A 
ATOM     23  C   UNL     1      -0.955  10.622  18.242  0.00  0.00    +0.000 A 
ENDBRANCH  13  14
ENDBRANCH   4  13
BRANCH   5  24
ATOM     24  C   UNL     1       3.188   7.244  17.617  0.00  0.00    +0.000 C 
BRANCH  24  25
ATOM     25  C   UNL     1       4.709   7.372  17.774  0.00  0.00    +0.000 C 
BRANCH  25  26
ATOM     26  C   UNL     1       5.456   6.325  16.981  0.00  0.00    +0.000 A 
ATOM     27  C   UNL     1       6.465   5.559  17.585  0.00  0.00    +0.000 A 
ATOM     28  C   UNL     1       7.187   4.622  16.841  0.00  0.00    +0.000 A 
ATOM     29  C   UNL     1       6.907   4.438  15.490  0.00  0.00    +0.000 A 
ATOM     30  C   UNL     1       5.889   5.174  14.886  0.00  0.00    +0.000 A 
ATOM     31  C   UNL     1       5.163   6.107  15.629  0.00  0.00    +0.000 A 
ENDBRANCH  25  26
ENDBRANCH  24  25
ENDBRANCH   5  24
TORSDOF 8
ENDMDL
MODEL 7
REMARK VINA RESULT:      -7.1      2.578      8.718
REMARK  Name = 
REMARK  8 active torsions:
REMARK  status: ('A' for Active; 'I' for Inactive)
REMARK    1  A    between atoms: C_2  and  C_4
REMARK    2  A    between atoms: C_4  and  S_5
REMARK    3  A    between atoms: S_5  and  C_6
REMARK    4  A    between atoms: C_9  and  C_10
REMARK    5  A    between atoms: C_10  and  N_11
REMARK    6  A    between atoms: N_21  and  C_22
REMARK    7  A    between atoms: C_22  and  C_23
REMARK    8  A    between atoms: C_23  and  C_24
REMARK                            x       y       z     vdW  Elec       q    Type
REMARK                         _______ _______ _______ _____ _____    ______ ____
ROOT
ATOM      1  C   UNL     1       1.405   9.326  18.450  0.00  0.00    +0.000 A 
ATOM      2  N   UNL     1       2.280   9.060  17.511  0.00  0.00    +0.000 NA
ATOM      3  N   UNL     1       2.953   7.928  17.874  0.00  0.00    +0.000 NA
ATOM      4  C   UNL     1       2.453   7.492  19.020  0.00  0.00    +0.000 A 
ATOM      5  N   UNL     1       1.526   8.414  19.472  0.00  0.00    +0.000 N 
ENDROOT
BRANCH   1   6
ATOM      6  S   UNL     1       0.264  10.628  18.392  0.00  0.00    +0.000 S 
BRANCH   6   7
ATOM      7  C   UNL     1      -1.160   9.788  17.620  0.00  0.00    +0.000 C 
BRANCH   7   9
ATOM      8  N   UNL     1      -1.754  12.123  17.193  0.00  0.00    +0.000 N 
ATOM      9  C   UNL     1      -2.162  10.823  17.133  0.00  0.00    +0.000 C 
ATOM     10  O   UNL     1      -3.278  10.540  16.703  0.00  0.00    +0.000 OA
ATOM     11  H   UNL     1      -2.413  12.832  16.910  0.00  0.00    +0.000 HD
ATOM     12  H   UNL     1      -0.888  12.414  17.624  0.00  0.00    +0.000 HD
ENDBRANCH   7   9
ENDBRANCH   6   7
ENDBRANCH   1   6
BRANCH   4  13
ATOM     13  C   UNL     1       2.835   6.181  19.643  0.00  0.00    +0.000 C 
BRANCH  13  14
ATOM     14  N   UNL     1       3.455   5.257  18.713  0.00  0.00    +0.000 N 
ATOM     15  C   UNL     1       2.677   4.505  17.843  0.00  0.00    +0.000 A 
ATOM     16  O   UNL     1       1.460   4.481  17.783  0.00  0.00    +0.000 OA
ATOM     17  S   UNL     1       3.715   3.589  16.739  0.00  0.00    +0.000 S 
ATOM     18  C   UNL     1       5.170   4.298  17.451  0.00  0.00    +0.000 A 
ATOM     19  C   UNL     1       6.471   4.197  16.987  0.00  0.00    +0.000 A 
ATOM     20  C   UNL     1       7.472   4.891  17.668  0.00  0.00    +0.000 A 
ATOM     21  C   UNL     1       7.172   5.603  18.837  0.00  0.00    +0.000 A 
ATOM     22  C   UNL     1       5.857   5.686  19.300  0.00  0.00    +0.000 A 
ATOM     23  C   UNL     1       4.850   5.091  18.553  0.00  0.00    +0.000 A 
ENDBRANCH  13  14
ENDBRANCH   4  13
BRANCH   5  24
ATOM     24  C   UNL     1       0.785   8.373  20.719  0.00  0.00    +0.000 C 
BRANCH  24  25
ATOM     25  C   UNL     1       1.322   9.331  21.790  0.00  0.00    +0.000 C 
BRANCH  25  26
ATOM     26  C   UNL     1       0.334  10.424  22.127  0.00  0.00    +0.000 A 
ATOM     27  C   UNL     1      -0.736  10.173  23.000  0.00  0.00    +0.000 A 
ATOM     28  C   UNL     1      -1.674  11.170  23.278  0.00  0.00    +0.000 A 
ATOM     29  C   UNL     1      -1.552  12.427  22.691  0.00  0.00    +0.000 A 
ATOM     30  C   UNL     1      -0.479  12.695  21.844  0.00  0.00    +0.000 A 
ATOM     31  C   UNL     1       0.463  11.702  21.570  0.00  0.00    +0.000 A 
ENDBRANCH  25  26
ENDBRANCH  24  25
ENDBRANCH   5  24
TORSDOF 8
ENDMDL
MODEL 8
REMARK VINA RESULT:      -7.1      2.960      4.546
REMARK  Name = 
REMARK  8 active torsions:
REMARK  status: ('A' for Active; 'I' for Inactive)
REMARK    1  A    between atoms: C_2  and  C_4
REMARK    2  A    between atoms: C_4  and  S_5
REMARK    3  A    between atoms: S_5  and  C_6
REMARK    4  A    between atoms: C_9  and  C_10
REMARK    5  A    between atoms: C_10  and  N_11
REMARK    6  A    between atoms: N_21  and  C_22
REMARK    7  A    between atoms: C_22  and  C_23
REMARK    8  A    between atoms: C_23  and  C_24
REMARK                            x       y       z     vdW  Elec       q    Type
REMARK                         _______ _______ _______ _____ _____    ______ ____
ROOT
ATOM      1  C   UNL     1       4.212   6.465  18.464  0.00  0.00    +0.000 A 
ATOM      2  N   UNL     1       4.358   7.094  17.324  0.00  0.00    +0.000 NA
ATOM      3  N   UNL     1       3.205   7.785  17.076  0.00  0.00    +0.000 NA
ATOM      4  C   UNL     1       2.378   7.597  18.092  0.00  0.00    +0.000 A 
ATOM      5  N   UNL     1       2.947   6.679  18.957  0.00  0.00    +0.000 N 
ENDROOT
BRANCH   1   6
ATOM      6  S   UNL     1       5.445   5.518  19.230  0.00  0.00    +0.000 S 
BRANCH   6   7
ATOM      7  C   UNL     1       6.890   5.967  18.211  0.00  0.00    +0.000 C 
BRANCH   7   9
ATOM      8  N   UNL     1       6.287   4.581  16.286  0.00  0.00    +0.000 N 
ATOM      9  C   UNL     1       7.214   4.829  17.255  0.00  0.00    +0.000 C 
ATOM     10  O   UNL     1       8.240   4.155  17.323  0.00  0.00    +0.000 OA
ATOM     11  H   UNL     1       6.460   3.808  15.662  0.00  0.00    +0.000 HD
ATOM     12  H   UNL     1       5.388   5.042  16.246  0.00  0.00    +0.000 HD
ENDBRANCH   7   9
ENDBRANCH   6   7
ENDBRANCH   1   6
BRANCH   4  13
ATOM     13  C   UNL     1       1.079   8.332  18.246  0.00  0.00    +0.000 C 
BRANCH  13  14
ATOM     14  N   UNL     1       1.180   9.521  19.070  0.00  0.00    +0.000 N 
ATOM     15  C   UNL     1       1.717  10.692  18.554  0.00  0.00    +0.000 A 
ATOM     16  O   UNL     1       2.188  10.853  17.441  0.00  0.00    +0.000 OA
ATOM     17  S   UNL     1       1.572  12.000  19.738  0.00  0.00    +0.000 S 
ATOM     18  C   UNL     1       0.735  10.936  20.874  0.00  0.00    +0.000 A 
ATOM     19  C   UNL     1       0.104  11.291  22.055  0.00  0.00    +0.000 A 
ATOM     20  C   UNL     1      -0.556  10.296  22.778  0.00  0.00    +0.000 A 
ATOM     21  C   UNL     1      -0.508   8.962  22.355  0.00  0.00    +0.000 A 
ATOM     22  C   UNL     1       0.144   8.616  21.169  0.00  0.00    +0.000 A 
ATOM     23  C   UNL     1       0.697   9.626  20.394  0.00  0.00    +0.000 A 
ENDBRANCH  13  14
ENDBRANCH   4  13
BRANCH   5  24
ATOM     24  C   UNL     1       2.359   6.131  20.165  0.00  0.00    +0.000 C 
BRANCH  24  25
ATOM     25  C   UNL     1       1.413   4.950  19.912  0.00  0.00    +0.000 C 
BRANCH  25  26
ATOM     26  C   UNL     1       2.131   3.758  19.322  0.00  0.00    +0.000 A 
ATOM     27  C   UNL     1       3.036   3.016  20.096  0.00  0.00    +0.000 A 
ATOM     28  C   UNL     1       3.733   1.941  19.538  0.00  0.00    +0.000 A 
ATOM     29  C   UNL     1       3.530   1.594  18.205  0.00  0.00    +0.000 A 
ATOM     30  C   UNL     1       2.613   2.307  17.434  0.00  0.00    +0.000 A 
ATOM     31  C   UNL     1       1.912   3.378  17.992  0.00  0.00    +0.000 A 
ENDBRANCH  25  26
ENDBRANCH  24  25
ENDBRANCH   5  24
TORSDOF 8
ENDMDL
MODEL 9
REMARK VINA RESULT:      -7.1      1.248      1.381
REMARK  Name = 
REMARK  8 active torsions:
REMARK  status: ('A' for Active; 'I' for Inactive)
REMARK    1  A    between atoms: C_2  and  C_4
REMARK    2  A    between atoms: C_4  and  S_5
REMARK    3  A    between atoms: S_5  and  C_6
REMARK    4  A    between atoms: C_9  and  C_10
REMARK    5  A    between atoms: C_10  and  N_11
REMARK    6  A    between atoms: N_21  and  C_22
REMARK    7  A    between atoms: C_22  and  C_23
REMARK    8  A    between atoms: C_23  and  C_24
REMARK                            x       y       z     vdW  Elec       q    Type
REMARK                         _______ _______ _______ _____ _____    ______ ____
ROOT
ATOM      1  C   UNL     1       2.010   6.190  20.398  0.00  0.00    +0.000 A 
ATOM      2  N   UNL     1       1.124   6.673  21.235  0.00  0.00    +0.000 NA
ATOM      3  N   UNL     1       0.904   7.980  20.903  0.00  0.00    +0.000 NA
ATOM      4  C   UNL     1       1.634   8.271  19.838  0.00  0.00    +0.000 A 
ATOM      5  N   UNL     1       2.431   7.180  19.542  0.00  0.00    +0.000 N 
ENDROOT
BRANCH   1   6
ATOM      6  S   UNL     1       2.548   4.544  20.377  0.00  0.00    +0.000 S 
BRANCH   6   7
ATOM      7  C   UNL     1       0.970   3.681  20.074  0.00  0.00    +0.000 C 
BRANCH   7   9
ATOM      8  N   UNL     1       2.456   2.262  18.745  0.00  0.00    +0.000 N 
ATOM      9  C   UNL     1       1.165   2.618  19.004  0.00  0.00    +0.000 C 
ATOM     10  O   UNL     1       0.239   2.090  18.392  0.00  0.00    +0.000 OA
ATOM     11  H   UNL     1       2.615   1.586  18.014  0.00  0.00    +0.000 HD
ATOM     12  H   UNL     1       3.254   2.732  19.150  0.00  0.00    +0.000 HD
ENDBRANCH   7   9
ENDBRANCH   6   7
ENDBRANCH   1   6
BRANCH   4  13
ATOM     13  C   UNL     1       1.527   9.568  19.092  0.00  0.00    +0.000 C 
BRANCH  13  14
ATOM     14  N   UNL     1       0.350  10.342  19.441  0.00  0.00    +0.000 N 
ATOM     15  C   UNL     1       0.358  11.173  20.553  0.00  0.00    +0.000 A 
ATOM     16  O   UNL     1       1.265  11.314  21.355  0.00  0.00    +0.000 OA
ATOM     17  S   UNL     1      -1.154  12.090  20.635  0.00  0.00    +0.000 S 
ATOM     18  C   UNL     1      -1.726  11.364  19.129  0.00  0.00    +0.000 A 
ATOM     19  C   UNL     1      -2.842  11.721  18.390  0.00  0.00    +0.000 A 
ATOM     20  C   UNL     1      -3.081  11.055  17.187  0.00  0.00    +0.000 A 
ATOM     21  C   UNL     1      -2.253  10.000  16.785  0.00  0.00    +0.000 A 
ATOM     22  C   UNL     1      -1.139   9.641  17.546  0.00  0.00    +0.000 A 
ATOM     23  C   UNL     1      -0.840  10.384  18.680  0.00  0.00    +0.000 A 
ENDBRANCH  13  14
ENDBRANCH   4  13
BRANCH   5  24
ATOM     24  C   UNL     1       3.434   7.084  18.497  0.00  0.00    +0.000 C 
BRANCH  24  25
ATOM     25  C   UNL     1       3.217   5.909  17.536  0.00  0.00    +0.000 C 
BRANCH  25  26
ATOM     26  C   UNL     1       4.506   5.444  16.899  0.00  0.00    +0.000 A 
ATOM     27  C   UNL     1       4.628   4.135  16.410  0.00  0.00    +0.000 A 
ATOM     28  C   UNL     1       5.834   3.691  15.861  0.00  0.00    +0.000 A 
ATOM     29  C   UNL     1       6.927   4.551  15.791  0.00  0.00    +0.000 A 
ATOM     30  C   UNL     1       6.809   5.862  16.249  0.00  0.00    +0.000 A 
ATOM     31  C   UNL     1       5.603   6.309  16.792  0.00  0.00    +0.000 A 
ENDBRANCH  25  26
ENDBRANCH  24  25
ENDBRANCH   5  24
TORSDOF 8
ENDMDL
