MODEL 1
REMARK VINA RESULT:      -8.6      0.000      0.000
REMARK  Name = 
REMARK  4 active torsions:
REMARK  status: ('A' for Active; 'I' for Inactive)
REMARK    1  A    between atoms: C_2  and  C_3
REMARK    2  A    between atoms: N_5  and  C_6
REMARK    3  A    between atoms: C_9  and  C_10
REMARK    4  A    between atoms: C_16  and  N_17
REMARK                            x       y       z     vdW  Elec       q    Type
REMARK                         _______ _______ _______ _____ _____    ______ ____
ROOT
ATOM      1  C   UNL     1       5.883   5.059  17.525  0.00  0.00    +0.000 C 
ATOM      2  O   UNL     1       6.271   4.373  16.578  0.00  0.00    +0.000 OA
ATOM      3  N   UNL     1       4.668   4.806  18.166  0.00  0.00    +0.000 N 
ATOM      4  C   UNL     1       4.009   3.529  17.893  0.00  0.00    +0.000 C 
ATOM      5  C   UNL     1       2.518   3.716  17.646  0.00  0.00    +0.000 C 
ATOM      6  C   UNL     1       1.852   4.492  18.783  0.00  0.00    +0.000 C 
ATOM      7  C   UNL     1       2.543   5.847  19.054  0.00  0.00    +0.000 C 
ATOM      8  C   UNL     1       4.057   5.619  19.222  0.00  0.00    +0.000 C 
ENDROOT
BRANCH   7   9
ATOM      9  N   UNL     1       1.954   6.436  20.247  0.00  0.00    +0.000 N 
ATOM     10  C   UNL     1       1.445   7.699  20.404  0.00  0.00    +0.000 A 
ATOM     11  N   UNL     1       0.996   7.947  21.639  0.00  0.00    +0.000 NA
ATOM     12  C   UNL     1       0.620   9.209  21.915  0.00  0.00    +0.000 A 
ATOM     13  C   UNL     1       0.660  10.245  21.000  0.00  0.00    +0.000 A 
ATOM     14  C   UNL     1       0.333  11.576  21.335  0.00  0.00    +0.000 A 
ATOM     15  C   UNL     1       0.379  12.562  20.357  0.00  0.00    +0.000 A 
ATOM     16  C   UNL     1       0.718  12.198  19.063  0.00  0.00    +0.000 A 
ATOM     17  F   UNL     1       0.737  13.136  18.107  0.00  0.00    +0.000 F 
ATOM     18  C   UNL     1       1.050  10.879  18.741  0.00  0.00    +0.000 A 
ATOM     19  C   UNL     1       1.060   9.877  19.715  0.00  0.00    +0.000 A 
ATOM     20  N   UNL     1       1.460   8.615  19.425  0.00  0.00    +0.000 NA
ATOM     21  H   UNL     1       1.713   5.845  21.032  0.00  0.00    +0.000 HD
ENDBRANCH   7   9
BRANCH   1  25
ATOM     22  C   UNL     1       8.478   8.353  18.558  0.00  0.00    +0.000 A 
ATOM     23  C   UNL     1       7.547   8.446  17.522  0.00  0.00    +0.000 A 
ATOM     24  C   UNL     1       6.700   7.375  17.222  0.00  0.00    +0.000 A 
ATOM     25  C   UNL     1       6.779   6.178  17.944  0.00  0.00    +0.000 A 
ATOM     26  C   UNL     1       7.759   6.062  18.934  0.00  0.00    +0.000 A 
ATOM     27  C   UNL     1       8.578   7.151  19.263  0.00  0.00    +0.000 A 
BRANCH  22  30
ATOM     28  C   UNL     1       9.274  10.705  18.480  0.00  0.00    +0.000 C 
ATOM     29  O   UNL     1       8.385  11.198  17.794  0.00  0.00    +0.000 OA
ATOM     30  N   UNL     1       9.358   9.398  18.911  0.00  0.00    +0.000 N 
ATOM     31  H   UNL     1      10.088   9.164  19.569  0.00  0.00    +0.000 HD
BRANCH  28  33
ATOM     32  C   UNL     1      10.616  11.667  20.279  0.00  0.00    +0.000 C 
ATOM     33  C   UNL     1      10.409  11.542  18.961  0.00  0.00    +0.000 C 
ENDBRANCH  28  33
ENDBRANCH  22  30
ENDBRANCH   1  25
TORSDOF 4
ENDMDL
MODEL 2
REMARK VINA RESULT:      -8.5      1.230      1.582
REMARK  Name = 
REMARK  4 active torsions:
REMARK  status: ('A' for Active; 'I' for Inactive)
REMARK    1  A    between atoms: C_2  and  C_3
REMARK    2  A    between atoms: N_5  and  C_6
REMARK    3  A    between atoms: C_9  and  C_10
REMARK    4  A    between atoms: C_16  and  N_17
REMARK                            x       y       z     vdW  Elec       q    Type
REMARK                         _______ _______ _______ _____ _____    ______ ____
ROOT
ATOM      1  C   UNL     1       4.903   4.665  18.078  0.00  0.00    +0.000 C 
ATOM      2  O   UNL     1       5.050   3.701  17.323  0.00  0.00    +0.000 OA
ATOM      3  N   UNL     1       3.909   4.684  19.058  0.00  0.00    +0.000 N 
ATOM      4  C   UNL     1       3.241   3.421  19.374  0.00  0.00    +0.000 C 
ATOM      5  C   UNL     1       1.733   3.602  19.478  0.00  0.00    +0.000 C 
ATOM      6  C   UNL     1       1.365   4.723  20.451  0.00  0.00    +0.000 C 
ATOM      7  C   UNL     1       2.060   6.057  20.099  0.00  0.00    +0.000 C 
ATOM      8  C   UNL     1       3.571   5.813  19.931  0.00  0.00    +0.000 C 
ENDROOT
BRANCH   7   9
ATOM      9  N   UNL     1       1.787   7.015  21.161  0.00  0.00    +0.000 N 
ATOM     10  C   UNL     1       1.144   8.222  21.068  0.00  0.00    +0.000 A 
ATOM     11  N   UNL     1       1.074   8.883  22.228  0.00  0.00    +0.000 NA
ATOM     12  C   UNL     1       0.594  10.140  22.191  0.00  0.00    +0.000 A 
ATOM     13  C   UNL     1       0.162  10.769  21.037  0.00  0.00    +0.000 A 
ATOM     14  C   UNL     1      -0.265  12.114  21.012  0.00  0.00    +0.000 A 
ATOM     15  C   UNL     1      -0.702  12.674  19.818  0.00  0.00    +0.000 A 
ATOM     16  C   UNL     1      -0.733  11.877  18.683  0.00  0.00    +0.000 A 
ATOM     17  F   UNL     1      -1.178  12.400  17.533  0.00  0.00    +0.000 F 
ATOM     18  C   UNL     1      -0.297  10.549  18.714  0.00  0.00    +0.000 A 
ATOM     19  C   UNL     1       0.192   9.975  19.890  0.00  0.00    +0.000 A 
ATOM     20  N   UNL     1       0.690   8.715  19.906  0.00  0.00    +0.000 NA
ATOM     21  H   UNL     1       1.912   6.741  22.127  0.00  0.00    +0.000 HD
ENDBRANCH   7   9
BRANCH   1  25
ATOM     22  C   UNL     1       7.678   7.951  17.688  0.00  0.00    +0.000 A 
ATOM     23  C   UNL     1       7.958   6.842  18.489  0.00  0.00    +0.000 A 
ATOM     24  C   UNL     1       7.054   5.778  18.580  0.00  0.00    +0.000 A 
ATOM     25  C   UNL     1       5.842   5.810  17.882  0.00  0.00    +0.000 A 
ATOM     26  C   UNL     1       5.533   6.952  17.137  0.00  0.00    +0.000 A 
ATOM     27  C   UNL     1       6.457   7.997  17.012  0.00  0.00    +0.000 A 
BRANCH  22  30
ATOM     28  C   UNL     1       9.009   9.850  18.580  0.00  0.00    +0.000 C 
ATOM     29  O   UNL     1       8.813   9.690  19.780  0.00  0.00    +0.000 OA
ATOM     30  N   UNL     1       8.548   9.053  17.552  0.00  0.00    +0.000 N 
ATOM     31  H   UNL     1       8.887   9.242  16.620  0.00  0.00    +0.000 HD
BRANCH  28  33
ATOM     32  C   UNL     1      10.601  11.660  18.969  0.00  0.00    +0.000 C 
ATOM     33  C   UNL     1       9.840  10.987  18.095  0.00  0.00    +0.000 C 
ENDBRANCH  28  33
ENDBRANCH  22  30
ENDBRANCH   1  25
TORSDOF 4
ENDMDL
MODEL 3
REMARK VINA RESULT:      -8.3      0.893      1.270
REMARK  Name = 
REMARK  4 active torsions:
REMARK  status: ('A' for Active; 'I' for Inactive)
REMARK    1  A    between atoms: C_2  and  C_3
REMARK    2  A    between atoms: N_5  and  C_6
REMARK    3  A    between atoms: C_9  and  C_10
REMARK    4  A    between atoms: C_16  and  N_17
REMARK                            x       y       z     vdW  Elec       q    Type
REMARK                         _______ _______ _______ _____ _____    ______ ____
ROOT
ATOM      1  C   UNL     1       6.649   5.666  17.006  0.00  0.00    +0.000 C 
ATOM      2  O   UNL     1       7.174   5.131  16.028  0.00  0.00    +0.000 OA
ATOM      3  N   UNL     1       5.458   5.184  17.555  0.00  0.00    +0.000 N 
ATOM      4  C   UNL     1       5.008   3.855  17.140  0.00  0.00    +0.000 C 
ATOM      5  C   UNL     1       3.517   3.848  16.827  0.00  0.00    +0.000 C 
ATOM      6  C   UNL     1       2.696   4.414  17.986  0.00  0.00    +0.000 C 
ATOM      7  C   UNL     1       3.166   5.824  18.406  0.00  0.00    +0.000 C 
ATOM      8  C   UNL     1       4.689   5.802  18.639  0.00  0.00    +0.000 C 
ENDROOT
BRANCH   7   9
ATOM      9  N   UNL     1       2.446   6.212  19.610  0.00  0.00    +0.000 N 
ATOM     10  C   UNL     1       1.821   7.403  19.875  0.00  0.00    +0.000 A 
ATOM     11  N   UNL     1       1.266   7.458  21.090  0.00  0.00    +0.000 NA
ATOM     12  C   UNL     1       0.765   8.644  21.484  0.00  0.00    +0.000 A 
ATOM     13  C   UNL     1       0.782   9.787  20.705  0.00  0.00    +0.000 A 
ATOM     14  C   UNL     1       0.320  11.037  21.170  0.00  0.00    +0.000 A 
ATOM     15  C   UNL     1       0.351  12.139  20.324  0.00  0.00    +0.000 A 
ATOM     16  C   UNL     1       0.811  11.967  19.028  0.00  0.00    +0.000 A 
ATOM     17  F   UNL     1       0.819  13.017  18.196  0.00  0.00    +0.000 F 
ATOM     18  C   UNL     1       1.277  10.728  18.579  0.00  0.00    +0.000 A 
ATOM     19  C   UNL     1       1.303   9.615  19.422  0.00  0.00    +0.000 A 
ATOM     20  N   UNL     1       1.828   8.434  19.017  0.00  0.00    +0.000 NA
ATOM     21  H   UNL     1       2.201   5.510  20.296  0.00  0.00    +0.000 HD
ENDBRANCH   7   9
BRANCH   1  25
ATOM     22  C   UNL     1       8.661   9.042  18.797  0.00  0.00    +0.000 A 
ATOM     23  C   UNL     1       8.777   7.753  19.321  0.00  0.00    +0.000 A 
ATOM     24  C   UNL     1       8.136   6.671  18.709  0.00  0.00    +0.000 A 
ATOM     25  C   UNL     1       7.350   6.860  17.566  0.00  0.00    +0.000 A 
ATOM     26  C   UNL     1       7.177   8.162  17.086  0.00  0.00    +0.000 A 
ATOM     27  C   UNL     1       7.854   9.238  17.674  0.00  0.00    +0.000 A 
BRANCH  22  30
ATOM     28  C   UNL     1      10.115  11.054  18.707  0.00  0.00    +0.000 C 
ATOM     29  O   UNL     1      10.384  11.057  17.511  0.00  0.00    +0.000 OA
ATOM     30  N   UNL     1       9.284  10.173  19.366  0.00  0.00    +0.000 N 
ATOM     31  H   UNL     1       9.063  10.365  20.333  0.00  0.00    +0.000 HD
BRANCH  28  33
ATOM     32  C   UNL     1      11.975  12.015  19.965  0.00  0.00    +0.000 C 
ATOM     33  C   UNL     1      10.684  12.092  19.612  0.00  0.00    +0.000 C 
ENDBRANCH  28  33
ENDBRANCH  22  30
ENDBRANCH   1  25
TORSDOF 4
ENDMDL
MODEL 4
REMARK VINA RESULT:      -8.1      1.225      1.395
REMARK  Name = 
REMARK  4 active torsions:
REMARK  status: ('A' for Active; 'I' for Inactive)
REMARK    1  A    between atoms: C_2  and  C_3
REMARK    2  A    between atoms: N_5  and  C_6
REMARK    3  A    between atoms: C_9  and  C_10
REMARK    4  A    between atoms: C_16  and  N_17
REMARK                            x       y       z     vdW  Elec       q    Type
REMARK                         _______ _______ _______ _____ _____    ______ ____
ROOT
ATOM      1  C   UNL     1       4.901   4.316  18.339  0.00  0.00    +0.000 C 
ATOM      2  O   UNL     1       5.172   3.333  17.646  0.00  0.00    +0.000 OA
ATOM      3  N   UNL     1       3.835   4.307  19.241  0.00  0.00    +0.000 N 
ATOM      4  C   UNL     1       3.233   3.014  19.569  0.00  0.00    +0.000 C 
ATOM      5  C   UNL     1       1.713   3.090  19.551  0.00  0.00    +0.000 C 
ATOM      6  C   UNL     1       1.194   4.223  20.437  0.00  0.00    +0.000 C 
ATOM      7  C   UNL     1       1.820   5.587  20.072  0.00  0.00    +0.000 C 
ATOM      8  C   UNL     1       3.353   5.447  20.028  0.00  0.00    +0.000 C 
ENDROOT
BRANCH   7   9
ATOM      9  N   UNL     1       1.400   6.569  21.062  0.00  0.00    +0.000 N 
ATOM     10  C   UNL     1       1.231   7.919  20.896  0.00  0.00    +0.000 A 
ATOM     11  N   UNL     1       0.859   8.554  22.012  0.00  0.00    +0.000 NA
ATOM     12  C   UNL     1       0.819   9.898  21.971  0.00  0.00    +0.000 A 
ATOM     13  C   UNL     1       1.124  10.646  20.848  0.00  0.00    +0.000 A 
ATOM     14  C   UNL     1       1.150  12.057  20.851  0.00  0.00    +0.000 A 
ATOM     15  C   UNL     1       1.448  12.742  19.680  0.00  0.00    +0.000 A 
ATOM     16  C   UNL     1       1.684  12.011  18.526  0.00  0.00    +0.000 A 
ATOM     17  F   UNL     1       1.945  12.663  17.385  0.00  0.00    +0.000 F 
ATOM     18  C   UNL     1       1.668  10.614  18.533  0.00  0.00    +0.000 A 
ATOM     19  C   UNL     1       1.419   9.898  19.707  0.00  0.00    +0.000 A 
ATOM     20  N   UNL     1       1.482   8.545  19.736  0.00  0.00    +0.000 NA
ATOM     21  H   UNL     1       1.014   6.258  21.943  0.00  0.00    +0.000 HD
ENDBRANCH   7   9
BRANCH   1  25
ATOM     22  C   UNL     1       7.348   7.805  17.636  0.00  0.00    +0.000 A 
ATOM     23  C   UNL     1       6.098   7.650  17.036  0.00  0.00    +0.000 A 
ATOM     24  C   UNL     1       5.312   6.523  17.298  0.00  0.00    +0.000 A 
ATOM     25  C   UNL     1       5.771   5.517  18.156  0.00  0.00    +0.000 A 
ATOM     26  C   UNL     1       7.053   5.640  18.700  0.00  0.00    +0.000 A 
ATOM     27  C   UNL     1       7.820   6.789  18.472  0.00  0.00    +0.000 A 
BRANCH  22  30
ATOM     28  C   UNL     1       8.796   9.678  18.392  0.00  0.00    +0.000 C 
ATOM     29  O   UNL     1       8.786   9.468  19.600  0.00  0.00    +0.000 OA
ATOM     30  N   UNL     1       8.186   8.918  17.415  0.00  0.00    +0.000 N 
ATOM     31  H   UNL     1       8.379   9.147  16.450  0.00  0.00    +0.000 HD
BRANCH  28  33
ATOM     32  C   UNL     1      10.131  11.703  18.671  0.00  0.00    +0.000 C 
ATOM     33  C   UNL     1       9.542  10.839  17.833  0.00  0.00    +0.000 C 
ENDBRANCH  28  33
ENDBRANCH  22  30
ENDBRANCH   1  25
TORSDOF 4
ENDMDL
MODEL 5
REMARK VINA RESULT:      -7.9      4.605      7.662
REMARK  Name = 
REMARK  4 active torsions:
REMARK  status: ('A' for Active; 'I' for Inactive)
REMARK    1  A    between atoms: C_2  and  C_3
REMARK    2  A    between atoms: N_5  and  C_6
REMARK    3  A    between atoms: C_9  and  C_10
REMARK    4  A    between atoms: C_16  and  N_17
REMARK                            x       y       z     vdW  Elec       q    Type
REMARK                         _______ _______ _______ _____ _____    ______ ____
ROOT
ATOM      1  C   UNL     1       1.128  13.795  19.170  0.00  0.00    +0.000 C 
ATOM      2  O   UNL     1       0.262  14.515  19.671  0.00  0.00    +0.000 OA
ATOM      3  N   UNL     1       0.831  12.521  18.681  0.00  0.00    +0.000 N 
ATOM      4  C   UNL     1      -0.580  12.176  18.498  0.00  0.00    +0.000 C 
ATOM      5  C   UNL     1      -0.883  10.782  19.031  0.00  0.00    +0.000 C 
ATOM      6  C   UNL     1       0.062   9.735  18.441  0.00  0.00    +0.000 C 
ATOM      7  C   UNL     1       1.548  10.098  18.655  0.00  0.00    +0.000 C 
ATOM      8  C   UNL     1       1.793  11.540  18.171  0.00  0.00    +0.000 C 
ENDROOT
BRANCH   7   9
ATOM      9  N   UNL     1       2.368   9.142  17.924  0.00  0.00    +0.000 N 
ATOM     10  C   UNL     1       2.585   7.819  18.213  0.00  0.00    +0.000 A 
ATOM     11  N   UNL     1       3.415   7.213  17.358  0.00  0.00    +0.000 NA
ATOM     12  C   UNL     1       3.797   5.959  17.657  0.00  0.00    +0.000 A 
ATOM     13  C   UNL     1       3.375   5.268  18.779  0.00  0.00    +0.000 A 
ATOM     14  C   UNL     1       3.850   3.982  19.111  0.00  0.00    +0.000 A 
ATOM     15  C   UNL     1       3.367   3.342  20.245  0.00  0.00    +0.000 A 
ATOM     16  C   UNL     1       2.399   3.981  21.006  0.00  0.00    +0.000 A 
ATOM     17  F   UNL     1       1.906   3.360  22.086  0.00  0.00    +0.000 F 
ATOM     18  C   UNL     1       1.941   5.259  20.676  0.00  0.00    +0.000 A 
ATOM     19  C   UNL     1       2.446   5.946  19.569  0.00  0.00    +0.000 A 
ATOM     20  N   UNL     1       2.064   7.216  19.292  0.00  0.00    +0.000 NA
ATOM     21  H   UNL     1       2.706   9.374  17.000  0.00  0.00    +0.000 HD
ENDBRANCH   7   9
BRANCH   1  25
ATOM     22  C   UNL     1       5.109  15.470  19.207  0.00  0.00    +0.000 A 
ATOM     23  C   UNL     1       4.543  14.891  20.345  0.00  0.00    +0.000 A 
ATOM     24  C   UNL     1       3.261  14.333  20.302  0.00  0.00    +0.000 A 
ATOM     25  C   UNL     1       2.511  14.357  19.121  0.00  0.00    +0.000 A 
ATOM     26  C   UNL     1       3.051  15.000  18.003  0.00  0.00    +0.000 A 
ATOM     27  C   UNL     1       4.351  15.520  18.035  0.00  0.00    +0.000 A 
BRANCH  22  30
ATOM     28  C   UNL     1       6.692  17.373  19.424  0.00  0.00    +0.000 C 
ATOM     29  O   UNL     1       5.909  18.249  19.776  0.00  0.00    +0.000 OA
ATOM     30  N   UNL     1       6.396  16.047  19.185  0.00  0.00    +0.000 N 
ATOM     31  H   UNL     1       7.165  15.414  19.016  0.00  0.00    +0.000 HD
BRANCH  28  33
ATOM     32  C   UNL     1       8.831  17.017  18.301  0.00  0.00    +0.000 C 
ATOM     33  C   UNL     1       8.136  17.682  19.235  0.00  0.00    +0.000 C 
ENDBRANCH  28  33
ENDBRANCH  22  30
ENDBRANCH   1  25
TORSDOF 4
ENDMDL
MODEL 6
REMARK VINA RESULT:      -7.9      5.296      9.713
REMARK  Name = 
REMARK  4 active torsions:
REMARK  status: ('A' for Active; 'I' for Inactive)
REMARK    1  A    between atoms: C_2  and  C_3
REMARK    2  A    between atoms: N_5  and  C_6
REMARK    3  A    between atoms: C_9  and  C_10
REMARK    4  A    between atoms: C_16  and  N_17
REMARK                            x       y       z     vdW  Elec       q    Type
REMARK                         _______ _______ _______ _____ _____    ______ ____
ROOT
ATOM      1  C   UNL     1      -1.508  13.696  23.230  0.00  0.00    +0.000 C 
ATOM      2  O   UNL     1      -1.016  14.074  24.295  0.00  0.00    +0.000 OA
ATOM      3  N   UNL     1      -2.663  14.280  22.707  0.00  0.00    +0.000 N 
ATOM      4  C   UNL     1      -3.108  15.547  23.289  0.00  0.00    +0.000 C 
ATOM      5  C   UNL     1      -4.610  15.545  23.538  0.00  0.00    +0.000 C 
ATOM      6  C   UNL     1      -5.390  15.170  22.278  0.00  0.00    +0.000 C 
ATOM      7  C   UNL     1      -4.927  13.823  21.679  0.00  0.00    +0.000 C 
ATOM      8  C   UNL     1      -3.396  13.841  21.514  0.00  0.00    +0.000 C 
ENDROOT
BRANCH   7   9
ATOM      9  N   UNL     1      -5.601  13.628  20.404  0.00  0.00    +0.000 N 
ATOM     10  C   UNL     1      -5.220  12.825  19.360  0.00  0.00    +0.000 A 
ATOM     11  N   UNL     1      -6.045  12.884  18.309  0.00  0.00    +0.000 NA
ATOM     12  C   UNL     1      -5.661  12.243  17.190  0.00  0.00    +0.000 A 
ATOM     13  C   UNL     1      -4.484  11.526  17.074  0.00  0.00    +0.000 A 
ATOM     14  C   UNL     1      -4.068  10.927  15.866  0.00  0.00    +0.000 A 
ATOM     15  C   UNL     1      -2.881  10.207  15.830  0.00  0.00    +0.000 A 
ATOM     16  C   UNL     1      -2.150  10.071  17.000  0.00  0.00    +0.000 A 
ATOM     17  F   UNL     1      -1.019   9.355  16.982  0.00  0.00    +0.000 F 
ATOM     18  C   UNL     1      -2.564  10.677  18.190  0.00  0.00    +0.000 A 
ATOM     19  C   UNL     1      -3.728  11.448  18.244  0.00  0.00    +0.000 A 
ATOM     20  N   UNL     1      -4.090  12.102  19.374  0.00  0.00    +0.000 NA
ATOM     21  H   UNL     1      -6.546  13.965  20.279  0.00  0.00    +0.000 HD
ENDBRANCH   7   9
BRANCH   1  25
ATOM     22  C   UNL     1       0.535  10.568  21.062  0.00  0.00    +0.000 A 
ATOM     23  C   UNL     1       0.772  11.919  20.802  0.00  0.00    +0.000 A 
ATOM     24  C   UNL     1       0.116  12.915  21.535  0.00  0.00    +0.000 A 
ATOM     25  C   UNL     1      -0.804  12.577  22.534  0.00  0.00    +0.000 A 
ATOM     26  C   UNL     1      -1.092  11.226  22.743  0.00  0.00    +0.000 A 
ATOM     27  C   UNL     1      -0.404  10.229  22.040  0.00  0.00    +0.000 A 
BRANCH  22  30
ATOM     28  C   UNL     1       1.520   9.535  19.029  0.00  0.00    +0.000 C 
ATOM     29  O   UNL     1       1.429  10.482  18.255  0.00  0.00    +0.000 OA
ATOM     30  N   UNL     1       1.165   9.518  20.362  0.00  0.00    +0.000 N 
ATOM     31  H   UNL     1       1.407   8.701  20.904  0.00  0.00    +0.000 HD
BRANCH  28  33
ATOM     32  C   UNL     1       2.262   7.248  19.457  0.00  0.00    +0.000 C 
ATOM     33  C   UNL     1       2.085   8.236  18.569  0.00  0.00    +0.000 C 
ENDBRANCH  28  33
ENDBRANCH  22  30
ENDBRANCH   1  25
TORSDOF 4
ENDMDL
MODEL 7
REMARK VINA RESULT:      -7.9      4.077      7.360
REMARK  Name = 
REMARK  4 active torsions:
REMARK  status: ('A' for Active; 'I' for Inactive)
REMARK    1  A    between atoms: C_2  and  C_3
REMARK    2  A    between atoms: N_5  and  C_6
REMARK    3  A    between atoms: C_9  and  C_10
REMARK    4  A    between atoms: C_16  and  N_17
REMARK                            x       y       z     vdW  Elec       q    Type
REMARK                         _______ _______ _______ _____ _____    ______ ____
ROOT
ATOM      1  C   UNL     1       1.109  13.760  19.156  0.00  0.00    +0.000 C 
ATOM      2  O   UNL     1       0.225  14.475  19.632  0.00  0.00    +0.000 OA
ATOM      3  N   UNL     1       0.832  12.484  18.659  0.00  0.00    +0.000 N 
ATOM      4  C   UNL     1      -0.571  12.131  18.437  0.00  0.00    +0.000 C 
ATOM      5  C   UNL     1      -0.881  10.736  18.962  0.00  0.00    +0.000 C 
ATOM      6  C   UNL     1       0.085   9.694  18.398  0.00  0.00    +0.000 C 
ATOM      7  C   UNL     1       1.563  10.065  18.652  0.00  0.00    +0.000 C 
ATOM      8  C   UNL     1       1.813  11.508  18.176  0.00  0.00    +0.000 C 
ENDROOT
BRANCH   7   9
ATOM      9  N   UNL     1       2.407   9.113  17.945  0.00  0.00    +0.000 N 
ATOM     10  C   UNL     1       2.619   7.790  18.236  0.00  0.00    +0.000 A 
ATOM     11  N   UNL     1       3.476   7.189  17.405  0.00  0.00    +0.000 NA
ATOM     12  C   UNL     1       3.852   5.934  17.712  0.00  0.00    +0.000 A 
ATOM     13  C   UNL     1       3.395   5.239  18.817  0.00  0.00    +0.000 A 
ATOM     14  C   UNL     1       3.863   3.952  19.160  0.00  0.00    +0.000 A 
ATOM     15  C   UNL     1       3.345   3.307  20.275  0.00  0.00    +0.000 A 
ATOM     16  C   UNL     1       2.353   3.941  21.007  0.00  0.00    +0.000 A 
ATOM     17  F   UNL     1       1.827   3.316  22.069  0.00  0.00    +0.000 F 
ATOM     18  C   UNL     1       1.902   5.220  20.668  0.00  0.00    +0.000 A 
ATOM     19  C   UNL     1       2.440   5.912  19.580  0.00  0.00    +0.000 A 
ATOM     20  N   UNL     1       2.065   7.182  19.296  0.00  0.00    +0.000 NA
ATOM     21  H   UNL     1       2.774   9.350  17.033  0.00  0.00    +0.000 HD
ENDBRANCH   7   9
BRANCH   1  25
ATOM     22  C   UNL     1       5.117  15.352  18.942  0.00  0.00    +0.000 A 
ATOM     23  C   UNL     1       4.270  15.339  17.832  0.00  0.00    +0.000 A 
ATOM     24  C   UNL     1       2.967  14.841  17.932  0.00  0.00    +0.000 A 
ATOM     25  C   UNL     1       2.489  14.329  19.144  0.00  0.00    +0.000 A 
ATOM     26  C   UNL     1       3.362  14.277  20.234  0.00  0.00    +0.000 A 
ATOM     27  C   UNL     1       4.652  14.816  20.145  0.00  0.00    +0.000 A 
BRANCH  22  30
ATOM     28  C   UNL     1       7.528  15.194  18.362  0.00  0.00    +0.000 C 
ATOM     29  O   UNL     1       7.520  14.133  17.746  0.00  0.00    +0.000 OA
ATOM     30  N   UNL     1       6.440  15.843  18.907  0.00  0.00    +0.000 N 
ATOM     31  H   UNL     1       6.582  16.769  19.284  0.00  0.00    +0.000 HD
BRANCH  28  33
ATOM     32  C   UNL     1       9.495  16.355  17.498  0.00  0.00    +0.000 C 
ATOM     33  C   UNL     1       8.802  15.938  18.566  0.00  0.00    +0.000 C 
ENDBRANCH  28  33
ENDBRANCH  22  30
ENDBRANCH   1  25
TORSDOF 4
ENDMDL
MODEL 8
REMARK VINA RESULT:      -7.7      5.367     10.028
REMARK  Name = 
REMARK  4 active torsions:
REMARK  status: ('A' for Active; 'I' for Inactive)
REMARK    1  A    between atoms: C_2  and  C_3
REMARK    2  A    between atoms: N_5  and  C_6
REMARK    3  A    between atoms: C_9  and  C_10
REMARK    4  A    between atoms: C_16  and  N_17
REMARK                            x       y       z     vdW  Elec       q    Type
REMARK                         _______ _______ _______ _____ _____    ______ ____
ROOT
ATOM      1  C   UNL     1      -2.215  11.212  18.987  0.00  0.00    +0.000 C 
ATOM      2  O   UNL     1      -2.874  11.913  19.757  0.00  0.00    +0.000 OA
ATOM      3  N   UNL     1      -0.952  10.727  19.334  0.00  0.00    +0.000 N 
ATOM      4  C   UNL     1      -0.554  10.812  20.740  0.00  0.00    +0.000 C 
ATOM      5  C   UNL     1       0.874  11.322  20.882  0.00  0.00    +0.000 C 
ATOM      6  C   UNL     1       1.852  10.501  20.042  0.00  0.00    +0.000 C 
ATOM      7  C   UNL     1       1.435  10.431  18.556  0.00  0.00    +0.000 C 
ATOM      8  C   UNL     1      -0.036   9.984  18.463  0.00  0.00    +0.000 C 
ENDROOT
BRANCH   7   9
ATOM      9  N   UNL     1       2.321   9.503  17.870  0.00  0.00    +0.000 N 
ATOM     10  C   UNL     1       2.558   8.185  18.164  0.00  0.00    +0.000 A 
ATOM     11  N   UNL     1       3.453   7.608  17.355  0.00  0.00    +0.000 NA
ATOM     12  C   UNL     1       3.852   6.362  17.670  0.00  0.00    +0.000 A 
ATOM     13  C   UNL     1       3.383   5.652  18.761  0.00  0.00    +0.000 A 
ATOM     14  C   UNL     1       3.874   4.377  19.113  0.00  0.00    +0.000 A 
ATOM     15  C   UNL     1       3.343   3.716  20.213  0.00  0.00    +0.000 A 
ATOM     16  C   UNL     1       2.315   4.322  20.919  0.00  0.00    +0.000 A 
ATOM     17  F   UNL     1       1.777   3.681  21.965  0.00  0.00    +0.000 F 
ATOM     18  C   UNL     1       1.842   5.591  20.570  0.00  0.00    +0.000 A 
ATOM     19  C   UNL     1       2.391   6.299  19.498  0.00  0.00    +0.000 A 
ATOM     20  N   UNL     1       1.991   7.560  19.207  0.00  0.00    +0.000 NA
ATOM     21  H   UNL     1       2.707   9.751  16.968  0.00  0.00    +0.000 HD
ENDBRANCH   7   9
BRANCH   1  25
ATOM     22  C   UNL     1      -3.842  10.328  15.086  0.00  0.00    +0.000 A 
ATOM     23  C   UNL     1      -2.664   9.735  15.543  0.00  0.00    +0.000 A 
ATOM     24  C   UNL     1      -2.169  10.018  16.821  0.00  0.00    +0.000 A 
ATOM     25  C   UNL     1      -2.837  10.915  17.662  0.00  0.00    +0.000 A 
ATOM     26  C   UNL     1      -3.977  11.561  17.175  0.00  0.00    +0.000 A 
ATOM     27  C   UNL     1      -4.495  11.244  15.913  0.00  0.00    +0.000 A 
BRANCH  22  30
ATOM     28  C   UNL     1      -3.686   9.738  12.677  0.00  0.00    +0.000 C 
ATOM     29  O   UNL     1      -2.484   9.505  12.602  0.00  0.00    +0.000 OA
ATOM     30  N   UNL     1      -4.393  10.082  13.810  0.00  0.00    +0.000 N 
ATOM     31  H   UNL     1      -5.400  10.128  13.743  0.00  0.00    +0.000 HD
BRANCH  28  33
ATOM     32  C   UNL     1      -5.872   9.467  11.623  0.00  0.00    +0.000 C 
ATOM     33  C   UNL     1      -4.552   9.637  11.469  0.00  0.00    +0.000 C 
ENDBRANCH  28  33
ENDBRANCH  22  30
ENDBRANCH   1  25
TORSDOF 4
ENDMDL
MODEL 9
REMARK VINA RESULT:      -7.6      5.392      9.507
REMARK  Name = 
REMARK  4 active torsions:
REMARK  status: ('A' for Active; 'I' for Inactive)
REMARK    1  A    between atoms: C_2  and  C_3
REMARK    2  A    between atoms: N_5  and  C_6
REMARK    3  A    between atoms: C_9  and  C_10
REMARK    4  A    between atoms: C_16  and  N_17
REMARK                            x       y       z     vdW  Elec       q    Type
REMARK                         _______ _______ _______ _____ _____    ______ ____
ROOT
ATOM      1  C   UNL     1       0.774  10.046  21.858  0.00  0.00    +0.000 C 
ATOM      2  O   UNL     1       1.678   9.768  22.649  0.00  0.00    +0.000 OA
ATOM      3  N   UNL     1       0.678   9.430  20.608  0.00  0.00    +0.000 N 
ATOM      4  C   UNL     1       1.488   8.234  20.376  0.00  0.00    +0.000 C 
ATOM      5  C   UNL     1       2.170   8.282  19.015  0.00  0.00    +0.000 C 
ATOM      6  C   UNL     1       1.167   8.541  17.891  0.00  0.00    +0.000 C 
ATOM      7  C   UNL     1       0.328   9.815  18.136  0.00  0.00    +0.000 C 
ATOM      8  C   UNL     1      -0.281   9.759  19.549  0.00  0.00    +0.000 C 
ENDROOT
BRANCH   7   9
ATOM      9  N   UNL     1      -0.703   9.893  17.111  0.00  0.00    +0.000 N 
ATOM     10  C   UNL     1      -1.912  10.537  17.174  0.00  0.00    +0.000 A 
ATOM     11  N   UNL     1      -2.651  10.399  16.068  0.00  0.00    +0.000 NA
ATOM     12  C   UNL     1      -3.910  10.873  16.108  0.00  0.00    +0.000 A 
ATOM     13  C   UNL     1      -4.467  11.498  17.209  0.00  0.00    +0.000 A 
ATOM     14  C   UNL     1      -5.814  11.918  17.252  0.00  0.00    +0.000 A 
ATOM     15  C   UNL     1      -6.299  12.555  18.387  0.00  0.00    +0.000 A 
ATOM     16  C   UNL     1      -5.429  12.788  19.440  0.00  0.00    +0.000 A 
ATOM     17  F   UNL     1      -5.880  13.427  20.528  0.00  0.00    +0.000 F 
ATOM     18  C   UNL     1      -4.099  12.360  19.394  0.00  0.00    +0.000 A 
ATOM     19  C   UNL     1      -3.597  11.674  18.285  0.00  0.00    +0.000 A 
ATOM     20  N   UNL     1      -2.333  11.186  18.270  0.00  0.00    +0.000 NA
ATOM     21  H   UNL     1      -0.494   9.601  16.166  0.00  0.00    +0.000 HD
ENDBRANCH   7   9
BRANCH   1  25
ATOM     22  C   UNL     1      -2.194  12.902  23.155  0.00  0.00    +0.000 A 
ATOM     23  C   UNL     1      -2.253  11.558  23.530  0.00  0.00    +0.000 A 
ATOM     24  C   UNL     1      -1.266  10.656  23.118  0.00  0.00    +0.000 A 
ATOM     25  C   UNL     1      -0.206  11.079  22.307  0.00  0.00    +0.000 A 
ATOM     26  C   UNL     1      -0.189  12.408  21.874  0.00  0.00    +0.000 A 
ATOM     27  C   UNL     1      -1.153  13.320  22.323  0.00  0.00    +0.000 A 
BRANCH  22  30
ATOM     28  C   UNL     1      -4.523  13.675  23.545  0.00  0.00    +0.000 C 
ATOM     29  O   UNL     1      -5.126  12.635  23.303  0.00  0.00    +0.000 OA
ATOM     30  N   UNL     1      -3.156  13.860  23.540  0.00  0.00    +0.000 N 
ATOM     31  H   UNL     1      -2.797  14.743  23.875  0.00  0.00    +0.000 HD
BRANCH  28  33
ATOM     32  C   UNL     1      -6.602  14.930  23.802  0.00  0.00    +0.000 C 
ATOM     33  C   UNL     1      -5.267  14.911  23.917  0.00  0.00    +0.000 C 
ENDBRANCH  28  33
ENDBRANCH  22  30
ENDBRANCH   1  25
TORSDOF 4
ENDMDL
