MODEL 1
REMARK VINA RESULT:      -8.1      0.000      0.000
REMARK  Name = 
REMARK  5 active torsions:
REMARK  status: ('A' for Active; 'I' for Inactive)
REMARK    1  A    between atoms: N_6  and  C_7
REMARK    2  A    between atoms: C_10  and  N_11
REMARK    3  A    between atoms: C_20  and  N_21
REMARK    4  A    between atoms: N_21  and  C_22
REMARK    5  A    between atoms: C_24  and  C_25
REMARK                            x       y       z     vdW  Elec       q    Type
REMARK                         _______ _______ _______ _____ _____    ______ ____
ROOT
ATOM      1 BR   UNL     1      -0.663  14.291  19.350  0.00  0.00    +0.000 Br
ATOM      2  C   UNL     1      -0.116  12.580  19.923  0.00  0.00    +0.000 A 
ATOM      3  C   UNL     1       0.365  12.394  21.203  0.00  0.00    +0.000 A 
ATOM      4  N   UNL     1       0.723  11.194  21.710  0.00  0.00    +0.000 NA
ATOM      5  C   UNL     1       0.642  10.151  20.878  0.00  0.00    +0.000 A 
ATOM      6  N   UNL     1       0.929   8.887  21.370  0.00  0.00    +0.000 N 
ATOM      7  N   UNL     1       0.212  10.256  19.614  0.00  0.00    +0.000 NA
ATOM      8  C   UNL     1      -0.207  11.445  19.139  0.00  0.00    +0.000 A 
ATOM      9  H   UNL     1       1.145   8.923  22.356  0.00  0.00    +0.000 HD
ENDROOT
BRANCH   6  10
ATOM     10  C   UNL     1       1.462   7.784  20.685  0.00  0.00    +0.000 A 
ATOM     11  C   UNL     1       2.207   7.905  19.509  0.00  0.00    +0.000 A 
ATOM     12  C   UNL     1       2.773   6.777  18.893  0.00  0.00    +0.000 A 
ATOM     13  C   UNL     1       2.582   5.493  19.411  0.00  0.00    +0.000 A 
ATOM     14  C   UNL     1       1.789   5.383  20.562  0.00  0.00    +0.000 A 
ATOM     15  C   UNL     1       1.251   6.505  21.199  0.00  0.00    +0.000 A 
BRANCH  13  16
ATOM     16  N   UNL     1       3.183   4.373  18.882  0.00  0.00    +0.000 N 
ATOM     17  C   UNL     1       2.893   3.016  19.357  0.00  0.00    +0.000 C 
ATOM     18  C   UNL     1       2.902   2.054  18.139  0.00  0.00    +0.000 C 
ATOM     19  N   UNL     1       4.140   2.110  17.331  0.00  0.00    +0.000 NA
ATOM     20  C   UNL     1       4.425   3.511  16.950  0.00  0.00    +0.000 C 
ATOM     21  C   UNL     1       4.452   4.485  18.150  0.00  0.00    +0.000 C 
ATOM     22  H   UNL     1       4.001   1.564  16.482  0.00  0.00    +0.000 HD
ENDBRANCH  13  16
ENDBRANCH   6  10
BRANCH   8  23
ATOM     23  N   UNL     1      -0.707  11.485  17.810  0.00  0.00    +0.000 N 
ATOM     24  H   UNL     1      -0.053  11.918  17.164  0.00  0.00    +0.000 HD
BRANCH  23  25
ATOM     25  C   UNL     1      -2.032  11.505  17.495  0.00  0.00    +0.000 A 
ATOM     26  C   UNL     1      -3.171  11.507  18.266  0.00  0.00    +0.000 A 
ATOM     27  C   UNL     1      -4.227  11.316  17.348  0.00  0.00    +0.000 A 
ATOM     28  N   UNL     1      -3.812  11.298  16.081  0.00  0.00    +0.000 NA
ATOM     29  N   UNL     1      -2.485  11.451  16.195  0.00  0.00    +0.000 N 
ATOM     30  H   UNL     1      -1.904  11.441  15.359  0.00  0.00    +0.000 HD
BRANCH  27  31
ATOM     31  C   UNL     1      -5.673  11.076  17.743  0.00  0.00    +0.000 C 
ATOM     32  C   UNL     1      -6.220  11.719  19.002  0.00  0.00    +0.000 C 
ATOM     33  C   UNL     1      -6.608  12.273  17.674  0.00  0.00    +0.000 C 
ENDBRANCH  27  31
ENDBRANCH  23  25
ENDBRANCH   8  23
TORSDOF 5
ENDMDL
MODEL 2
REMARK VINA RESULT:      -7.9      3.797      9.582
REMARK  Name = 
REMARK  5 active torsions:
REMARK  status: ('A' for Active; 'I' for Inactive)
REMARK    1  A    between atoms: N_6  and  C_7
REMARK    2  A    between atoms: C_10  and  N_11
REMARK    3  A    between atoms: C_20  and  N_21
REMARK    4  A    between atoms: N_21  and  C_22
REMARK    5  A    between atoms: C_24  and  C_25
REMARK                            x       y       z     vdW  Elec       q    Type
REMARK                         _______ _______ _______ _____ _____    ______ ____
ROOT
ATOM      1 BR   UNL     1       3.457   1.769  18.265  0.00  0.00    +0.000 Br
ATOM      2  C   UNL     1       2.840   3.357  19.071  0.00  0.00    +0.000 A 
ATOM      3  C   UNL     1       1.885   3.310  20.066  0.00  0.00    +0.000 A 
ATOM      4  N   UNL     1       1.431   4.393  20.733  0.00  0.00    +0.000 NA
ATOM      5  C   UNL     1       1.922   5.575  20.348  0.00  0.00    +0.000 A 
ATOM      6  N   UNL     1       1.545   6.711  21.048  0.00  0.00    +0.000 N 
ATOM      7  N   UNL     1       2.830   5.706  19.372  0.00  0.00    +0.000 NA
ATOM      8  C   UNL     1       3.326   4.614  18.758  0.00  0.00    +0.000 A 
ATOM      9  H   UNL     1       0.936   6.474  21.819  0.00  0.00    +0.000 HD
ENDROOT
BRANCH   6  10
ATOM     10  C   UNL     1       1.421   8.026  20.576  0.00  0.00    +0.000 A 
ATOM     11  C   UNL     1       1.727   8.397  19.264  0.00  0.00    +0.000 A 
ATOM     12  C   UNL     1       1.528   9.715  18.821  0.00  0.00    +0.000 A 
ATOM     13  C   UNL     1       1.055  10.708  19.682  0.00  0.00    +0.000 A 
ATOM     14  C   UNL     1       0.803  10.332  21.009  0.00  0.00    +0.000 A 
ATOM     15  C   UNL     1       0.966   9.015  21.448  0.00  0.00    +0.000 A 
BRANCH  13  16
ATOM     16  N   UNL     1       0.774  11.991  19.267  0.00  0.00    +0.000 N 
ATOM     17  C   UNL     1      -0.573  12.568  19.325  0.00  0.00    +0.000 C 
ATOM     18  C   UNL     1      -0.452  14.066  19.710  0.00  0.00    +0.000 C 
ATOM     19  N   UNL     1       0.453  14.846  18.838  0.00  0.00    +0.000 NA
ATOM     20  C   UNL     1       1.768  14.174  18.754  0.00  0.00    +0.000 C 
ATOM     21  C   UNL     1       1.678  12.688  18.341  0.00  0.00    +0.000 C 
ATOM     22  H   UNL     1       0.585  15.770  19.247  0.00  0.00    +0.000 HD
ENDBRANCH  13  16
ENDBRANCH   6  10
BRANCH   8  23
ATOM     23  N   UNL     1       4.329   4.809  17.772  0.00  0.00    +0.000 N 
ATOM     24  H   UNL     1       4.337   4.068  17.077  0.00  0.00    +0.000 HD
BRANCH  23  25
ATOM     25  C   UNL     1       5.480   5.506  17.983  0.00  0.00    +0.000 A 
ATOM     26  C   UNL     1       5.889   6.763  17.600  0.00  0.00    +0.000 A 
ATOM     27  C   UNL     1       7.258   6.815  17.944  0.00  0.00    +0.000 A 
ATOM     28  N   UNL     1       7.670   5.723  18.588  0.00  0.00    +0.000 NA
ATOM     29  N   UNL     1       6.568   4.963  18.632  0.00  0.00    +0.000 N 
ATOM     30  H   UNL     1       6.611   4.036  19.052  0.00  0.00    +0.000 HD
BRANCH  27  31
ATOM     31  C   UNL     1       8.195   7.947  17.562  0.00  0.00    +0.000 C 
ATOM     32  C   UNL     1       7.722   9.382  17.686  0.00  0.00    +0.000 C 
ATOM     33  C   UNL     1       8.681   8.843  18.690  0.00  0.00    +0.000 C 
ENDBRANCH  27  31
ENDBRANCH  23  25
ENDBRANCH   8  23
TORSDOF 5
ENDMDL
MODEL 3
REMARK VINA RESULT:      -7.9      3.536      9.435
REMARK  Name = 
REMARK  5 active torsions:
REMARK  status: ('A' for Active; 'I' for Inactive)
REMARK    1  A    between atoms: N_6  and  C_7
REMARK    2  A    between atoms: C_10  and  N_11
REMARK    3  A    between atoms: C_20  and  N_21
REMARK    4  A    between atoms: N_21  and  C_22
REMARK    5  A    between atoms: C_24  and  C_25
REMARK                            x       y       z     vdW  Elec       q    Type
REMARK                         _______ _______ _______ _____ _____    ______ ____
ROOT
ATOM      1 BR   UNL     1       3.347   1.538  18.260  0.00  0.00    +0.000 Br
ATOM      2  C   UNL     1       2.839   3.136  19.123  0.00  0.00    +0.000 A 
ATOM      3  C   UNL     1       2.376   3.110  20.423  0.00  0.00    +0.000 A 
ATOM      4  N   UNL     1       2.046   4.212  21.131  0.00  0.00    +0.000 NA
ATOM      5  C   UNL     1       2.137   5.379  20.488  0.00  0.00    +0.000 A 
ATOM      6  N   UNL     1       1.880   6.546  21.191  0.00  0.00    +0.000 N 
ATOM      7  N   UNL     1       2.552   5.484  19.218  0.00  0.00    +0.000 NA
ATOM      8  C   UNL     1       2.942   4.386  18.542  0.00  0.00    +0.000 A 
ATOM      9  H   UNL     1       1.674   6.346  22.160  0.00  0.00    +0.000 HD
ENDROOT
BRANCH   6  10
ATOM     10  C   UNL     1       1.361   7.758  20.711  0.00  0.00    +0.000 A 
ATOM     11  C   UNL     1       0.414   8.511  21.410  0.00  0.00    +0.000 A 
ATOM     12  C   UNL     1      -0.030   9.749  20.918  0.00  0.00    +0.000 A 
ATOM     13  C   UNL     1       0.428  10.254  19.699  0.00  0.00    +0.000 A 
ATOM     14  C   UNL     1       1.337   9.462  18.984  0.00  0.00    +0.000 A 
ATOM     15  C   UNL     1       1.809   8.245  19.484  0.00  0.00    +0.000 A 
BRANCH  13  16
ATOM     16  N   UNL     1       0.076  11.496  19.220  0.00  0.00    +0.000 N 
ATOM     17  C   UNL     1      -1.292  11.831  18.808  0.00  0.00    +0.000 C 
ATOM     18  C   UNL     1      -1.587  13.297  19.220  0.00  0.00    +0.000 C 
ATOM     19  N   UNL     1      -0.598  14.278  18.724  0.00  0.00    +0.000 NA
ATOM     20  C   UNL     1       0.767  13.847  19.100  0.00  0.00    +0.000 C 
ATOM     21  C   UNL     1       1.097  12.400  18.672  0.00  0.00    +0.000 C 
ATOM     22  H   UNL     1      -0.785  15.181  19.160  0.00  0.00    +0.000 HD
ENDBRANCH  13  16
ENDBRANCH   6  10
BRANCH   8  23
ATOM     23  N   UNL     1       3.427   4.564  17.219  0.00  0.00    +0.000 N 
ATOM     24  H   UNL     1       2.980   3.937  16.556  0.00  0.00    +0.000 HD
BRANCH  23  25
ATOM     25  C   UNL     1       4.668   5.040  16.919  0.00  0.00    +0.000 A 
ATOM     26  C   UNL     1       5.624   5.682  17.672  0.00  0.00    +0.000 A 
ATOM     27  C   UNL     1       6.594   6.103  16.736  0.00  0.00    +0.000 A 
ATOM     28  N   UNL     1       6.337   5.677  15.498  0.00  0.00    +0.000 NA
ATOM     29  N   UNL     1       5.186   5.006  15.643  0.00  0.00    +0.000 N 
ATOM     30  H   UNL     1       4.739   4.593  14.826  0.00  0.00    +0.000 HD
BRANCH  27  31
ATOM     31  C   UNL     1       7.768   7.008  17.066  0.00  0.00    +0.000 C 
ATOM     32  C   UNL     1       7.515   8.345  17.735  0.00  0.00    +0.000 C 
ATOM     33  C   UNL     1       8.072   7.223  18.541  0.00  0.00    +0.000 C 
ENDBRANCH  27  31
ENDBRANCH  23  25
ENDBRANCH   8  23
TORSDOF 5
ENDMDL
MODEL 4
REMARK VINA RESULT:      -7.9      0.528      1.025
REMARK  Name = 
REMARK  5 active torsions:
REMARK  status: ('A' for Active; 'I' for Inactive)
REMARK    1  A    between atoms: N_6  and  C_7
REMARK    2  A    between atoms: C_10  and  N_11
REMARK    3  A    between atoms: C_20  and  N_21
REMARK    4  A    between atoms: N_21  and  C_22
REMARK    5  A    between atoms: C_24  and  C_25
REMARK                            x       y       z     vdW  Elec       q    Type
REMARK                         _______ _______ _______ _____ _____    ______ ____
ROOT
ATOM      1 BR   UNL     1      -0.194  14.677  19.270  0.00  0.00    +0.000 Br
ATOM      2  C   UNL     1       0.244  12.927  19.819  0.00  0.00    +0.000 A 
ATOM      3  C   UNL     1       0.767  12.701  21.076  0.00  0.00    +0.000 A 
ATOM      4  N   UNL     1       1.055  11.476  21.567  0.00  0.00    +0.000 NA
ATOM      5  C   UNL     1       0.853  10.444  20.742  0.00  0.00    +0.000 A 
ATOM      6  N   UNL     1       1.063   9.160  21.222  0.00  0.00    +0.000 N 
ATOM      7  N   UNL     1       0.374  10.584  19.500  0.00  0.00    +0.000 NA
ATOM      8  C   UNL     1       0.028  11.803  19.042  0.00  0.00    +0.000 A 
ATOM      9  H   UNL     1       1.327   9.178  22.197  0.00  0.00    +0.000 HD
ENDROOT
BRANCH   6  10
ATOM     10  C   UNL     1       1.475   8.021  20.515  0.00  0.00    +0.000 A 
ATOM     11  C   UNL     1       2.093   8.083  19.263  0.00  0.00    +0.000 A 
ATOM     12  C   UNL     1       2.544   6.917  18.622  0.00  0.00    +0.000 A 
ATOM     13  C   UNL     1       2.361   5.656  19.193  0.00  0.00    +0.000 A 
ATOM     14  C   UNL     1       1.693   5.606  20.424  0.00  0.00    +0.000 A 
ATOM     15  C   UNL     1       1.271   6.764  21.084  0.00  0.00    +0.000 A 
BRANCH  13  16
ATOM     16  N   UNL     1       2.856   4.499  18.633  0.00  0.00    +0.000 N 
ATOM     17  C   UNL     1       3.453   4.456  17.294  0.00  0.00    +0.000 C 
ATOM     18  C   UNL     1       4.644   3.462  17.316  0.00  0.00    +0.000 C 
ATOM     19  N   UNL     1       4.301   2.114  17.818  0.00  0.00    +0.000 NA
ATOM     20  C   UNL     1       3.631   2.226  19.132  0.00  0.00    +0.000 C 
ATOM     21  C   UNL     1       2.421   3.186  19.130  0.00  0.00    +0.000 C 
ATOM     22  H   UNL     1       5.161   1.580  17.935  0.00  0.00    +0.000 HD
ENDBRANCH  13  16
ENDBRANCH   6  10
BRANCH   8  23
ATOM     23  N   UNL     1      -0.530  11.885  17.739  0.00  0.00    +0.000 N 
ATOM     24  H   UNL     1       0.030  12.459  17.114  0.00  0.00    +0.000 HD
BRANCH  23  25
ATOM     25  C   UNL     1      -1.857  11.746  17.466  0.00  0.00    +0.000 A 
ATOM     26  C   UNL     1      -2.987  11.937  18.228  0.00  0.00    +0.000 A 
ATOM     27  C   UNL     1      -4.041  11.422  17.443  0.00  0.00    +0.000 A 
ATOM     28  N   UNL     1      -3.639  11.027  16.234  0.00  0.00    +0.000 NA
ATOM     29  N   UNL     1      -2.321  11.268  16.260  0.00  0.00    +0.000 N 
ATOM     30  H   UNL     1      -1.749  11.024  15.454  0.00  0.00    +0.000 HD
BRANCH  27  31
ATOM     31  C   UNL     1      -5.469  11.252  17.930  0.00  0.00    +0.000 C 
ATOM     32  C   UNL     1      -5.838  11.696  19.331  0.00  0.00    +0.000 C 
ATOM     33  C   UNL     1      -6.266  12.525  18.169  0.00  0.00    +0.000 C 
ENDBRANCH  27  31
ENDBRANCH  23  25
ENDBRANCH   8  23
TORSDOF 5
ENDMDL
MODEL 5
REMARK VINA RESULT:      -7.9      5.379      8.152
REMARK  Name = 
REMARK  5 active torsions:
REMARK  status: ('A' for Active; 'I' for Inactive)
REMARK    1  A    between atoms: N_6  and  C_7
REMARK    2  A    between atoms: C_10  and  N_11
REMARK    3  A    between atoms: C_20  and  N_21
REMARK    4  A    between atoms: N_21  and  C_22
REMARK    5  A    between atoms: C_24  and  C_25
REMARK                            x       y       z     vdW  Elec       q    Type
REMARK                         _______ _______ _______ _____ _____    ______ ____
ROOT
ATOM      1 BR   UNL     1       1.807   3.264  20.675  0.00  0.00    +0.000 Br
ATOM      2  C   UNL     1       3.320   4.010  19.832  0.00  0.00    +0.000 A 
ATOM      3  C   UNL     1       4.295   3.192  19.299  0.00  0.00    +0.000 A 
ATOM      4  N   UNL     1       5.379   3.643  18.630  0.00  0.00    +0.000 NA
ATOM      5  C   UNL     1       5.510   4.969  18.540  0.00  0.00    +0.000 A 
ATOM      6  N   UNL     1       6.565   5.483  17.801  0.00  0.00    +0.000 N 
ATOM      7  N   UNL     1       4.621   5.829  19.055  0.00  0.00    +0.000 NA
ATOM      8  C   UNL     1       3.510   5.369  19.662  0.00  0.00    +0.000 A 
ATOM      9  H   UNL     1       7.108   4.741  17.382  0.00  0.00    +0.000 HD
ENDROOT
BRANCH   6  10
ATOM     10  C   UNL     1       7.255   6.690  17.988  0.00  0.00    +0.000 A 
ATOM     11  C   UNL     1       7.048   7.818  17.188  0.00  0.00    +0.000 A 
ATOM     12  C   UNL     1       7.717   9.024  17.453  0.00  0.00    +0.000 A 
ATOM     13  C   UNL     1       8.638   9.130  18.498  0.00  0.00    +0.000 A 
ATOM     14  C   UNL     1       8.874   7.976  19.258  0.00  0.00    +0.000 A 
ATOM     15  C   UNL     1       8.186   6.782  19.022  0.00  0.00    +0.000 A 
BRANCH  13  16
ATOM     16  N   UNL     1       9.256  10.313  18.837  0.00  0.00    +0.000 N 
ATOM     17  C   UNL     1       9.148  10.912  20.172  0.00  0.00    +0.000 C 
ATOM     18  C   UNL     1      10.512  11.556  20.535  0.00  0.00    +0.000 C 
ATOM     19  N   UNL     1      11.016  12.518  19.531  0.00  0.00    +0.000 NA
ATOM     20  C   UNL     1      11.026  11.884  18.194  0.00  0.00    +0.000 C 
ATOM     21  C   UNL     1       9.669  11.263  17.794  0.00  0.00    +0.000 C 
ATOM     22  H   UNL     1      11.972  12.776  19.776  0.00  0.00    +0.000 HD
ENDBRANCH  13  16
ENDBRANCH   6  10
BRANCH   8  23
ATOM     23  N   UNL     1       2.574   6.326  20.137  0.00  0.00    +0.000 N 
ATOM     24  H   UNL     1       1.874   5.911  20.746  0.00  0.00    +0.000 HD
BRANCH  23  25
ATOM     25  C   UNL     1       2.254   7.473  19.477  0.00  0.00    +0.000 A 
ATOM     26  C   UNL     1       1.488   8.563  19.824  0.00  0.00    +0.000 A 
ATOM     27  C   UNL     1       1.370   9.313  18.634  0.00  0.00    +0.000 A 
ATOM     28  N   UNL     1       2.087   8.804  17.630  0.00  0.00    +0.000 NA
ATOM     29  N   UNL     1       2.641   7.713  18.176  0.00  0.00    +0.000 N 
ATOM     30  H   UNL     1       3.226   7.107  17.605  0.00  0.00    +0.000 HD
BRANCH  27  31
ATOM     31  C   UNL     1       0.470  10.524  18.470  0.00  0.00    +0.000 C 
ATOM     32  C   UNL     1      -0.054  11.238  19.700  0.00  0.00    +0.000 C 
ATOM     33  C   UNL     1       1.041  11.864  18.906  0.00  0.00    +0.000 C 
ENDBRANCH  27  31
ENDBRANCH  23  25
ENDBRANCH   8  23
TORSDOF 5
ENDMDL
MODEL 6
REMARK VINA RESULT:      -7.8      3.977      9.573
REMARK  Name = 
REMARK  5 active torsions:
REMARK  status: ('A' for Active; 'I' for Inactive)
REMARK    1  A    between atoms: N_6  and  C_7
REMARK    2  A    between atoms: C_10  and  N_11
REMARK    3  A    between atoms: C_20  and  N_21
REMARK    4  A    between atoms: N_21  and  C_22
REMARK    5  A    between atoms: C_24  and  C_25
REMARK                            x       y       z     vdW  Elec       q    Type
REMARK                         _______ _______ _______ _____ _____    ______ ____
ROOT
ATOM      1 BR   UNL     1       4.103   2.362  19.420  0.00  0.00    +0.000 Br
ATOM      2  C   UNL     1       3.160   3.944  19.823  0.00  0.00    +0.000 A 
ATOM      3  C   UNL     1       1.857   3.884  20.274  0.00  0.00    +0.000 A 
ATOM      4  N   UNL     1       1.132   4.964  20.637  0.00  0.00    +0.000 NA
ATOM      5  C   UNL     1       1.725   6.153  20.493  0.00  0.00    +0.000 A 
ATOM      6  N   UNL     1       1.051   7.287  20.921  0.00  0.00    +0.000 N 
ATOM      7  N   UNL     1       2.976   6.295  20.037  0.00  0.00    +0.000 NA
ATOM      8  C   UNL     1       3.715   5.208  19.740  0.00  0.00    +0.000 A 
ATOM      9  H   UNL     1       0.161   7.044  21.334  0.00  0.00    +0.000 HD
ENDROOT
BRANCH   6  10
ATOM     10  C   UNL     1       1.135   8.593  20.417  0.00  0.00    +0.000 A 
ATOM     11  C   UNL     1       1.403   8.878  19.075  0.00  0.00    +0.000 A 
ATOM     12  C   UNL     1       1.416  10.201  18.606  0.00  0.00    +0.000 A 
ATOM     13  C   UNL     1       1.198  11.280  19.466  0.00  0.00    +0.000 A 
ATOM     14  C   UNL     1       0.982  10.981  20.818  0.00  0.00    +0.000 A 
ATOM     15  C   UNL     1       0.934   9.665  21.287  0.00  0.00    +0.000 A 
BRANCH  13  16
ATOM     16  N   UNL     1       1.126  12.585  19.031  0.00  0.00    +0.000 N 
ATOM     17  C   UNL     1      -0.091  13.164  18.453  0.00  0.00    +0.000 C 
ATOM     18  C   UNL     1      -0.207  14.638  18.922  0.00  0.00    +0.000 C 
ATOM     19  N   UNL     1       0.990  15.460  18.642  0.00  0.00    +0.000 NA
ATOM     20  C   UNL     1       2.194  14.788  19.177  0.00  0.00    +0.000 C 
ATOM     21  C   UNL     1       2.350  13.327  18.699  0.00  0.00    +0.000 C 
ATOM     22  H   UNL     1       0.885  16.360  19.109  0.00  0.00    +0.000 HD
ENDBRANCH  13  16
ENDBRANCH   6  10
BRANCH   8  23
ATOM     23  N   UNL     1       5.054   5.417  19.316  0.00  0.00    +0.000 N 
ATOM     24  H   UNL     1       5.631   5.826  20.046  0.00  0.00    +0.000 HD
BRANCH  23  25
ATOM     25  C   UNL     1       5.421   5.615  18.019  0.00  0.00    +0.000 A 
ATOM     26  C   UNL     1       4.882   5.193  16.826  0.00  0.00    +0.000 A 
ATOM     27  C   UNL     1       5.842   5.548  15.853  0.00  0.00    +0.000 A 
ATOM     28  N   UNL     1       6.865   6.234  16.363  0.00  0.00    +0.000 NA
ATOM     29  N   UNL     1       6.569   6.293  17.669  0.00  0.00    +0.000 N 
ATOM     30  H   UNL     1       7.215   6.746  18.311  0.00  0.00    +0.000 HD
BRANCH  27  31
ATOM     31  C   UNL     1       5.775   5.136  14.393  0.00  0.00    +0.000 C 
ATOM     32  C   UNL     1       7.057   4.832  13.643  0.00  0.00    +0.000 C 
ATOM     33  C   UNL     1       6.178   3.706  14.067  0.00  0.00    +0.000 C 
ENDBRANCH  27  31
ENDBRANCH  23  25
ENDBRANCH   8  23
TORSDOF 5
ENDMDL
MODEL 7
REMARK VINA RESULT:      -7.8      4.500      9.891
REMARK  Name = 
REMARK  5 active torsions:
REMARK  status: ('A' for Active; 'I' for Inactive)
REMARK    1  A    between atoms: N_6  and  C_7
REMARK    2  A    between atoms: C_10  and  N_11
REMARK    3  A    between atoms: C_20  and  N_21
REMARK    4  A    between atoms: N_21  and  C_22
REMARK    5  A    between atoms: C_24  and  C_25
REMARK                            x       y       z     vdW  Elec       q    Type
REMARK                         _______ _______ _______ _____ _____    ______ ____
ROOT
ATOM      1 BR   UNL     1       6.706   4.143  14.966  0.00  0.00    +0.000 Br
ATOM      2  C   UNL     1       5.404   4.793  16.165  0.00  0.00    +0.000 A 
ATOM      3  C   UNL     1       4.363   3.983  16.570  0.00  0.00    +0.000 A 
ATOM      4  N   UNL     1       3.423   4.351  17.468  0.00  0.00    +0.000 NA
ATOM      5  C   UNL     1       3.507   5.600  17.936  0.00  0.00    +0.000 A 
ATOM      6  N   UNL     1       2.610   6.004  18.913  0.00  0.00    +0.000 N 
ATOM      7  N   UNL     1       4.471   6.454  17.570  0.00  0.00    +0.000 NA
ATOM      8  C   UNL     1       5.443   6.057  16.726  0.00  0.00    +0.000 A 
ATOM      9  H   UNL     1       1.996   5.245  19.176  0.00  0.00    +0.000 HD
ENDROOT
BRANCH   6  10
ATOM     10  C   UNL     1       2.103   7.289  19.155  0.00  0.00    +0.000 A 
ATOM     11  C   UNL     1       2.028   8.277  18.169  0.00  0.00    +0.000 A 
ATOM     12  C   UNL     1       1.454   9.529  18.443  0.00  0.00    +0.000 A 
ATOM     13  C   UNL     1       0.973   9.846  19.716  0.00  0.00    +0.000 A 
ATOM     14  C   UNL     1       1.103   8.864  20.707  0.00  0.00    +0.000 A 
ATOM     15  C   UNL     1       1.642   7.603  20.433  0.00  0.00    +0.000 A 
BRANCH  13  16
ATOM     16  N   UNL     1       0.336  11.032  20.004  0.00  0.00    +0.000 N 
ATOM     17  C   UNL     1       0.314  12.169  19.078  0.00  0.00    +0.000 C 
ATOM     18  C   UNL     1      -1.073  12.857  19.172  0.00  0.00    +0.000 C 
ATOM     19  N   UNL     1      -1.465  13.247  20.544  0.00  0.00    +0.000 NA
ATOM     20  C   UNL     1      -1.347  12.082  21.448  0.00  0.00    +0.000 C 
ATOM     21  C   UNL     1       0.037  11.398  21.396  0.00  0.00    +0.000 C 
ATOM     22  H   UNL     1      -2.438  13.552  20.532  0.00  0.00    +0.000 HD
ENDBRANCH  13  16
ENDBRANCH   6  10
BRANCH   8  23
ATOM     23  N   UNL     1       6.471   6.986  16.419  0.00  0.00    +0.000 N 
ATOM     24  H   UNL     1       6.862   6.838  15.493  0.00  0.00    +0.000 HD
BRANCH  23  25
ATOM     25  C   UNL     1       7.248   7.600  17.354  0.00  0.00    +0.000 A 
ATOM     26  C   UNL     1       7.711   8.890  17.477  0.00  0.00    +0.000 A 
ATOM     27  C   UNL     1       8.637   8.840  18.541  0.00  0.00    +0.000 A 
ATOM     28  N   UNL     1       8.690   7.642  19.124  0.00  0.00    +0.000 NA
ATOM     29  N   UNL     1       7.814   6.920  18.411  0.00  0.00    +0.000 N 
ATOM     30  H   UNL     1       7.678   5.935  18.629  0.00  0.00    +0.000 HD
BRANCH  27  31
ATOM     31  C   UNL     1       9.542   9.990  18.944  0.00  0.00    +0.000 C 
ATOM     32  C   UNL     1       9.750  11.148  17.989  0.00  0.00    +0.000 C 
ATOM     33  C   UNL     1       8.874  11.336  19.179  0.00  0.00    +0.000 C 
ENDBRANCH  27  31
ENDBRANCH  23  25
ENDBRANCH   8  23
TORSDOF 5
ENDMDL
MODEL 8
REMARK VINA RESULT:      -7.8      4.535      9.902
REMARK  Name = 
REMARK  5 active torsions:
REMARK  status: ('A' for Active; 'I' for Inactive)
REMARK    1  A    between atoms: N_6  and  C_7
REMARK    2  A    between atoms: C_10  and  N_11
REMARK    3  A    between atoms: C_20  and  N_21
REMARK    4  A    between atoms: N_21  and  C_22
REMARK    5  A    between atoms: C_24  and  C_25
REMARK                            x       y       z     vdW  Elec       q    Type
REMARK                         _______ _______ _______ _____ _____    ______ ____
ROOT
ATOM      1 BR   UNL     1       6.852   4.245  15.376  0.00  0.00    +0.000 Br
ATOM      2  C   UNL     1       5.503   4.907  16.515  0.00  0.00    +0.000 A 
ATOM      3  C   UNL     1       4.518   4.066  16.990  0.00  0.00    +0.000 A 
ATOM      4  N   UNL     1       3.550   4.446  17.854  0.00  0.00    +0.000 NA
ATOM      5  C   UNL     1       3.547   5.733  18.211  0.00  0.00    +0.000 A 
ATOM      6  N   UNL     1       2.620   6.158  19.151  0.00  0.00    +0.000 N 
ATOM      7  N   UNL     1       4.452   6.616  17.771  0.00  0.00    +0.000 NA
ATOM      8  C   UNL     1       5.452   6.214  16.963  0.00  0.00    +0.000 A 
ATOM      9  H   UNL     1       2.058   5.385  19.480  0.00  0.00    +0.000 HD
ENDROOT
BRANCH   6  10
ATOM     10  C   UNL     1       2.025   7.422  19.280  0.00  0.00    +0.000 A 
ATOM     11  C   UNL     1       1.550   7.921  20.496  0.00  0.00    +0.000 A 
ATOM     12  C   UNL     1       1.019   9.217  20.587  0.00  0.00    +0.000 A 
ATOM     13  C   UNL     1       0.911  10.040  19.464  0.00  0.00    +0.000 A 
ATOM     14  C   UNL     1       1.343   9.506  18.242  0.00  0.00    +0.000 A 
ATOM     15  C   UNL     1       1.905   8.230  18.149  0.00  0.00    +0.000 A 
BRANCH  13  16
ATOM     16  N   UNL     1       0.468  11.343  19.526  0.00  0.00    +0.000 N 
ATOM     17  C   UNL     1       1.226  12.468  18.968  0.00  0.00    +0.000 C 
ATOM     18  C   UNL     1       0.225  13.483  18.357  0.00  0.00    +0.000 C 
ATOM     19  N   UNL     1      -0.832  13.929  19.289  0.00  0.00    +0.000 NA
ATOM     20  C   UNL     1      -1.507  12.753  19.880  0.00  0.00    +0.000 C 
ATOM     21  C   UNL     1      -0.534  11.741  20.524  0.00  0.00    +0.000 C 
ATOM     22  H   UNL     1      -1.520  14.471  18.768  0.00  0.00    +0.000 HD
ENDBRANCH  13  16
ENDBRANCH   6  10
BRANCH   8  23
ATOM     23  N   UNL     1       6.417   7.181  16.575  0.00  0.00    +0.000 N 
ATOM     24  H   UNL     1       6.730   7.052  15.617  0.00  0.00    +0.000 HD
BRANCH  23  25
ATOM     25  C   UNL     1       7.251   7.818  17.444  0.00  0.00    +0.000 A 
ATOM     26  C   UNL     1       7.686   9.121  17.529  0.00  0.00    +0.000 A 
ATOM     27  C   UNL     1       8.698   9.098  18.514  0.00  0.00    +0.000 A 
ATOM     28  N   UNL     1       8.832   7.902  19.089  0.00  0.00    +0.000 NA
ATOM     29  N   UNL     1       7.920   7.155  18.450  0.00  0.00    +0.000 N 
ATOM     30  H   UNL     1       7.830   6.167  18.678  0.00  0.00    +0.000 HD
BRANCH  27  31
ATOM     31  C   UNL     1       9.601  10.273  18.842  0.00  0.00    +0.000 C 
ATOM     32  C   UNL     1       9.164  11.677  18.472  0.00  0.00    +0.000 C 
ATOM     33  C   UNL     1       9.099  11.247  19.897  0.00  0.00    +0.000 C 
ENDBRANCH  27  31
ENDBRANCH  23  25
ENDBRANCH   8  23
TORSDOF 5
ENDMDL
MODEL 9
REMARK VINA RESULT:      -7.8      1.814      2.420
REMARK  Name = 
REMARK  5 active torsions:
REMARK  status: ('A' for Active; 'I' for Inactive)
REMARK    1  A    between atoms: N_6  and  C_7
REMARK    2  A    between atoms: C_10  and  N_11
REMARK    3  A    between atoms: C_20  and  N_21
REMARK    4  A    between atoms: N_21  and  C_22
REMARK    5  A    between atoms: C_24  and  C_25
REMARK                            x       y       z     vdW  Elec       q    Type
REMARK                         _______ _______ _______ _____ _____    ______ ____
ROOT
ATOM      1 BR   UNL     1      -0.934  12.502  21.711  0.00  0.00    +0.000 Br
ATOM      2  C   UNL     1      -0.120  10.821  21.454  0.00  0.00    +0.000 A 
ATOM      3  C   UNL     1       0.196  10.025  22.536  0.00  0.00    +0.000 A 
ATOM      4  N   UNL     1       0.727   8.787  22.436  0.00  0.00    +0.000 NA
ATOM      5  C   UNL     1       0.997   8.355  21.201  0.00  0.00    +0.000 A 
ATOM      6  N   UNL     1       1.474   7.064  21.039  0.00  0.00    +0.000 N 
ATOM      7  N   UNL     1       0.745   9.079  20.103  0.00  0.00    +0.000 NA
ATOM      8  C   UNL     1       0.154  10.285  20.208  0.00  0.00    +0.000 A 
ATOM      9  H   UNL     1       1.530   6.585  21.927  0.00  0.00    +0.000 HD
ENDROOT
BRANCH   6  10
ATOM     10  C   UNL     1       2.328   6.568  20.043  0.00  0.00    +0.000 A 
ATOM     11  C   UNL     1       2.557   7.232  18.834  0.00  0.00    +0.000 A 
ATOM     12  C   UNL     1       3.469   6.727  17.894  0.00  0.00    +0.000 A 
ATOM     13  C   UNL     1       4.151   5.527  18.113  0.00  0.00    +0.000 A 
ATOM     14  C   UNL     1       3.871   4.846  19.305  0.00  0.00    +0.000 A 
ATOM     15  C   UNL     1       2.990   5.360  20.262  0.00  0.00    +0.000 A 
BRANCH  13  16
ATOM     16  N   UNL     1       5.108   5.039  17.252  0.00  0.00    +0.000 N 
ATOM     17  C   UNL     1       4.807   4.640  15.873  0.00  0.00    +0.000 C 
ATOM     18  C   UNL     1       6.004   5.039  14.971  0.00  0.00    +0.000 C 
ATOM     19  N   UNL     1       7.311   4.520  15.430  0.00  0.00    +0.000 NA
ATOM     20  C   UNL     1       7.522   4.884  16.849  0.00  0.00    +0.000 C 
ATOM     21  C   UNL     1       6.357   4.468  17.774  0.00  0.00    +0.000 C 
ATOM     22  H   UNL     1       8.048   4.948  14.871  0.00  0.00    +0.000 HD
ENDBRANCH  13  16
ENDBRANCH   6  10
BRANCH   8  23
ATOM     23  N   UNL     1      -0.142  10.982  19.007  0.00  0.00    +0.000 N 
ATOM     24  H   UNL     1       0.425  11.818  18.896  0.00  0.00    +0.000 HD
BRANCH  23  25
ATOM     25  C   UNL     1      -1.347  10.934  18.374  0.00  0.00    +0.000 A 
ATOM     26  C   UNL     1      -2.303  11.892  18.120  0.00  0.00    +0.000 A 
ATOM     27  C   UNL     1      -3.409  11.170  17.620  0.00  0.00    +0.000 A 
ATOM     28  N   UNL     1      -3.152   9.871  17.467  0.00  0.00    +0.000 NA
ATOM     29  N   UNL     1      -1.886   9.760  17.895  0.00  0.00    +0.000 N 
ATOM     30  H   UNL     1      -1.440   8.845  17.915  0.00  0.00    +0.000 HD
BRANCH  27  31
ATOM     31  C   UNL     1      -4.776  11.774  17.355  0.00  0.00    +0.000 C 
ATOM     32  C   UNL     1      -6.014  11.093  17.905  0.00  0.00    +0.000 C 
ATOM     33  C   UNL     1      -5.519  12.338  18.556  0.00  0.00    +0.000 C 
ENDBRANCH  27  31
ENDBRANCH  23  25
ENDBRANCH   8  23
TORSDOF 5
ENDMDL
