MODEL 1
REMARK VINA RESULT:      -7.6      0.000      0.000
REMARK  Name = 
REMARK  8 active torsions:
REMARK  status: ('A' for Active; 'I' for Inactive)
REMARK    1  A    between atoms: C_1  and  O_2
REMARK    2  A    between atoms: O_2  and  C_3
REMARK    3  A    between atoms: C_19  and  C_21
REMARK    4  A    between atoms: C_24  and  O_25
REMARK    5  A    between atoms: O_25  and  C_26
REMARK    6  A    between atoms: C_27  and  N_28
REMARK    7  A    between atoms: N_28  and  C_29
REMARK    8  A    between atoms: N_28  and  C_30
REMARK                            x       y       z     vdW  Elec       q    Type
REMARK                         _______ _______ _______ _____ _____    ______ ____
ROOT
ATOM      1  C   UNL     1       3.071   7.399  18.011  0.00  0.00    +0.000 A 
ATOM      2  C   UNL     1       2.428   8.624  17.764  0.00  0.00    +0.000 A 
ATOM      3  C   UNL     1       1.549   9.181  18.701  0.00  0.00    +0.000 A 
ATOM      4  C   UNL     1       1.421   8.537  19.951  0.00  0.00    +0.000 A 
ATOM      5  C   UNL     1       2.043   7.317  20.210  0.00  0.00    +0.000 A 
ATOM      6  C   UNL     1       2.844   6.747  19.228  0.00  0.00    +0.000 A 
ATOM      7  F   UNL     1       3.393   5.555  19.501  0.00  0.00    +0.000 F 
ATOM      8  N   UNL     1       0.642   9.190  20.929  0.00  0.00    +0.000 N 
ATOM      9  C   UNL     1       0.538   8.925  22.274  0.00  0.00    +0.000 A 
ATOM     10  C   UNL     1      -0.152   9.964  22.860  0.00  0.00    +0.000 A 
ATOM     11  C   UNL     1      -0.585  10.822  21.823  0.00  0.00    +0.000 A 
ATOM     12  C   UNL     1      -0.162  10.269  20.630  0.00  0.00    +0.000 A 
ATOM     13  C   UNL     1      -0.403  10.570  19.161  0.00  0.00    +0.000 C 
ATOM     14  C   UNL     1      -1.406   9.498  18.618  0.00  0.00    +0.000 C 
ATOM     15  C   UNL     1      -1.981   9.931  17.289  0.00  0.00    +0.000 C 
ATOM     16  N   UNL     1      -2.797  11.095  17.547  0.00  0.00    +0.000 N 
ATOM     17  C   UNL     1      -4.133  10.836  17.880  0.00  0.00    +0.000 C 
ATOM     18  O   UNL     1      -4.581   9.691  17.958  0.00  0.00    +0.000 OA
ATOM     19  C   UNL     1      -2.025  12.282  17.900  0.00  0.00    +0.000 C 
ATOM     20  C   UNL     1      -0.932  12.026  18.962  0.00  0.00    +0.000 C 
ATOM     21  N   UNL     1       0.887  10.404  18.426  0.00  0.00    +0.000 N 
ATOM     22  H   UNL     1       0.830  10.598  17.431  0.00  0.00    +0.000 HD
ENDROOT
BRANCH  17  23
ATOM     23  C   UNL     1      -5.085  11.933  18.132  0.00  0.00    +0.000 A 
ATOM     24  C   UNL     1      -5.771  12.464  17.042  0.00  0.00    +0.000 A 
ATOM     25  C   UNL     1      -6.549  13.610  17.200  0.00  0.00    +0.000 A 
ATOM     26  C   UNL     1      -6.615  14.263  18.439  0.00  0.00    +0.000 A 
ATOM     27  C   UNL     1      -5.916  13.742  19.561  0.00  0.00    +0.000 A 
ATOM     28  C   UNL     1      -5.156  12.569  19.374  0.00  0.00    +0.000 A 
BRANCH  27  29
ATOM     29  N   UNL     1      -5.824  14.345  20.824  0.00  0.00    +0.000 N 
ATOM     30  C   UNL     1      -6.243  13.596  22.001  0.00  0.00    +0.000 C 
ATOM     31  C   UNL     1      -4.700  15.255  21.024  0.00  0.00    +0.000 C 
ENDBRANCH  27  29
BRANCH  26  32
ATOM     32  O   UNL     1      -7.394  15.383  18.621  0.00  0.00    +0.000 OA
ATOM     33  C   UNL     1      -6.868  16.606  18.109  0.00  0.00    +0.000 C 
ENDBRANCH  26  32
ENDBRANCH  17  23
BRANCH   1  35
ATOM     34  C   UNL     1       5.263   6.856  17.256  0.00  0.00    +0.000 C 
ATOM     35  O   UNL     1       3.871   6.967  16.986  0.00  0.00    +0.000 OA
ENDBRANCH   1  35
TORSDOF 4
ENDMDL
MODEL 2
REMARK VINA RESULT:      -7.6      3.519      9.738
REMARK  Name = 
REMARK  8 active torsions:
REMARK  status: ('A' for Active; 'I' for Inactive)
REMARK    1  A    between atoms: C_1  and  O_2
REMARK    2  A    between atoms: O_2  and  C_3
REMARK    3  A    between atoms: C_19  and  C_21
REMARK    4  A    between atoms: C_24  and  O_25
REMARK    5  A    between atoms: O_25  and  C_26
REMARK    6  A    between atoms: C_27  and  N_28
REMARK    7  A    between atoms: N_28  and  C_29
REMARK    8  A    between atoms: N_28  and  C_30
REMARK                            x       y       z     vdW  Elec       q    Type
REMARK                         _______ _______ _______ _____ _____    ______ ____
ROOT
ATOM      1  C   UNL     1      -1.600  14.465  21.187  0.00  0.00    +0.000 A 
ATOM      2  C   UNL     1      -0.558  13.777  20.543  0.00  0.00    +0.000 A 
ATOM      3  C   UNL     1      -0.816  12.649  19.754  0.00  0.00    +0.000 A 
ATOM      4  C   UNL     1      -2.164  12.296  19.527  0.00  0.00    +0.000 A 
ATOM      5  C   UNL     1      -3.209  12.959  20.166  0.00  0.00    +0.000 A 
ATOM      6  C   UNL     1      -2.916  14.024  21.009  0.00  0.00    +0.000 A 
ATOM      7  F   UNL     1      -3.946  14.611  21.636  0.00  0.00    +0.000 F 
ATOM      8  N   UNL     1      -2.404  11.244  18.617  0.00  0.00    +0.000 N 
ATOM      9  C   UNL     1      -3.587  10.853  18.038  0.00  0.00    +0.000 A 
ATOM     10  C   UNL     1      -3.295   9.941  17.047  0.00  0.00    +0.000 A 
ATOM     11  C   UNL     1      -1.906   9.681  17.109  0.00  0.00    +0.000 A 
ATOM     12  C   UNL     1      -1.395  10.428  18.153  0.00  0.00    +0.000 A 
ATOM     13  C   UNL     1      -0.052  10.514  18.857  0.00  0.00    +0.000 C 
ATOM     14  C   UNL     1      -0.195   9.782  20.234  0.00  0.00    +0.000 C 
ATOM     15  C   UNL     1       1.165   9.497  20.829  0.00  0.00    +0.000 C 
ATOM     16  N   UNL     1       1.802   8.529  19.968  0.00  0.00    +0.000 N 
ATOM     17  C   UNL     1       1.546   7.185  20.272  0.00  0.00    +0.000 C 
ATOM     18  O   UNL     1       0.814   6.851  21.205  0.00  0.00    +0.000 OA
ATOM     19  C   UNL     1       2.192   9.070  18.670  0.00  0.00    +0.000 C 
ATOM     20  C   UNL     1       1.086   9.900  17.980  0.00  0.00    +0.000 C 
ATOM     21  N   UNL     1       0.249  11.950  19.131  0.00  0.00    +0.000 N 
ATOM     22  H   UNL     1       1.140  12.111  19.592  0.00  0.00    +0.000 HD
ENDROOT
BRANCH  17  23
ATOM     23  C   UNL     1       2.162   6.094  19.496  0.00  0.00    +0.000 A 
ATOM     24  C   UNL     1       1.514   4.861  19.477  0.00  0.00    +0.000 A 
ATOM     25  C   UNL     1       2.138   3.755  18.903  0.00  0.00    +0.000 A 
ATOM     26  C   UNL     1       3.436   3.858  18.381  0.00  0.00    +0.000 A 
ATOM     27  C   UNL     1       4.118   5.104  18.399  0.00  0.00    +0.000 A 
ATOM     28  C   UNL     1       3.449   6.210  18.966  0.00  0.00    +0.000 A 
BRANCH  27  29
ATOM     29  N   UNL     1       5.444   5.321  17.998  0.00  0.00    +0.000 N 
ATOM     30  C   UNL     1       5.709   6.193  16.861  0.00  0.00    +0.000 C 
ATOM     31  C   UNL     1       6.443   5.354  19.062  0.00  0.00    +0.000 C 
ENDBRANCH  27  29
BRANCH  26  32
ATOM     32  O   UNL     1       4.062   2.783  17.793  0.00  0.00    +0.000 OA
ATOM     33  C   UNL     1       3.660   1.493  18.248  0.00  0.00    +0.000 C 
ENDBRANCH  26  32
ENDBRANCH  17  23
BRANCH   1  35
ATOM     34  C   UNL     1       0.216  15.693  22.118  0.00  0.00    +0.000 C 
ATOM     35  O   UNL     1      -1.186  15.526  21.951  0.00  0.00    +0.000 OA
ENDBRANCH   1  35
TORSDOF 4
ENDMDL
MODEL 3
REMARK VINA RESULT:      -7.4      3.316      9.681
REMARK  Name = 
REMARK  8 active torsions:
REMARK  status: ('A' for Active; 'I' for Inactive)
REMARK    1  A    between atoms: C_1  and  O_2
REMARK    2  A    between atoms: O_2  and  C_3
REMARK    3  A    between atoms: C_19  and  C_21
REMARK    4  A    between atoms: C_24  and  O_25
REMARK    5  A    between atoms: O_25  and  C_26
REMARK    6  A    between atoms: C_27  and  N_28
REMARK    7  A    between atoms: N_28  and  C_29
REMARK    8  A    between atoms: N_28  and  C_30
REMARK                            x       y       z     vdW  Elec       q    Type
REMARK                         _______ _______ _______ _____ _____    ______ ____
ROOT
ATOM      1  C   UNL     1      -2.831  14.303  21.446  0.00  0.00    +0.000 A 
ATOM      2  C   UNL     1      -1.642  13.850  20.849  0.00  0.00    +0.000 A 
ATOM      3  C   UNL     1      -1.645  12.767  19.961  0.00  0.00    +0.000 A 
ATOM      4  C   UNL     1      -2.893  12.221  19.590  0.00  0.00    +0.000 A 
ATOM      5  C   UNL     1      -4.081  12.649  20.179  0.00  0.00    +0.000 A 
ATOM      6  C   UNL     1      -4.036  13.672  21.120  0.00  0.00    +0.000 A 
ATOM      7  F   UNL     1      -5.195  14.028  21.692  0.00  0.00    +0.000 F 
ATOM      8  N   UNL     1      -2.882  11.227  18.589  0.00  0.00    +0.000 N 
ATOM      9  C   UNL     1      -3.935  10.700  17.879  0.00  0.00    +0.000 A 
ATOM     10  C   UNL     1      -3.418   9.936  16.856  0.00  0.00    +0.000 A 
ATOM     11  C   UNL     1      -2.015   9.900  17.023  0.00  0.00    +0.000 A 
ATOM     12  C   UNL     1      -1.718  10.628  18.159  0.00  0.00    +0.000 A 
ATOM     13  C   UNL     1      -0.466  10.868  18.985  0.00  0.00    +0.000 C 
ATOM     14  C   UNL     1      -0.589  10.008  20.287  0.00  0.00    +0.000 C 
ATOM     15  C   UNL     1       0.750   9.897  20.980  0.00  0.00    +0.000 C 
ATOM     16  N   UNL     1       1.605   9.122  20.112  0.00  0.00    +0.000 N 
ATOM     17  C   UNL     1       1.556   7.733  20.294  0.00  0.00    +0.000 C 
ATOM     18  O   UNL     1       0.822   7.206  21.131  0.00  0.00    +0.000 OA
ATOM     19  C   UNL     1       1.996   9.828  18.896  0.00  0.00    +0.000 C 
ATOM     20  C   UNL     1       0.822  10.524  18.171  0.00  0.00    +0.000 C 
ATOM     21  N   UNL     1      -0.433  12.306  19.388  0.00  0.00    +0.000 N 
ATOM     22  H   UNL     1       0.380  12.568  19.936  0.00  0.00    +0.000 HD
ENDROOT
BRANCH  17  23
ATOM     23  C   UNL     1       2.405   6.827  19.499  0.00  0.00    +0.000 A 
ATOM     24  C   UNL     1       2.946   7.315  18.312  0.00  0.00    +0.000 A 
ATOM     25  C   UNL     1       3.610   6.451  17.443  0.00  0.00    +0.000 A 
ATOM     26  C   UNL     1       3.704   5.081  17.730  0.00  0.00    +0.000 A 
ATOM     27  C   UNL     1       3.151   4.562  18.931  0.00  0.00    +0.000 A 
ATOM     28  C   UNL     1       2.504   5.467  19.800  0.00  0.00    +0.000 A 
BRANCH  27  29
ATOM     29  N   UNL     1       3.094   3.208  19.291  0.00  0.00    +0.000 N 
ATOM     30  C   UNL     1       4.236   2.603  19.964  0.00  0.00    +0.000 C 
ATOM     31  C   UNL     1       1.784   2.703  19.696  0.00  0.00    +0.000 C 
ENDBRANCH  27  29
BRANCH  26  32
ATOM     32  O   UNL     1       4.373   4.216  16.895  0.00  0.00    +0.000 OA
ATOM     33  C   UNL     1       5.358   4.797  16.043  0.00  0.00    +0.000 C 
ENDBRANCH  26  32
ENDBRANCH  17  23
BRANCH   1  35
ATOM     34  C   UNL     1      -2.950  16.650  21.829  0.00  0.00    +0.000 C 
ATOM     35  O   UNL     1      -2.661  15.346  22.318  0.00  0.00    +0.000 OA
ENDBRANCH   1  35
TORSDOF 4
ENDMDL
MODEL 4
REMARK VINA RESULT:      -7.2      3.431      9.771
REMARK  Name = 
REMARK  8 active torsions:
REMARK  status: ('A' for Active; 'I' for Inactive)
REMARK    1  A    between atoms: C_1  and  O_2
REMARK    2  A    between atoms: O_2  and  C_3
REMARK    3  A    between atoms: C_19  and  C_21
REMARK    4  A    between atoms: C_24  and  O_25
REMARK    5  A    between atoms: O_25  and  C_26
REMARK    6  A    between atoms: C_27  and  N_28
REMARK    7  A    between atoms: N_28  and  C_29
REMARK    8  A    between atoms: N_28  and  C_30
REMARK                            x       y       z     vdW  Elec       q    Type
REMARK                         _______ _______ _______ _____ _____    ______ ____
ROOT
ATOM      1  C   UNL     1      -2.252  14.214  21.327  0.00  0.00    +0.000 A 
ATOM      2  C   UNL     1      -1.136  13.728  20.626  0.00  0.00    +0.000 A 
ATOM      3  C   UNL     1      -1.251  12.646  19.743  0.00  0.00    +0.000 A 
ATOM      4  C   UNL     1      -2.544  12.138  19.487  0.00  0.00    +0.000 A 
ATOM      5  C   UNL     1      -3.660  12.600  20.181  0.00  0.00    +0.000 A 
ATOM      6  C   UNL     1      -3.500  13.620  21.112  0.00  0.00    +0.000 A 
ATOM      7  F   UNL     1      -4.591  14.009  21.787  0.00  0.00    +0.000 F 
ATOM      8  N   UNL     1      -2.653  11.145  18.491  0.00  0.00    +0.000 N 
ATOM      9  C   UNL     1      -3.781  10.651  17.880  0.00  0.00    +0.000 A 
ATOM     10  C   UNL     1      -3.382   9.873  16.815  0.00  0.00    +0.000 A 
ATOM     11  C   UNL     1      -1.971   9.795  16.854  0.00  0.00    +0.000 A 
ATOM     12  C   UNL     1      -1.551  10.512  17.958  0.00  0.00    +0.000 A 
ATOM     13  C   UNL     1      -0.223  10.715  18.667  0.00  0.00    +0.000 C 
ATOM     14  C   UNL     1      -0.252   9.857  19.976  0.00  0.00    +0.000 C 
ATOM     15  C   UNL     1       1.140   9.705  20.544  0.00  0.00    +0.000 C 
ATOM     16  N   UNL     1       1.890   8.907  19.603  0.00  0.00    +0.000 N 
ATOM     17  C   UNL     1       1.816   7.520  19.791  0.00  0.00    +0.000 C 
ATOM     18  O   UNL     1       1.146   7.013  20.692  0.00  0.00    +0.000 OA
ATOM     19  C   UNL     1       2.190   9.602  18.356  0.00  0.00    +0.000 C 
ATOM     20  C   UNL     1       0.976  10.334  17.740  0.00  0.00    +0.000 C 
ATOM     21  N   UNL     1      -0.111  12.150  19.063  0.00  0.00    +0.000 N 
ATOM     22  H   UNL     1       0.756  12.388  19.535  0.00  0.00    +0.000 HD
ENDROOT
BRANCH  17  23
ATOM     23  C   UNL     1       2.563   6.590  18.924  0.00  0.00    +0.000 A 
ATOM     24  C   UNL     1       1.885   5.480  18.423  0.00  0.00    +0.000 A 
ATOM     25  C   UNL     1       2.585   4.485  17.743  0.00  0.00    +0.000 A 
ATOM     26  C   UNL     1       3.977   4.566  17.594  0.00  0.00    +0.000 A 
ATOM     27  C   UNL     1       4.688   5.684  18.106  0.00  0.00    +0.000 A 
ATOM     28  C   UNL     1       3.947   6.686  18.769  0.00  0.00    +0.000 A 
BRANCH  27  29
ATOM     29  N   UNL     1       6.082   5.842  18.107  0.00  0.00    +0.000 N 
ATOM     30  C   UNL     1       6.673   6.943  17.358  0.00  0.00    +0.000 C 
ATOM     31  C   UNL     1       6.772   5.480  19.342  0.00  0.00    +0.000 C 
ENDBRANCH  27  29
BRANCH  26  32
ATOM     32  O   UNL     1       4.685   3.604  16.909  0.00  0.00    +0.000 OA
ATOM     33  C   UNL     1       5.192   3.985  15.632  0.00  0.00    +0.000 C 
ENDBRANCH  26  32
ENDBRANCH  17  23
BRANCH   1  35
ATOM     34  C   UNL     1      -1.459  16.444  21.598  0.00  0.00    +0.000 C 
ATOM     35  O   UNL     1      -1.973  15.251  22.179  0.00  0.00    +0.000 OA
ENDBRANCH   1  35
TORSDOF 4
ENDMDL
MODEL 5
REMARK VINA RESULT:      -6.9      3.704      9.575
REMARK  Name = 
REMARK  8 active torsions:
REMARK  status: ('A' for Active; 'I' for Inactive)
REMARK    1  A    between atoms: C_1  and  O_2
REMARK    2  A    between atoms: O_2  and  C_3
REMARK    3  A    between atoms: C_19  and  C_21
REMARK    4  A    between atoms: C_24  and  O_25
REMARK    5  A    between atoms: O_25  and  C_26
REMARK    6  A    between atoms: C_27  and  N_28
REMARK    7  A    between atoms: N_28  and  C_29
REMARK    8  A    between atoms: N_28  and  C_30
REMARK                            x       y       z     vdW  Elec       q    Type
REMARK                         _______ _______ _______ _____ _____    ______ ____
ROOT
ATOM      1  C   UNL     1      -0.476  15.351  20.326  0.00  0.00    +0.000 A 
ATOM      2  C   UNL     1       0.301  14.374  19.681  0.00  0.00    +0.000 A 
ATOM      3  C   UNL     1      -0.260  13.157  19.272  0.00  0.00    +0.000 A 
ATOM      4  C   UNL     1      -1.655  12.991  19.417  0.00  0.00    +0.000 A 
ATOM      5  C   UNL     1      -2.439  13.944  20.064  0.00  0.00    +0.000 A 
ATOM      6  C   UNL     1      -1.838  15.106  20.533  0.00  0.00    +0.000 A 
ATOM      7  F   UNL     1      -2.619  15.979  21.185  0.00  0.00    +0.000 F 
ATOM      8  N   UNL     1      -2.218  11.818  18.871  0.00  0.00    +0.000 N 
ATOM      9  C   UNL     1      -3.541  11.510  18.660  0.00  0.00    +0.000 A 
ATOM     10  C   UNL     1      -3.594  10.365  17.894  0.00  0.00    +0.000 A 
ATOM     11  C   UNL     1      -2.268   9.899  17.740  0.00  0.00    +0.000 A 
ATOM     12  C   UNL     1      -1.445  10.764  18.435  0.00  0.00    +0.000 A 
ATOM     13  C   UNL     1       0.027  10.780  18.810  0.00  0.00    +0.000 C 
ATOM     14  C   UNL     1       0.130  10.406  20.327  0.00  0.00    +0.000 C 
ATOM     15  C   UNL     1       1.551  10.039  20.689  0.00  0.00    +0.000 C 
ATOM     16  N   UNL     1       1.855   8.812  19.991  0.00  0.00    +0.000 N 
ATOM     17  C   UNL     1       1.527   7.631  20.671  0.00  0.00    +0.000 C 
ATOM     18  O   UNL     1       1.003   7.638  21.786  0.00  0.00    +0.000 OA
ATOM     19  C   UNL     1       1.986   8.979  18.547  0.00  0.00    +0.000 C 
ATOM     20  C   UNL     1       0.850   9.807  17.907  0.00  0.00    +0.000 C 
ATOM     21  N   UNL     1       0.543  12.171  18.645  0.00  0.00    +0.000 N 
ATOM     22  H   UNL     1       1.529  12.280  18.861  0.00  0.00    +0.000 HD
ENDROOT
BRANCH  17  23
ATOM     23  C   UNL     1       1.818   6.308  20.089  0.00  0.00    +0.000 A 
ATOM     24  C   UNL     1       1.036   5.230  20.499  0.00  0.00    +0.000 A 
ATOM     25  C   UNL     1       1.378   3.935  20.112  0.00  0.00    +0.000 A 
ATOM     26  C   UNL     1       2.528   3.699  19.346  0.00  0.00    +0.000 A 
ATOM     27  C   UNL     1       3.343   4.783  18.925  0.00  0.00    +0.000 A 
ATOM     28  C   UNL     1       2.958   6.083  19.315  0.00  0.00    +0.000 A 
BRANCH  27  29
ATOM     29  N   UNL     1       4.563   4.677  18.240  0.00  0.00    +0.000 N 
ATOM     30  C   UNL     1       4.673   5.230  16.897  0.00  0.00    +0.000 C 
ATOM     31  C   UNL     1       5.771   4.760  19.057  0.00  0.00    +0.000 C 
ENDBRANCH  27  29
BRANCH  26  32
ATOM     32  O   UNL     1       2.872   2.430  18.937  0.00  0.00    +0.000 OA
ATOM     33  C   UNL     1       2.585   2.107  17.577  0.00  0.00    +0.000 C 
ENDBRANCH  26  32
ENDBRANCH  17  23
BRANCH   1  35
ATOM     34  C   UNL     1      -0.006  17.653  19.941  0.00  0.00    +0.000 C 
ATOM     35  O   UNL     1       0.222  16.470  20.697  0.00  0.00    +0.000 OA
ENDBRANCH   1  35
TORSDOF 4
ENDMDL
MODEL 6
REMARK VINA RESULT:      -6.8      3.577      9.595
REMARK  Name = 
REMARK  8 active torsions:
REMARK  status: ('A' for Active; 'I' for Inactive)
REMARK    1  A    between atoms: C_1  and  O_2
REMARK    2  A    between atoms: O_2  and  C_3
REMARK    3  A    between atoms: C_19  and  C_21
REMARK    4  A    between atoms: C_24  and  O_25
REMARK    5  A    between atoms: O_25  and  C_26
REMARK    6  A    between atoms: C_27  and  N_28
REMARK    7  A    between atoms: N_28  and  C_29
REMARK    8  A    between atoms: N_28  and  C_30
REMARK                            x       y       z     vdW  Elec       q    Type
REMARK                         _______ _______ _______ _____ _____    ______ ____
ROOT
ATOM      1  C   UNL     1      -2.036  14.777  21.085  0.00  0.00    +0.000 A 
ATOM      2  C   UNL     1      -0.949  14.105  20.500  0.00  0.00    +0.000 A 
ATOM      3  C   UNL     1      -1.138  12.931  19.761  0.00  0.00    +0.000 A 
ATOM      4  C   UNL     1      -2.464  12.508  19.519  0.00  0.00    +0.000 A 
ATOM      5  C   UNL     1      -3.553  13.155  20.100  0.00  0.00    +0.000 A 
ATOM      6  C   UNL     1      -3.326  14.271  20.897  0.00  0.00    +0.000 A 
ATOM      7  F   UNL     1      -4.397  14.841  21.470  0.00  0.00    +0.000 F 
ATOM      8  N   UNL     1      -2.635  11.406  18.655  0.00  0.00    +0.000 N 
ATOM      9  C   UNL     1      -3.785  10.937  18.067  0.00  0.00    +0.000 A 
ATOM     10  C   UNL     1      -3.429   9.992  17.129  0.00  0.00    +0.000 A 
ATOM     11  C   UNL     1      -2.033   9.796  17.237  0.00  0.00    +0.000 A 
ATOM     12  C   UNL     1      -1.581  10.614  18.255  0.00  0.00    +0.000 A 
ATOM     13  C   UNL     1      -0.262  10.790  18.987  0.00  0.00    +0.000 C 
ATOM     14  C   UNL     1      -0.410  10.119  20.393  0.00  0.00    +0.000 C 
ATOM     15  C   UNL     1       0.945   9.922  21.034  0.00  0.00    +0.000 C 
ATOM     16  N   UNL     1       1.645   8.943  20.236  0.00  0.00    +0.000 N 
ATOM     17  C   UNL     1       1.438   7.605  20.598  0.00  0.00    +0.000 C 
ATOM     18  O   UNL     1       0.697   7.283  21.529  0.00  0.00    +0.000 OA
ATOM     19  C   UNL     1       2.045   9.439  18.923  0.00  0.00    +0.000 C 
ATOM     20  C   UNL     1       0.923  10.186  18.167  0.00  0.00    +0.000 C 
ATOM     21  N   UNL     1      -0.029  12.250  19.198  0.00  0.00    +0.000 N 
ATOM     22  H   UNL     1       0.842  12.471  19.672  0.00  0.00    +0.000 HD
ENDROOT
BRANCH  17  23
ATOM     23  C   UNL     1       2.120   6.506  19.891  0.00  0.00    +0.000 A 
ATOM     24  C   UNL     1       2.359   6.659  18.526  0.00  0.00    +0.000 A 
ATOM     25  C   UNL     1       2.843   5.587  17.780  0.00  0.00    +0.000 A 
ATOM     26  C   UNL     1       3.053   4.336  18.380  0.00  0.00    +0.000 A 
ATOM     27  C   UNL     1       2.806   4.157  19.767  0.00  0.00    +0.000 A 
ATOM     28  C   UNL     1       2.338   5.269  20.499  0.00  0.00    +0.000 A 
BRANCH  27  29
ATOM     29  N   UNL     1       2.885   2.944  20.466  0.00  0.00    +0.000 N 
ATOM     30  C   UNL     1       4.195   2.373  20.754  0.00  0.00    +0.000 C 
ATOM     31  C   UNL     1       1.862   2.718  21.484  0.00  0.00    +0.000 C 
ENDBRANCH  27  29
BRANCH  26  32
ATOM     32  O   UNL     1       3.549   3.270  17.665  0.00  0.00    +0.000 OA
ATOM     33  C   UNL     1       2.617   2.240  17.340  0.00  0.00    +0.000 C 
ENDBRANCH  26  32
ENDBRANCH  17  23
BRANCH   1  35
ATOM     34  C   UNL     1      -0.472  16.536  21.450  0.00  0.00    +0.000 C 
ATOM     35  O   UNL     1      -1.687  15.889  21.807  0.00  0.00    +0.000 OA
ENDBRANCH   1  35
TORSDOF 4
ENDMDL
MODEL 7
REMARK VINA RESULT:      -6.6      3.368      9.699
REMARK  Name = 
REMARK  8 active torsions:
REMARK  status: ('A' for Active; 'I' for Inactive)
REMARK    1  A    between atoms: C_1  and  O_2
REMARK    2  A    between atoms: O_2  and  C_3
REMARK    3  A    between atoms: C_19  and  C_21
REMARK    4  A    between atoms: C_24  and  O_25
REMARK    5  A    between atoms: O_25  and  C_26
REMARK    6  A    between atoms: C_27  and  N_28
REMARK    7  A    between atoms: N_28  and  C_29
REMARK    8  A    between atoms: N_28  and  C_30
REMARK                            x       y       z     vdW  Elec       q    Type
REMARK                         _______ _______ _______ _____ _____    ______ ____
ROOT
ATOM      1  C   UNL     1      -2.502  14.445  21.404  0.00  0.00    +0.000 A 
ATOM      2  C   UNL     1      -1.344  13.912  20.811  0.00  0.00    +0.000 A 
ATOM      3  C   UNL     1      -1.413  12.806  19.956  0.00  0.00    +0.000 A 
ATOM      4  C   UNL     1      -2.692  12.316  19.611  0.00  0.00    +0.000 A 
ATOM      5  C   UNL     1      -3.850  12.824  20.196  0.00  0.00    +0.000 A 
ATOM      6  C   UNL     1      -3.742  13.870  21.106  0.00  0.00    +0.000 A 
ATOM      7  F   UNL     1      -4.875  14.304  21.677  0.00  0.00    +0.000 F 
ATOM      8  N   UNL     1      -2.744  11.294  18.639  0.00  0.00    +0.000 N 
ATOM      9  C   UNL     1      -3.830  10.804  17.954  0.00  0.00    +0.000 A 
ATOM     10  C   UNL     1      -3.364   9.984  16.949  0.00  0.00    +0.000 A 
ATOM     11  C   UNL     1      -1.963   9.878  17.106  0.00  0.00    +0.000 A 
ATOM     12  C   UNL     1      -1.617  10.622  18.218  0.00  0.00    +0.000 A 
ATOM     13  C   UNL     1      -0.347  10.819  19.027  0.00  0.00    +0.000 C 
ATOM     14  C   UNL     1      -0.502  10.004  20.354  0.00  0.00    +0.000 C 
ATOM     15  C   UNL     1       0.835   9.842  21.039  0.00  0.00    +0.000 C 
ATOM     16  N   UNL     1       1.640   8.998  20.187  0.00  0.00    +0.000 N 
ATOM     17  C   UNL     1       1.519   7.620  20.411  0.00  0.00    +0.000 C 
ATOM     18  O   UNL     1       0.766   7.157  21.270  0.00  0.00    +0.000 OA
ATOM     19  C   UNL     1       2.056   9.647  18.948  0.00  0.00    +0.000 C 
ATOM     20  C   UNL     1       0.914  10.383  18.213  0.00  0.00    +0.000 C 
ATOM     21  N   UNL     1      -0.234  12.263  19.386  0.00  0.00    +0.000 N 
ATOM     22  H   UNL     1       0.598  12.498  19.920  0.00  0.00    +0.000 HD
ENDROOT
BRANCH  17  23
ATOM     23  C   UNL     1       2.311   6.647  19.636  0.00  0.00    +0.000 A 
ATOM     24  C   UNL     1       2.216   5.302  19.989  0.00  0.00    +0.000 A 
ATOM     25  C   UNL     1       3.069   4.368  19.405  0.00  0.00    +0.000 A 
ATOM     26  C   UNL     1       4.056   4.772  18.495  0.00  0.00    +0.000 A 
ATOM     27  C   UNL     1       4.175   6.140  18.129  0.00  0.00    +0.000 A 
ATOM     28  C   UNL     1       3.282   7.058  18.721  0.00  0.00    +0.000 A 
BRANCH  27  29
ATOM     29  N   UNL     1       5.172   6.687  17.307  0.00  0.00    +0.000 N 
ATOM     30  C   UNL     1       6.569   6.548  17.696  0.00  0.00    +0.000 C 
ATOM     31  C   UNL     1       4.912   6.656  15.870  0.00  0.00    +0.000 C 
ENDBRANCH  27  29
BRANCH  26  32
ATOM     32  O   UNL     1       4.895   3.863  17.892  0.00  0.00    +0.000 OA
ATOM     33  C   UNL     1       4.360   3.157  16.773  0.00  0.00    +0.000 C 
ENDBRANCH  26  32
ENDBRANCH  17  23
BRANCH   1  35
ATOM     34  C   UNL     1      -1.288  15.318  23.258  0.00  0.00    +0.000 C 
ATOM     35  O   UNL     1      -2.269  15.503  22.243  0.00  0.00    +0.000 OA
ENDBRANCH   1  35
TORSDOF 4
ENDMDL
MODEL 8
REMARK VINA RESULT:      -6.6      3.351      9.454
REMARK  Name = 
REMARK  8 active torsions:
REMARK  status: ('A' for Active; 'I' for Inactive)
REMARK    1  A    between atoms: C_1  and  O_2
REMARK    2  A    between atoms: O_2  and  C_3
REMARK    3  A    between atoms: C_19  and  C_21
REMARK    4  A    between atoms: C_24  and  O_25
REMARK    5  A    between atoms: O_25  and  C_26
REMARK    6  A    between atoms: C_27  and  N_28
REMARK    7  A    between atoms: N_28  and  C_29
REMARK    8  A    between atoms: N_28  and  C_30
REMARK                            x       y       z     vdW  Elec       q    Type
REMARK                         _______ _______ _______ _____ _____    ______ ____
ROOT
ATOM      1  C   UNL     1      -3.929  15.131  22.465  0.00  0.00    +0.000 A 
ATOM      2  C   UNL     1      -2.724  14.790  21.826  0.00  0.00    +0.000 A 
ATOM      3  C   UNL     1      -2.678  13.775  20.863  0.00  0.00    +0.000 A 
ATOM      4  C   UNL     1      -3.899  13.187  20.464  0.00  0.00    +0.000 A 
ATOM      5  C   UNL     1      -5.101  13.504  21.094  0.00  0.00    +0.000 A 
ATOM      6  C   UNL     1      -5.101  14.457  22.105  0.00  0.00    +0.000 A 
ATOM      7  F   UNL     1      -6.271  14.705  22.712  0.00  0.00    +0.000 F 
ATOM      8  N   UNL     1      -3.845  12.269  19.394  0.00  0.00    +0.000 N 
ATOM      9  C   UNL     1      -4.876  11.736  18.658  0.00  0.00    +0.000 A 
ATOM     10  C   UNL     1      -4.331  11.077  17.577  0.00  0.00    +0.000 A 
ATOM     11  C   UNL     1      -2.926  11.109  17.728  0.00  0.00    +0.000 A 
ATOM     12  C   UNL     1      -2.655  11.770  18.911  0.00  0.00    +0.000 A 
ATOM     13  C   UNL     1      -1.408  12.021  19.741  0.00  0.00    +0.000 C 
ATOM     14  C   UNL     1      -1.465  11.065  20.978  0.00  0.00    +0.000 C 
ATOM     15  C   UNL     1      -0.113  10.980  21.649  0.00  0.00    +0.000 C 
ATOM     16  N   UNL     1       0.773  10.320  20.719  0.00  0.00    +0.000 N 
ATOM     17  C   UNL     1       0.804   8.921  20.801  0.00  0.00    +0.000 C 
ATOM     18  O   UNL     1       0.112   8.294  21.605  0.00  0.00    +0.000 OA
ATOM     19  C   UNL     1       1.107  11.132  19.554  0.00  0.00    +0.000 C 
ATOM     20  C   UNL     1      -0.113  11.811  18.892  0.00  0.00    +0.000 C 
ATOM     21  N   UNL     1      -1.451  13.426  20.246  0.00  0.00    +0.000 N 
ATOM     22  H   UNL     1      -0.646  13.695  20.805  0.00  0.00    +0.000 HD
ENDROOT
BRANCH  17  23
ATOM     23  C   UNL     1       1.692   8.124  19.935  0.00  0.00    +0.000 A 
ATOM     24  C   UNL     1       2.173   8.719  18.770  0.00  0.00    +0.000 A 
ATOM     25  C   UNL     1       2.872   7.957  17.837  0.00  0.00    +0.000 A 
ATOM     26  C   UNL     1       3.061   6.581  18.035  0.00  0.00    +0.000 A 
ATOM     27  C   UNL     1       2.571   5.953  19.212  0.00  0.00    +0.000 A 
ATOM     28  C   UNL     1       1.887   6.757  20.148  0.00  0.00    +0.000 A 
BRANCH  27  29
ATOM     29  N   UNL     1       2.611   4.579  19.487  0.00  0.00    +0.000 N 
ATOM     30  C   UNL     1       2.967   4.133  20.828  0.00  0.00    +0.000 C 
ATOM     31  C   UNL     1       1.631   3.752  18.788  0.00  0.00    +0.000 C 
ENDBRANCH  27  29
BRANCH  26  32
ATOM     32  O   UNL     1       3.766   5.815  17.135  0.00  0.00    +0.000 OA
ATOM     33  C   UNL     1       4.960   6.394  16.613  0.00  0.00    +0.000 C 
ENDBRANCH  26  32
ENDBRANCH  17  23
BRANCH   1  35
ATOM     34  C   UNL     1      -2.518  16.306  23.982  0.00  0.00    +0.000 C 
ATOM     35  O   UNL     1      -3.806  16.117  23.409  0.00  0.00    +0.000 OA
ENDBRANCH   1  35
TORSDOF 4
ENDMDL
MODEL 9
REMARK VINA RESULT:      -6.6      2.761      4.929
REMARK  Name = 
REMARK  8 active torsions:
REMARK  status: ('A' for Active; 'I' for Inactive)
REMARK    1  A    between atoms: C_1  and  O_2
REMARK    2  A    between atoms: O_2  and  C_3
REMARK    3  A    between atoms: C_19  and  C_21
REMARK    4  A    between atoms: C_24  and  O_25
REMARK    5  A    between atoms: O_25  and  C_26
REMARK    6  A    between atoms: C_27  and  N_28
REMARK    7  A    between atoms: N_28  and  C_29
REMARK    8  A    between atoms: N_28  and  C_30
REMARK                            x       y       z     vdW  Elec       q    Type
REMARK                         _______ _______ _______ _____ _____    ______ ____
ROOT
ATOM      1  C   UNL     1       6.112   4.859  16.904  0.00  0.00    +0.000 A 
ATOM      2  C   UNL     1       5.645   5.865  17.766  0.00  0.00    +0.000 A 
ATOM      3  C   UNL     1       4.382   5.775  18.366  0.00  0.00    +0.000 A 
ATOM      4  C   UNL     1       3.644   4.587  18.175  0.00  0.00    +0.000 A 
ATOM      5  C   UNL     1       4.087   3.583  17.315  0.00  0.00    +0.000 A 
ATOM      6  C   UNL     1       5.307   3.739  16.669  0.00  0.00    +0.000 A 
ATOM      7  F   UNL     1       5.679   2.770  15.821  0.00  0.00    +0.000 F 
ATOM      8  N   UNL     1       2.440   4.459  18.901  0.00  0.00    +0.000 N 
ATOM      9  C   UNL     1       1.658   3.346  19.091  0.00  0.00    +0.000 A 
ATOM     10  C   UNL     1       0.719   3.645  20.055  0.00  0.00    +0.000 A 
ATOM     11  C   UNL     1       0.861   5.016  20.371  0.00  0.00    +0.000 A 
ATOM     12  C   UNL     1       1.870   5.519  19.572  0.00  0.00    +0.000 A 
ATOM     13  C   UNL     1       2.425   6.903  19.285  0.00  0.00    +0.000 C 
ATOM     14  C   UNL     1       1.902   7.338  17.875  0.00  0.00    +0.000 C 
ATOM     15  C   UNL     1       2.093   8.823  17.671  0.00  0.00    +0.000 C 
ATOM     16  N   UNL     1       1.216   9.489  18.605  0.00  0.00    +0.000 N 
ATOM     17  C   UNL     1      -0.084   9.737  18.144  0.00  0.00    +0.000 C 
ATOM     18  O   UNL     1      -0.459   9.400  17.020  0.00  0.00    +0.000 OA
ATOM     19  C   UNL     1       1.637   9.358  19.996  0.00  0.00    +0.000 C 
ATOM     20  C   UNL     1       2.019   7.917  20.402  0.00  0.00    +0.000 C 
ATOM     21  N   UNL     1       3.913   6.811  19.212  0.00  0.00    +0.000 N 
ATOM     22  H   UNL     1       4.380   7.696  19.036  0.00  0.00    +0.000 HD
ENDROOT
BRANCH  17  23
ATOM     23  C   UNL     1      -1.071  10.442  18.982  0.00  0.00    +0.000 A 
ATOM     24  C   UNL     1      -2.133  11.078  18.342  0.00  0.00    +0.000 A 
ATOM     25  C   UNL     1      -2.993  11.899  19.070  0.00  0.00    +0.000 A 
ATOM     26  C   UNL     1      -2.777  12.127  20.436  0.00  0.00    +0.000 A 
ATOM     27  C   UNL     1      -1.694  11.496  21.105  0.00  0.00    +0.000 A 
ATOM     28  C   UNL     1      -0.855  10.654  20.345  0.00  0.00    +0.000 A 
BRANCH  27  29
ATOM     29  N   UNL     1      -1.313  11.711  22.438  0.00  0.00    +0.000 N 
ATOM     30  C   UNL     1      -0.797  10.595  23.219  0.00  0.00    +0.000 C 
ATOM     31  C   UNL     1      -0.727  13.015  22.738  0.00  0.00    +0.000 C 
ENDBRANCH  27  29
BRANCH  26  32
ATOM     32  O   UNL     1      -3.626  12.917  21.177  0.00  0.00    +0.000 OA
ATOM     33  C   UNL     1      -4.931  13.118  20.638  0.00  0.00    +0.000 C 
ENDBRANCH  26  32
ENDBRANCH  17  23
BRANCH   1  35
ATOM     34  C   UNL     1       7.450   5.101  14.949  0.00  0.00    +0.000 C 
ATOM     35  O   UNL     1       7.349   5.108  16.368  0.00  0.00    +0.000 OA
ENDBRANCH   1  35
TORSDOF 4
ENDMDL
