MODEL 1
REMARK VINA RESULT:      -6.6      0.000      0.000
REMARK  Name = 
REMARK  0 active torsions:
REMARK  status: ('A' for Active; 'I' for Inactive)
REMARK                            x       y       z     vdW  Elec       q    Type
REMARK                         _______ _______ _______ _____ _____    ______ ____
ROOT
ATOM      1  O   UNL     1       4.829   6.443  16.508  0.00  0.00    +0.000 OA
ATOM      2  C   UNL     1       4.005   6.330  17.389  0.00  0.00    +0.000 C 
ATOM      3  O   UNL     1       3.507   7.317  18.183  0.00  0.00    +0.000 OA
ATOM      4  C   UNL     1       2.597   6.855  19.083  0.00  0.00    +0.000 C 
ATOM      5  O   UNL     1       1.997   7.498  19.917  0.00  0.00    +0.000 OA
ATOM      6  C   UNL     1       2.498   5.437  18.840  0.00  0.00    +0.000 A 
ATOM      7  C   UNL     1       1.728   4.477  19.458  0.00  0.00    +0.000 A 
ATOM      8  F   UNL     1       0.896   4.789  20.457  0.00  0.00    +0.000 F 
ATOM      9  C   UNL     1       1.834   3.162  19.013  0.00  0.00    +0.000 A 
ATOM     10  F   UNL     1       1.100   2.201  19.590  0.00  0.00    +0.000 F 
ATOM     11  C   UNL     1       2.705   2.838  17.966  0.00  0.00    +0.000 A 
ATOM     12  F   UNL     1       2.800   1.569  17.548  0.00  0.00    +0.000 F 
ATOM     13  C   UNL     1       3.474   3.827  17.358  0.00  0.00    +0.000 A 
ATOM     14  F   UNL     1       4.306   3.520  16.358  0.00  0.00    +0.000 F 
ATOM     15  C   UNL     1       3.349   5.120  17.817  0.00  0.00    +0.000 A 
ENDROOT
TORSDOF 0
ENDMDL
MODEL 2
REMARK VINA RESULT:      -6.5      0.136      3.166
REMARK  Name = 
REMARK  0 active torsions:
REMARK  status: ('A' for Active; 'I' for Inactive)
REMARK                            x       y       z     vdW  Elec       q    Type
REMARK                         _______ _______ _______ _____ _____    ______ ____
ROOT
ATOM      1  O   UNL     1       1.936   7.495  19.821  0.00  0.00    +0.000 OA
ATOM      2  C   UNL     1       2.583   6.863  19.016  0.00  0.00    +0.000 C 
ATOM      3  O   UNL     1       3.488   7.347  18.122  0.00  0.00    +0.000 OA
ATOM      4  C   UNL     1       4.038   6.370  17.352  0.00  0.00    +0.000 C 
ATOM      5  O   UNL     1       4.862   6.504  16.475  0.00  0.00    +0.000 OA
ATOM      6  C   UNL     1       3.432   5.140  17.797  0.00  0.00    +0.000 A 
ATOM      7  C   UNL     1       3.621   3.845  17.368  0.00  0.00    +0.000 A 
ATOM      8  F   UNL     1       4.482   3.556  16.387  0.00  0.00    +0.000 F 
ATOM      9  C   UNL     1       2.889   2.834  17.985  0.00  0.00    +0.000 A 
ATOM     10  F   UNL     1       3.047   1.562  17.594  0.00  0.00    +0.000 F 
ATOM     11  C   UNL     1       1.989   3.139  19.013  0.00  0.00    +0.000 A 
ATOM     12  F   UNL     1       1.291   2.158  19.599  0.00  0.00    +0.000 F 
ATOM     13  C   UNL     1       1.817   4.457  19.429  0.00  0.00    +0.000 A 
ATOM     14  F   UNL     1       0.958   4.750  20.411  0.00  0.00    +0.000 F 
ATOM     15  C   UNL     1       2.552   5.438  18.802  0.00  0.00    +0.000 A 
ENDROOT
TORSDOF 0
ENDMDL
MODEL 3
REMARK VINA RESULT:      -6.5      2.777      4.904
REMARK  Name = 
REMARK  0 active torsions:
REMARK  status: ('A' for Active; 'I' for Inactive)
REMARK                            x       y       z     vdW  Elec       q    Type
REMARK                         _______ _______ _______ _____ _____    ______ ____
ROOT
ATOM      1  O   UNL     1       1.100   3.018  21.306  0.00  0.00    +0.000 OA
ATOM      2  C   UNL     1       1.770   3.050  20.298  0.00  0.00    +0.000 C 
ATOM      3  O   UNL     1       2.235   1.990  19.582  0.00  0.00    +0.000 OA
ATOM      4  C   UNL     1       2.966   2.369  18.500  0.00  0.00    +0.000 C 
ATOM      5  O   UNL     1       3.506   1.648  17.690  0.00  0.00    +0.000 OA
ATOM      6  C   UNL     1       2.967   3.810  18.519  0.00  0.00    +0.000 A 
ATOM      7  C   UNL     1       3.551   4.715  17.659  0.00  0.00    +0.000 A 
ATOM      8  F   UNL     1       4.255   4.310  16.597  0.00  0.00    +0.000 F 
ATOM      9  C   UNL     1       3.388   6.072  17.923  0.00  0.00    +0.000 A 
ATOM     10  F   UNL     1       3.942   6.981  17.109  0.00  0.00    +0.000 F 
ATOM     11  C   UNL     1       2.649   6.493  19.035  0.00  0.00    +0.000 A 
ATOM     12  F   UNL     1       2.501   7.801  19.279  0.00  0.00    +0.000 F 
ATOM     13  C   UNL     1       2.069   5.558  19.889  0.00  0.00    +0.000 A 
ATOM     14  F   UNL     1       1.362   5.958  20.951  0.00  0.00    +0.000 F 
ATOM     15  C   UNL     1       2.244   4.222  19.606  0.00  0.00    +0.000 A 
ENDROOT
TORSDOF 0
ENDMDL
MODEL 4
REMARK VINA RESULT:      -6.5      2.776      3.754
REMARK  Name = 
REMARK  0 active torsions:
REMARK  status: ('A' for Active; 'I' for Inactive)
REMARK                            x       y       z     vdW  Elec       q    Type
REMARK                         _______ _______ _______ _____ _____    ______ ____
ROOT
ATOM      1  O   UNL     1       3.533   1.640  17.749  0.00  0.00    +0.000 OA
ATOM      2  C   UNL     1       2.997   2.376  18.547  0.00  0.00    +0.000 C 
ATOM      3  O   UNL     1       2.270   2.018  19.640  0.00  0.00    +0.000 OA
ATOM      4  C   UNL     1       1.797   3.092  20.329  0.00  0.00    +0.000 C 
ATOM      5  O   UNL     1       1.118   3.079  21.333  0.00  0.00    +0.000 OA
ATOM      6  C   UNL     1       2.272   4.250  19.614  0.00  0.00    +0.000 A 
ATOM      7  C   UNL     1       2.093   5.592  19.868  0.00  0.00    +0.000 A 
ATOM      8  F   UNL     1       1.385   6.012  20.922  0.00  0.00    +0.000 F 
ATOM      9  C   UNL     1       2.673   6.509  18.996  0.00  0.00    +0.000 A 
ATOM     10  F   UNL     1       2.520   7.823  19.212  0.00  0.00    +0.000 F 
ATOM     11  C   UNL     1       3.414   6.067  17.894  0.00  0.00    +0.000 A 
ATOM     12  F   UNL     1       3.965   6.959  17.062  0.00  0.00    +0.000 F 
ATOM     13  C   UNL     1       3.579   4.704  17.659  0.00  0.00    +0.000 A 
ATOM     14  F   UNL     1       4.288   4.280  16.607  0.00  0.00    +0.000 F 
ATOM     15  C   UNL     1       2.996   3.817  18.537  0.00  0.00    +0.000 A 
ENDROOT
TORSDOF 0
ENDMDL
MODEL 5
REMARK VINA RESULT:      -6.5      1.178      3.300
REMARK  Name = 
REMARK  0 active torsions:
REMARK  status: ('A' for Active; 'I' for Inactive)
REMARK                            x       y       z     vdW  Elec       q    Type
REMARK                         _______ _______ _______ _____ _____    ______ ____
ROOT
ATOM      1  O   UNL     1       3.798   7.439  17.739  0.00  0.00    +0.000 OA
ATOM      2  C   UNL     1       3.943   6.252  17.547  0.00  0.00    +0.000 C 
ATOM      3  O   UNL     1       4.812   5.656  16.685  0.00  0.00    +0.000 OA
ATOM      4  C   UNL     1       4.719   4.299  16.704  0.00  0.00    +0.000 C 
ATOM      5  O   UNL     1       5.359   3.511  16.043  0.00  0.00    +0.000 OA
ATOM      6  C   UNL     1       3.698   3.995  17.674  0.00  0.00    +0.000 A 
ATOM      7  C   UNL     1       3.199   2.781  18.096  0.00  0.00    +0.000 A 
ATOM      8  F   UNL     1       3.660   1.629  17.598  0.00  0.00    +0.000 F 
ATOM      9  C   UNL     1       2.196   2.782  19.061  0.00  0.00    +0.000 A 
ATOM     10  F   UNL     1       1.687   1.621  19.495  0.00  0.00    +0.000 F 
ATOM     11  C   UNL     1       1.716   3.989  19.582  0.00  0.00    +0.000 A 
ATOM     12  F   UNL     1       0.751   3.977  20.509  0.00  0.00    +0.000 F 
ATOM     13  C   UNL     1       2.237   5.203  19.139  0.00  0.00    +0.000 A 
ATOM     14  F   UNL     1       1.780   6.357  19.635  0.00  0.00    +0.000 F 
ATOM     15  C   UNL     1       3.229   5.175  18.183  0.00  0.00    +0.000 A 
ENDROOT
TORSDOF 0
ENDMDL
MODEL 6
REMARK VINA RESULT:      -6.5      1.184      2.013
REMARK  Name = 
REMARK  0 active torsions:
REMARK  status: ('A' for Active; 'I' for Inactive)
REMARK                            x       y       z     vdW  Elec       q    Type
REMARK                         _______ _______ _______ _____ _____    ______ ____
ROOT
ATOM      1  O   UNL     1       5.405   3.495  16.047  0.00  0.00    +0.000 OA
ATOM      2  C   UNL     1       4.756   4.291  16.690  0.00  0.00    +0.000 C 
ATOM      3  O   UNL     1       4.847   5.648  16.655  0.00  0.00    +0.000 OA
ATOM      4  C   UNL     1       3.977   6.253  17.509  0.00  0.00    +0.000 C 
ATOM      5  O   UNL     1       3.838   7.442  17.695  0.00  0.00    +0.000 OA
ATOM      6  C   UNL     1       3.257   5.181  18.150  0.00  0.00    +0.000 A 
ATOM      7  C   UNL     1       2.259   5.218  19.100  0.00  0.00    +0.000 A 
ATOM      8  F   UNL     1       1.799   6.379  19.580  0.00  0.00    +0.000 F 
ATOM      9  C   UNL     1       1.735   4.010  19.550  0.00  0.00    +0.000 A 
ATOM     10  F   UNL     1       0.763   4.007  20.473  0.00  0.00    +0.000 F 
ATOM     11  C   UNL     1       2.217   2.797  19.044  0.00  0.00    +0.000 A 
ATOM     12  F   UNL     1       1.705   1.642  19.486  0.00  0.00    +0.000 F 
ATOM     13  C   UNL     1       3.226   2.787  18.085  0.00  0.00    +0.000 A 
ATOM     14  F   UNL     1       3.688   1.630  17.600  0.00  0.00    +0.000 F 
ATOM     15  C   UNL     1       3.728   3.996  17.655  0.00  0.00    +0.000 A 
ENDROOT
TORSDOF 0
ENDMDL
MODEL 7
REMARK VINA RESULT:      -6.5      3.212      4.831
REMARK  Name = 
REMARK  0 active torsions:
REMARK  status: ('A' for Active; 'I' for Inactive)
REMARK                            x       y       z     vdW  Elec       q    Type
REMARK                         _______ _______ _______ _____ _____    ______ ____
ROOT
ATOM      1  O   UNL     1       1.057   2.612  22.283  0.00  0.00    +0.000 OA
ATOM      2  C   UNL     1       2.071   2.573  21.622  0.00  0.00    +0.000 C 
ATOM      3  O   UNL     1       3.250   1.981  21.955  0.00  0.00    +0.000 OA
ATOM      4  C   UNL     1       4.199   2.125  20.990  0.00  0.00    +0.000 C 
ATOM      5  O   UNL     1       5.337   1.710  21.012  0.00  0.00    +0.000 OA
ATOM      6  C   UNL     1       3.567   2.876  19.935  0.00  0.00    +0.000 A 
ATOM      7  C   UNL     1       4.061   3.303  18.722  0.00  0.00    +0.000 A 
ATOM      8  F   UNL     1       5.318   3.035  18.350  0.00  0.00    +0.000 F 
ATOM      9  C   UNL     1       3.216   4.024  17.884  0.00  0.00    +0.000 A 
ATOM     10  F   UNL     1       3.662   4.456  16.697  0.00  0.00    +0.000 F 
ATOM     11  C   UNL     1       1.901   4.302  18.275  0.00  0.00    +0.000 A 
ATOM     12  F   UNL     1       1.098   4.998  17.461  0.00  0.00    +0.000 F 
ATOM     13  C   UNL     1       1.425   3.860  19.507  0.00  0.00    +0.000 A 
ATOM     14  F   UNL     1       0.169   4.123  19.882  0.00  0.00    +0.000 F 
ATOM     15  C   UNL     1       2.281   3.147  20.317  0.00  0.00    +0.000 A 
ENDROOT
TORSDOF 0
ENDMDL
MODEL 8
REMARK VINA RESULT:      -6.5      3.197      3.851
REMARK  Name = 
REMARK  0 active torsions:
REMARK  status: ('A' for Active; 'I' for Inactive)
REMARK                            x       y       z     vdW  Elec       q    Type
REMARK                         _______ _______ _______ _____ _____    ______ ____
ROOT
ATOM      1  O   UNL     1       5.327   1.728  20.998  0.00  0.00    +0.000 OA
ATOM      2  C   UNL     1       4.193   2.153  20.981  0.00  0.00    +0.000 C 
ATOM      3  O   UNL     1       3.247   2.016  21.949  0.00  0.00    +0.000 OA
ATOM      4  C   UNL     1       2.067   2.608  21.616  0.00  0.00    +0.000 C 
ATOM      5  O   UNL     1       1.052   2.642  22.275  0.00  0.00    +0.000 OA
ATOM      6  C   UNL     1       2.279   3.184  20.312  0.00  0.00    +0.000 A 
ATOM      7  C   UNL     1       1.424   3.900  19.502  0.00  0.00    +0.000 A 
ATOM      8  F   UNL     1       0.170   4.169  19.881  0.00  0.00    +0.000 F 
ATOM      9  C   UNL     1       1.900   4.342  18.272  0.00  0.00    +0.000 A 
ATOM     10  F   UNL     1       1.098   5.042  17.458  0.00  0.00    +0.000 F 
ATOM     11  C   UNL     1       3.214   4.061  17.879  0.00  0.00    +0.000 A 
ATOM     12  F   UNL     1       3.660   4.491  16.692  0.00  0.00    +0.000 F 
ATOM     13  C   UNL     1       4.058   3.335  18.715  0.00  0.00    +0.000 A 
ATOM     14  F   UNL     1       5.314   3.066  18.342  0.00  0.00    +0.000 F 
ATOM     15  C   UNL     1       3.563   2.909  19.928  0.00  0.00    +0.000 A 
ENDROOT
TORSDOF 0
ENDMDL
MODEL 9
REMARK VINA RESULT:      -6.4      3.124      3.911
REMARK  Name = 
REMARK  0 active torsions:
REMARK  status: ('A' for Active; 'I' for Inactive)
REMARK                            x       y       z     vdW  Elec       q    Type
REMARK                         _______ _______ _______ _____ _____    ______ ____
ROOT
ATOM      1  O   UNL     1       5.291   1.655  20.140  0.00  0.00    +0.000 OA
ATOM      2  C   UNL     1       4.321   2.318  20.434  0.00  0.00    +0.000 C 
ATOM      3  O   UNL     1       3.423   2.070  21.426  0.00  0.00    +0.000 OA
ATOM      4  C   UNL     1       2.441   3.009  21.490  0.00  0.00    +0.000 C 
ATOM      5  O   UNL     1       1.508   3.045  22.262  0.00  0.00    +0.000 OA
ATOM      6  C   UNL     1       2.740   3.953  20.442  0.00  0.00    +0.000 A 
ATOM      7  C   UNL     1       2.079   5.099  20.057  0.00  0.00    +0.000 A 
ATOM      8  F   UNL     1       0.970   5.506  20.683  0.00  0.00    +0.000 F 
ATOM      9  C   UNL     1       2.598   5.831  18.993  0.00  0.00    +0.000 A 
ATOM     10  F   UNL     1       1.983   6.952  18.591  0.00  0.00    +0.000 F 
ATOM     11  C   UNL     1       3.760   5.404  18.340  0.00  0.00    +0.000 A 
ATOM     12  F   UNL     1       4.249   6.116  17.318  0.00  0.00    +0.000 F 
ATOM     13  C   UNL     1       4.409   4.241  18.749  0.00  0.00    +0.000 A 
ATOM     14  F   UNL     1       5.520   3.831  18.127  0.00  0.00    +0.000 F 
ATOM     15  C   UNL     1       3.876   3.535  19.804  0.00  0.00    +0.000 A 
ENDROOT
TORSDOF 0
ENDMDL
