MODEL 1
REMARK VINA RESULT:      -7.0      0.000      0.000
REMARK  Name = 
REMARK  4 active torsions:
REMARK  status: ('A' for Active; 'I' for Inactive)
REMARK    1  A    between atoms: C_1  and  C_2
REMARK    2  A    between atoms: N_4  and  C_5
REMARK    3  A    between atoms: C_5  and  C_6
REMARK    4  A    between atoms: C_14  and  C_15
REMARK                            x       y       z     vdW  Elec       q    Type
REMARK                         _______ _______ _______ _____ _____    ______ ____
ROOT
ATOM      1  C   UNL     1       3.264   2.515  20.660  0.00  0.00    +0.000 C 
ATOM      2  C   UNL     1       3.409   2.763  19.170  0.00  0.00    +0.000 C 
ATOM      3  O   UNL     1       3.693   1.799  18.450  0.00  0.00    +0.000 OA
ATOM      4  N   UNL     1       3.299   4.050  18.654  0.00  0.00    +0.000 N 
ATOM      5  C   UNL     1       2.706   5.059  19.418  0.00  0.00    +0.000 A 
ATOM      6  N   UNL     1       1.984   4.912  20.507  0.00  0.00    +0.000 NA
ATOM      7  N   UNL     1       1.443   6.093  20.959  0.00  0.00    +0.000 NA
ATOM      8  C   UNL     1       1.815   7.126  20.229  0.00  0.00    +0.000 A 
ATOM      9  S   UNL     1       2.841   6.693  18.919  0.00  0.00    +0.000 S 
ENDROOT
BRANCH   8  10
ATOM     10  C   UNL     1       1.412   8.509  20.465  0.00  0.00    +0.000 A 
ATOM     11  C   UNL     1       1.211   8.987  21.758  0.00  0.00    +0.000 A 
ATOM     12  N   UNL     1       0.846  10.268  22.021  0.00  0.00    +0.000 NA
ATOM     13  C   UNL     1       0.689  11.056  20.935  0.00  0.00    +0.000 A 
ATOM     14  C   UNL     1       0.883  10.593  19.646  0.00  0.00    +0.000 A 
ATOM     15  N   UNL     1       1.244   9.316  19.383  0.00  0.00    +0.000 NA
ENDBRANCH   8  10
BRANCH   4  16
ATOM     16  C   UNL     1       3.562   4.210  17.209  0.00  0.00    +0.000 C 
BRANCH  16  17
ATOM     17  C   UNL     1       4.951   4.714  16.796  0.00  0.00    +0.000 C 
ATOM     18  C   UNL     1       5.634   4.012  15.638  0.00  0.00    +0.000 C 
ATOM     19  C   UNL     1       7.020   4.606  15.751  0.00  0.00    +0.000 C 
ATOM     20  C   UNL     1       7.225   4.634  17.255  0.00  0.00    +0.000 C 
ATOM     21  O   UNL     1       5.918   4.704  17.860  0.00  0.00    +0.000 OA
ENDBRANCH  16  17
ENDBRANCH   4  16
TORSDOF 3
ENDMDL
MODEL 2
REMARK VINA RESULT:      -6.8      0.644      1.076
REMARK  Name = 
REMARK  4 active torsions:
REMARK  status: ('A' for Active; 'I' for Inactive)
REMARK    1  A    between atoms: C_1  and  C_2
REMARK    2  A    between atoms: N_4  and  C_5
REMARK    3  A    between atoms: C_5  and  C_6
REMARK    4  A    between atoms: C_14  and  C_15
REMARK                            x       y       z     vdW  Elec       q    Type
REMARK                         _______ _______ _______ _____ _____    ______ ____
ROOT
ATOM      1  C   UNL     1       3.424   2.432  20.633  0.00  0.00    +0.000 C 
ATOM      2  C   UNL     1       3.553   2.627  19.134  0.00  0.00    +0.000 C 
ATOM      3  O   UNL     1       3.842   1.642  18.447  0.00  0.00    +0.000 OA
ATOM      4  N   UNL     1       3.420   3.894  18.572  0.00  0.00    +0.000 N 
ATOM      5  C   UNL     1       2.821   4.922  19.306  0.00  0.00    +0.000 A 
ATOM      6  N   UNL     1       2.111   4.805  20.406  0.00  0.00    +0.000 NA
ATOM      7  N   UNL     1       1.559   5.995  20.821  0.00  0.00    +0.000 NA
ATOM      8  C   UNL     1       1.910   7.005  20.050  0.00  0.00    +0.000 A 
ATOM      9  S   UNL     1       2.929   6.538  18.747  0.00  0.00    +0.000 S 
ENDROOT
BRANCH   8  10
ATOM     10  C   UNL     1       1.491   8.390  20.241  0.00  0.00    +0.000 A 
ATOM     11  C   UNL     1       1.365   9.257  19.158  0.00  0.00    +0.000 A 
ATOM     12  N   UNL     1       0.970  10.549  19.291  0.00  0.00    +0.000 NA
ATOM     13  C   UNL     1       0.703  10.941  20.556  0.00  0.00    +0.000 A 
ATOM     14  C   UNL     1       0.827  10.092  21.640  0.00  0.00    +0.000 A 
ATOM     15  N   UNL     1       1.224   8.805  21.508  0.00  0.00    +0.000 NA
ENDBRANCH   8  10
BRANCH   4  16
ATOM     16  C   UNL     1       3.667   4.005  17.120  0.00  0.00    +0.000 C 
BRANCH  16  17
ATOM     17  C   UNL     1       5.015   4.589  16.676  0.00  0.00    +0.000 C 
ATOM     18  C   UNL     1       5.675   3.975  15.458  0.00  0.00    +0.000 C 
ATOM     19  C   UNL     1       7.039   4.623  15.543  0.00  0.00    +0.000 C 
ATOM     20  C   UNL     1       7.308   4.587  17.037  0.00  0.00    +0.000 C 
ATOM     21  O   UNL     1       6.026   4.570  17.698  0.00  0.00    +0.000 OA
ENDBRANCH  16  17
ENDBRANCH   4  16
TORSDOF 3
ENDMDL
MODEL 3
REMARK VINA RESULT:      -6.7      4.146      5.471
REMARK  Name = 
REMARK  4 active torsions:
REMARK  status: ('A' for Active; 'I' for Inactive)
REMARK    1  A    between atoms: C_1  and  C_2
REMARK    2  A    between atoms: N_4  and  C_5
REMARK    3  A    between atoms: C_5  and  C_6
REMARK    4  A    between atoms: C_14  and  C_15
REMARK                            x       y       z     vdW  Elec       q    Type
REMARK                         _______ _______ _______ _____ _____    ______ ____
ROOT
ATOM      1  C   UNL     1       5.900   4.031  14.286  0.00  0.00    +0.000 C 
ATOM      2  C   UNL     1       6.882   4.707  15.226  0.00  0.00    +0.000 C 
ATOM      3  O   UNL     1       7.866   5.264  14.728  0.00  0.00    +0.000 OA
ATOM      4  N   UNL     1       6.707   4.630  16.604  0.00  0.00    +0.000 N 
ATOM      5  C   UNL     1       5.467   4.256  17.130  0.00  0.00    +0.000 A 
ATOM      6  N   UNL     1       4.318   4.200  16.495  0.00  0.00    +0.000 NA
ATOM      7  N   UNL     1       3.258   3.909  17.321  0.00  0.00    +0.000 NA
ATOM      8  C   UNL     1       3.637   3.697  18.565  0.00  0.00    +0.000 A 
ATOM      9  S   UNL     1       5.333   3.867  18.793  0.00  0.00    +0.000 S 
ENDROOT
BRANCH   8  10
ATOM     10  C   UNL     1       2.744   3.359  19.669  0.00  0.00    +0.000 A 
ATOM     11  C   UNL     1       3.223   2.727  20.813  0.00  0.00    +0.000 A 
ATOM     12  N   UNL     1       2.427   2.405  21.866  0.00  0.00    +0.000 NA
ATOM     13  C   UNL     1       1.127   2.743  21.727  0.00  0.00    +0.000 A 
ATOM     14  C   UNL     1       0.637   3.368  20.595  0.00  0.00    +0.000 A 
ATOM     15  N   UNL     1       1.429   3.687  19.545  0.00  0.00    +0.000 NA
ENDBRANCH   8  10
BRANCH   4  16
ATOM     16  C   UNL     1       7.769   5.224  17.441  0.00  0.00    +0.000 C 
BRANCH  16  17
ATOM     17  C   UNL     1       7.564   6.667  17.924  0.00  0.00    +0.000 C 
ATOM     18  C   UNL     1       7.562   7.761  16.875  0.00  0.00    +0.000 C 
ATOM     19  C   UNL     1       7.616   8.981  17.767  0.00  0.00    +0.000 C 
ATOM     20  C   UNL     1       8.588   8.535  18.846  0.00  0.00    +0.000 C 
ATOM     21  O   UNL     1       8.520   7.096  18.909  0.00  0.00    +0.000 OA
ENDBRANCH  16  17
ENDBRANCH   4  16
TORSDOF 3
ENDMDL
MODEL 4
REMARK VINA RESULT:      -6.5      1.884      3.698
REMARK  Name = 
REMARK  4 active torsions:
REMARK  status: ('A' for Active; 'I' for Inactive)
REMARK    1  A    between atoms: C_1  and  C_2
REMARK    2  A    between atoms: N_4  and  C_5
REMARK    3  A    between atoms: C_5  and  C_6
REMARK    4  A    between atoms: C_14  and  C_15
REMARK                            x       y       z     vdW  Elec       q    Type
REMARK                         _______ _______ _______ _____ _____    ______ ____
ROOT
ATOM      1  C   UNL     1       5.336   5.687  15.349  0.00  0.00    +0.000 C 
ATOM      2  C   UNL     1       5.594   4.968  16.660  0.00  0.00    +0.000 C 
ATOM      3  O   UNL     1       6.498   4.128  16.689  0.00  0.00    +0.000 OA
ATOM      4  N   UNL     1       4.783   5.204  17.767  0.00  0.00    +0.000 N 
ATOM      5  C   UNL     1       3.969   6.340  17.805  0.00  0.00    +0.000 A 
ATOM      6  N   UNL     1       4.039   7.395  17.025  0.00  0.00    +0.000 NA
ATOM      7  N   UNL     1       3.172   8.398  17.393  0.00  0.00    +0.000 NA
ATOM      8  C   UNL     1       2.420   8.055  18.420  0.00  0.00    +0.000 A 
ATOM      9  S   UNL     1       2.757   6.476  19.009  0.00  0.00    +0.000 S 
ENDROOT
BRANCH   8  10
ATOM     10  C   UNL     1       1.401   8.902  19.033  0.00  0.00    +0.000 A 
ATOM     11  C   UNL     1       0.705   9.845  18.281  0.00  0.00    +0.000 A 
ATOM     12  N   UNL     1      -0.256  10.646  18.811  0.00  0.00    +0.000 NA
ATOM     13  C   UNL     1      -0.495  10.464  20.128  0.00  0.00    +0.000 A 
ATOM     14  C   UNL     1       0.192   9.533  20.886  0.00  0.00    +0.000 A 
ATOM     15  N   UNL     1       1.151   8.737  20.360  0.00  0.00    +0.000 NA
ENDBRANCH   8  10
BRANCH   4  16
ATOM     16  C   UNL     1       5.042   4.381  18.966  0.00  0.00    +0.000 C 
BRANCH  16  17
ATOM     17  C   UNL     1       4.138   3.162  19.194  0.00  0.00    +0.000 C 
ATOM     18  C   UNL     1       3.255   2.721  18.044  0.00  0.00    +0.000 C 
ATOM     19  C   UNL     1       2.372   1.722  18.758  0.00  0.00    +0.000 C 
ATOM     20  C   UNL     1       2.131   2.414  20.087  0.00  0.00    +0.000 C 
ATOM     21  O   UNL     1       3.250   3.294  20.317  0.00  0.00    +0.000 OA
ENDBRANCH  16  17
ENDBRANCH   4  16
TORSDOF 3
ENDMDL
MODEL 5
REMARK VINA RESULT:      -6.5      2.955      6.924
REMARK  Name = 
REMARK  4 active torsions:
REMARK  status: ('A' for Active; 'I' for Inactive)
REMARK    1  A    between atoms: C_1  and  C_2
REMARK    2  A    between atoms: N_4  and  C_5
REMARK    3  A    between atoms: C_5  and  C_6
REMARK    4  A    between atoms: C_14  and  C_15
REMARK                            x       y       z     vdW  Elec       q    Type
REMARK                         _______ _______ _______ _____ _____    ______ ____
ROOT
ATOM      1  C   UNL     1       1.633   3.024  19.527  0.00  0.00    +0.000 C 
ATOM      2  C   UNL     1       1.956   4.436  19.979  0.00  0.00    +0.000 C 
ATOM      3  O   UNL     1       1.460   4.830  21.039  0.00  0.00    +0.000 OA
ATOM      4  N   UNL     1       2.726   5.275  19.179  0.00  0.00    +0.000 N 
ATOM      5  C   UNL     1       3.502   4.736  18.148  0.00  0.00    +0.000 A 
ATOM      6  N   UNL     1       3.817   3.474  17.966  0.00  0.00    +0.000 NA
ATOM      7  N   UNL     1       4.694   3.280  16.924  0.00  0.00    +0.000 NA
ATOM      8  C   UNL     1       4.982   4.405  16.299  0.00  0.00    +0.000 A 
ATOM      9  S   UNL     1       4.202   5.777  16.980  0.00  0.00    +0.000 S 
ENDROOT
BRANCH   8  10
ATOM     10  C   UNL     1       5.875   4.520  15.149  0.00  0.00    +0.000 A 
ATOM     11  C   UNL     1       7.009   5.326  15.199  0.00  0.00    +0.000 A 
ATOM     12  N   UNL     1       7.869   5.453  14.156  0.00  0.00    +0.000 NA
ATOM     13  C   UNL     1       7.549   4.737  13.056  0.00  0.00    +0.000 A 
ATOM     14  C   UNL     1       6.424   3.936  12.993  0.00  0.00    +0.000 A 
ATOM     15  N   UNL     1       5.565   3.810  14.030  0.00  0.00    +0.000 NA
ENDBRANCH   8  10
BRANCH   4  16
ATOM     16  C   UNL     1       2.898   6.665  19.648  0.00  0.00    +0.000 C 
BRANCH  16  17
ATOM     17  C   UNL     1       1.882   7.706  19.161  0.00  0.00    +0.000 C 
ATOM     18  C   UNL     1       2.304   8.620  18.028  0.00  0.00    +0.000 C 
ATOM     19  C   UNL     1       1.171   9.621  18.060  0.00  0.00    +0.000 C 
ATOM     20  C   UNL     1       0.955   9.798  19.552  0.00  0.00    +0.000 C 
ATOM     21  O   UNL     1       1.406   8.587  20.193  0.00  0.00    +0.000 OA
ENDBRANCH  16  17
ENDBRANCH   4  16
TORSDOF 3
ENDMDL
MODEL 6
REMARK VINA RESULT:      -6.5      1.870      3.553
REMARK  Name = 
REMARK  4 active torsions:
REMARK  status: ('A' for Active; 'I' for Inactive)
REMARK    1  A    between atoms: C_1  and  C_2
REMARK    2  A    between atoms: N_4  and  C_5
REMARK    3  A    between atoms: C_5  and  C_6
REMARK    4  A    between atoms: C_14  and  C_15
REMARK                            x       y       z     vdW  Elec       q    Type
REMARK                         _______ _______ _______ _____ _____    ______ ____
ROOT
ATOM      1  C   UNL     1       5.231   5.698  15.559  0.00  0.00    +0.000 C 
ATOM      2  C   UNL     1       5.450   4.949  16.861  0.00  0.00    +0.000 C 
ATOM      3  O   UNL     1       6.336   4.088  16.889  0.00  0.00    +0.000 OA
ATOM      4  N   UNL     1       4.625   5.181  17.957  0.00  0.00    +0.000 N 
ATOM      5  C   UNL     1       3.835   6.334  18.003  0.00  0.00    +0.000 A 
ATOM      6  N   UNL     1       3.942   7.402  17.245  0.00  0.00    +0.000 NA
ATOM      7  N   UNL     1       3.090   8.416  17.618  0.00  0.00    +0.000 NA
ATOM      8  C   UNL     1       2.312   8.071  18.625  0.00  0.00    +0.000 A 
ATOM      9  S   UNL     1       2.605   6.473  19.188  0.00  0.00    +0.000 S 
ENDROOT
BRANCH   8  10
ATOM     10  C   UNL     1       1.301   8.928  19.236  0.00  0.00    +0.000 A 
ATOM     11  C   UNL     1       1.047   8.875  20.604  0.00  0.00    +0.000 A 
ATOM     12  N   UNL     1       0.122   9.662  21.213  0.00  0.00    +0.000 NA
ATOM     13  C   UNL     1      -0.540  10.508  20.395  0.00  0.00    +0.000 A 
ATOM     14  C   UNL     1      -0.300  10.568  19.034  0.00  0.00    +0.000 A 
ATOM     15  N   UNL     1       0.619   9.783  18.427  0.00  0.00    +0.000 NA
ENDBRANCH   8  10
BRANCH   4  16
ATOM     16  C   UNL     1       4.844   4.330  19.145  0.00  0.00    +0.000 C 
BRANCH  16  17
ATOM     17  C   UNL     1       3.873   3.163  19.366  0.00  0.00    +0.000 C 
ATOM     18  C   UNL     1       2.933   2.810  18.231  0.00  0.00    +0.000 C 
ATOM     19  C   UNL     1       2.010   1.847  18.943  0.00  0.00    +0.000 C 
ATOM     20  C   UNL     1       1.848   2.515  20.297  0.00  0.00    +0.000 C 
ATOM     21  O   UNL     1       3.026   3.317  20.517  0.00  0.00    +0.000 OA
ENDBRANCH  16  17
ENDBRANCH   4  16
TORSDOF 3
ENDMDL
MODEL 7
REMARK VINA RESULT:      -6.3      3.117      7.148
REMARK  Name = 
REMARK  4 active torsions:
REMARK  status: ('A' for Active; 'I' for Inactive)
REMARK    1  A    between atoms: C_1  and  C_2
REMARK    2  A    between atoms: N_4  and  C_5
REMARK    3  A    between atoms: C_5  and  C_6
REMARK    4  A    between atoms: C_14  and  C_15
REMARK                            x       y       z     vdW  Elec       q    Type
REMARK                         _______ _______ _______ _____ _____    ______ ____
ROOT
ATOM      1  C   UNL     1       2.364   2.868  19.345  0.00  0.00    +0.000 C 
ATOM      2  C   UNL     1       2.632   4.311  19.730  0.00  0.00    +0.000 C 
ATOM      3  O   UNL     1       2.193   4.710  20.813  0.00  0.00    +0.000 OA
ATOM      4  N   UNL     1       3.289   5.167  18.850  0.00  0.00    +0.000 N 
ATOM      5  C   UNL     1       4.018   4.640  17.780  0.00  0.00    +0.000 A 
ATOM      6  N   UNL     1       4.396   3.393  17.612  0.00  0.00    +0.000 NA
ATOM      7  N   UNL     1       5.203   3.217  16.512  0.00  0.00    +0.000 NA
ATOM      8  C   UNL     1       5.376   4.335  15.834  0.00  0.00    +0.000 A 
ATOM      9  S   UNL     1       4.565   5.680  16.533  0.00  0.00    +0.000 S 
ENDROOT
BRANCH   8  10
ATOM     10  C   UNL     1       6.172   4.464  14.618  0.00  0.00    +0.000 A 
ATOM     11  C   UNL     1       5.866   3.724  13.478  0.00  0.00    +0.000 A 
ATOM     12  N   UNL     1       6.576   3.822  12.325  0.00  0.00    +0.000 NA
ATOM     13  C   UNL     1       7.608   4.693  12.356  0.00  0.00    +0.000 A 
ATOM     14  C   UNL     1       7.924   5.431  13.482  0.00  0.00    +0.000 A 
ATOM     15  N   UNL     1       7.219   5.333  14.633  0.00  0.00    +0.000 NA
ENDBRANCH   8  10
BRANCH   4  16
ATOM     16  C   UNL     1       3.409   6.579  19.265  0.00  0.00    +0.000 C 
BRANCH  16  17
ATOM     17  C   UNL     1       2.249   7.520  18.913  0.00  0.00    +0.000 C 
ATOM     18  C   UNL     1       2.493   8.559  17.837  0.00  0.00    +0.000 C 
ATOM     19  C   UNL     1       1.253   9.409  18.006  0.00  0.00    +0.000 C 
ATOM     20  C   UNL     1       1.105   9.448  19.516  0.00  0.00    +0.000 C 
ATOM     21  O   UNL     1       1.734   8.258  20.035  0.00  0.00    +0.000 OA
ENDBRANCH  16  17
ENDBRANCH   4  16
TORSDOF 3
ENDMDL
MODEL 8
REMARK VINA RESULT:      -6.1      2.236      3.971
REMARK  Name = 
REMARK  4 active torsions:
REMARK  status: ('A' for Active; 'I' for Inactive)
REMARK    1  A    between atoms: C_1  and  C_2
REMARK    2  A    between atoms: N_4  and  C_5
REMARK    3  A    between atoms: C_5  and  C_6
REMARK    4  A    between atoms: C_14  and  C_15
REMARK                            x       y       z     vdW  Elec       q    Type
REMARK                         _______ _______ _______ _____ _____    ______ ____
ROOT
ATOM      1  C   UNL     1       4.857   6.412  15.948  0.00  0.00    +0.000 C 
ATOM      2  C   UNL     1       4.950   5.788  17.328  0.00  0.00    +0.000 C 
ATOM      3  O   UNL     1       5.838   4.952  17.524  0.00  0.00    +0.000 OA
ATOM      4  N   UNL     1       4.015   6.101  18.310  0.00  0.00    +0.000 N 
ATOM      5  C   UNL     1       3.212   7.237  18.171  0.00  0.00    +0.000 A 
ATOM      6  N   UNL     1       3.383   8.235  17.333  0.00  0.00    +0.000 NA
ATOM      7  N   UNL     1       2.486   9.260  17.524  0.00  0.00    +0.000 NA
ATOM      8  C   UNL     1       1.614   8.991  18.475  0.00  0.00    +0.000 A 
ATOM      9  S   UNL     1       1.865   7.456  19.208  0.00  0.00    +0.000 S 
ENDROOT
BRANCH   8  10
ATOM     10  C   UNL     1       0.536   9.879  18.900  0.00  0.00    +0.000 A 
ATOM     11  C   UNL     1       0.527  10.436  20.176  0.00  0.00    +0.000 A 
ATOM     12  N   UNL     1      -0.452  11.273  20.607  0.00  0.00    +0.000 NA
ATOM     13  C   UNL     1      -1.424  11.533  19.707  0.00  0.00    +0.000 A 
ATOM     14  C   UNL     1      -1.428  10.984  18.438  0.00  0.00    +0.000 A 
ATOM     15  N   UNL     1      -0.456  10.147  18.008  0.00  0.00    +0.000 NA
ENDBRANCH   8  10
BRANCH   4  16
ATOM     16  C   UNL     1       4.121   5.365  19.586  0.00  0.00    +0.000 C 
BRANCH  16  17
ATOM     17  C   UNL     1       3.181   4.170  19.793  0.00  0.00    +0.000 C 
ATOM     18  C   UNL     1       2.209   3.843  18.676  0.00  0.00    +0.000 C 
ATOM     19  C   UNL     1       1.330   2.833  19.379  0.00  0.00    +0.000 C 
ATOM     20  C   UNL     1       1.202   3.443  20.764  0.00  0.00    +0.000 C 
ATOM     21  O   UNL     1       2.371   4.260  20.977  0.00  0.00    +0.000 OA
ENDBRANCH  16  17
ENDBRANCH   4  16
TORSDOF 3
ENDMDL
MODEL 9
REMARK VINA RESULT:      -6.1      2.295      4.129
REMARK  Name = 
REMARK  4 active torsions:
REMARK  status: ('A' for Active; 'I' for Inactive)
REMARK    1  A    between atoms: C_1  and  C_2
REMARK    2  A    between atoms: N_4  and  C_5
REMARK    3  A    between atoms: C_5  and  C_6
REMARK    4  A    between atoms: C_14  and  C_15
REMARK                            x       y       z     vdW  Elec       q    Type
REMARK                         _______ _______ _______ _____ _____    ______ ____
ROOT
ATOM      1  C   UNL     1       4.827   6.521  15.969  0.00  0.00    +0.000 C 
ATOM      2  C   UNL     1       4.868   5.871  17.340  0.00  0.00    +0.000 C 
ATOM      3  O   UNL     1       5.728   5.007  17.542  0.00  0.00    +0.000 OA
ATOM      4  N   UNL     1       3.916   6.191  18.303  0.00  0.00    +0.000 N 
ATOM      5  C   UNL     1       3.147   7.351  18.164  0.00  0.00    +0.000 A 
ATOM      6  N   UNL     1       3.366   8.358  17.349  0.00  0.00    +0.000 NA
ATOM      7  N   UNL     1       2.493   9.404  17.536  0.00  0.00    +0.000 NA
ATOM      8  C   UNL     1       1.589   9.141  18.459  0.00  0.00    +0.000 A 
ATOM      9  S   UNL     1       1.780   7.588  19.170  0.00  0.00    +0.000 S 
ENDROOT
BRANCH   8  10
ATOM     10  C   UNL     1       0.524  10.050  18.873  0.00  0.00    +0.000 A 
ATOM     11  C   UNL     1      -0.665  10.137  18.154  0.00  0.00    +0.000 A 
ATOM     12  N   UNL     1      -1.683  10.963  18.510  0.00  0.00    +0.000 NA
ATOM     13  C   UNL     1      -1.463  11.700  19.620  0.00  0.00    +0.000 A 
ATOM     14  C   UNL     1      -0.285  11.626  20.341  0.00  0.00    +0.000 A 
ATOM     15  N   UNL     1       0.730  10.806  19.986  0.00  0.00    +0.000 NA
ENDBRANCH   8  10
BRANCH   4  16
ATOM     16  C   UNL     1       3.969   5.430  19.568  0.00  0.00    +0.000 C 
BRANCH  16  17
ATOM     17  C   UNL     1       3.046   4.211  19.698  0.00  0.00    +0.000 C 
ATOM     18  C   UNL     1       2.069   3.949  18.569  0.00  0.00    +0.000 C 
ATOM     19  C   UNL     1       1.209   2.882  19.207  0.00  0.00    +0.000 C 
ATOM     20  C   UNL     1       1.085   3.392  20.632  0.00  0.00    +0.000 C 
ATOM     21  O   UNL     1       2.246   4.208  20.892  0.00  0.00    +0.000 OA
ENDBRANCH  16  17
ENDBRANCH   4  16
TORSDOF 3
ENDMDL
