MODEL 1
REMARK VINA RESULT:      -9.2      0.000      0.000
REMARK  Name = 
REMARK  7 active torsions:
REMARK  status: ('A' for Active; 'I' for Inactive)
REMARK    1  A    between atoms: C_1  and  C_2
REMARK    2  A    between atoms: C_2  and  C_3
REMARK    3  A    between atoms: N_7  and  C_8
REMARK    4  A    between atoms: C_8  and  C_9
REMARK    5  A    between atoms: C_19  and  C_20
REMARK    6  A    between atoms: N_22  and  C_23
REMARK    7  A    between atoms: C_23  and  C_24
REMARK                            x       y       z     vdW  Elec       q    Type
REMARK                         _______ _______ _______ _____ _____    ______ ____
ROOT
ATOM      1  C   UNL     1       3.262   2.825  21.360  0.00  0.00    +0.000 C 
ATOM      2  C   UNL     1       2.090   3.043  20.384  0.00  0.00    +0.000 C 
ATOM      3  C   UNL     1       0.755   2.844  21.136  0.00  0.00    +0.000 C 
ATOM      4  C   UNL     1       2.127   1.971  19.291  0.00  0.00    +0.000 C 
ATOM      5  C   UNL     1       3.089   2.264  18.182  0.00  0.00    +0.000 C 
ATOM      6  O   UNL     1       3.812   1.384  17.717  0.00  0.00    +0.000 OA
ATOM      7  N   UNL     1       2.958   3.535  17.636  0.00  0.00    +0.000 N 
ATOM      8  C   UNL     1       2.507   4.636  18.431  0.00  0.00    +0.000 A 
ATOM      9  C   UNL     1       2.489   5.939  17.913  0.00  0.00    +0.000 A 
ATOM     10  C   UNL     1       2.313   7.057  18.732  0.00  0.00    +0.000 A 
ATOM     11  C   UNL     1       1.984   6.871  20.070  0.00  0.00    +0.000 A 
ATOM     12  C   UNL     1       1.898   5.577  20.585  0.00  0.00    +0.000 A 
ATOM     13  C   UNL     1       2.164   4.444  19.782  0.00  0.00    +0.000 A 
ENDROOT
BRANCH  10  14
ATOM     14  C   UNL     1       2.504   8.447  18.227  0.00  0.00    +0.000 C 
ATOM     15  O   UNL     1       3.544   8.737  17.646  0.00  0.00    +0.000 OA
ATOM     16  N   UNL     1       1.503   9.387  18.355  0.00  0.00    +0.000 N 
ATOM     17  H   UNL     1       1.774  10.311  18.026  0.00  0.00    +0.000 HD
BRANCH  16  18
ATOM     18  C   UNL     1       0.220   9.245  19.010  0.00  0.00    +0.000 C 
BRANCH  18  19
ATOM     19  C   UNL     1      -0.033  10.097  20.214  0.00  0.00    +0.000 A 
ATOM     20  C   UNL     1      -0.104  11.483  20.030  0.00  0.00    +0.000 A 
ATOM     21  F   UNL     1       0.097  12.005  18.810  0.00  0.00    +0.000 F 
ATOM     22  C   UNL     1      -0.401  12.347  21.075  0.00  0.00    +0.000 A 
ATOM     23  C   UNL     1      -0.651  11.810  22.330  0.00  0.00    +0.000 A 
ATOM     24  F   UNL     1      -0.950  12.632  23.341  0.00  0.00    +0.000 F 
ATOM     25  C   UNL     1      -0.617  10.441  22.545  0.00  0.00    +0.000 A 
ATOM     26  C   UNL     1      -0.315   9.592  21.481  0.00  0.00    +0.000 A 
ATOM     27  F   UNL     1      -0.320   8.271  21.692  0.00  0.00    +0.000 F 
ENDBRANCH  18  19
ENDBRANCH  16  18
ENDBRANCH  10  14
BRANCH   7  28
ATOM     28  C   UNL     1       3.402   3.713  16.251  0.00  0.00    +0.000 C 
BRANCH  28  29
ATOM     29  C   UNL     1       4.861   4.126  16.130  0.00  0.00    +0.000 A 
ATOM     30  C   UNL     1       5.402   4.409  14.866  0.00  0.00    +0.000 A 
ATOM     31  C   UNL     1       6.738   4.789  14.746  0.00  0.00    +0.000 A 
ATOM     32  F   UNL     1       7.237   5.045  13.528  0.00  0.00    +0.000 F 
ATOM     33  C   UNL     1       7.558   4.907  15.857  0.00  0.00    +0.000 A 
ATOM     34  C   UNL     1       7.023   4.643  17.108  0.00  0.00    +0.000 A 
ATOM     35  F   UNL     1       7.798   4.750  18.195  0.00  0.00    +0.000 F 
ATOM     36  C   UNL     1       5.690   4.267  17.255  0.00  0.00    +0.000 A 
ENDBRANCH  28  29
ENDBRANCH   7  28
TORSDOF 5
ENDMDL
MODEL 2
REMARK VINA RESULT:      -9.1      0.060      1.388
REMARK  Name = 
REMARK  7 active torsions:
REMARK  status: ('A' for Active; 'I' for Inactive)
REMARK    1  A    between atoms: C_1  and  C_2
REMARK    2  A    between atoms: C_2  and  C_3
REMARK    3  A    between atoms: N_7  and  C_8
REMARK    4  A    between atoms: C_8  and  C_9
REMARK    5  A    between atoms: C_19  and  C_20
REMARK    6  A    between atoms: N_22  and  C_23
REMARK    7  A    between atoms: C_23  and  C_24
REMARK                            x       y       z     vdW  Elec       q    Type
REMARK                         _______ _______ _______ _____ _____    ______ ____
ROOT
ATOM      1  C   UNL     1       3.233   2.840  21.384  0.00  0.00    +0.000 C 
ATOM      2  C   UNL     1       2.066   3.057  20.402  0.00  0.00    +0.000 C 
ATOM      3  C   UNL     1       0.727   2.867  21.151  0.00  0.00    +0.000 C 
ATOM      4  C   UNL     1       2.103   1.979  19.316  0.00  0.00    +0.000 C 
ATOM      5  C   UNL     1       3.071   2.262  18.209  0.00  0.00    +0.000 C 
ATOM      6  O   UNL     1       3.793   1.376  17.752  0.00  0.00    +0.000 OA
ATOM      7  N   UNL     1       2.947   3.530  17.655  0.00  0.00    +0.000 N 
ATOM      8  C   UNL     1       2.496   4.637  18.443  0.00  0.00    +0.000 A 
ATOM      9  C   UNL     1       2.485   5.937  17.916  0.00  0.00    +0.000 A 
ATOM     10  C   UNL     1       2.310   7.061  18.729  0.00  0.00    +0.000 A 
ATOM     11  C   UNL     1       1.975   6.883  20.066  0.00  0.00    +0.000 A 
ATOM     12  C   UNL     1       1.882   5.592  20.588  0.00  0.00    +0.000 A 
ATOM     13  C   UNL     1       2.148   4.454  19.792  0.00  0.00    +0.000 A 
ENDROOT
BRANCH  10  14
ATOM     14  C   UNL     1       2.508   8.446  18.216  0.00  0.00    +0.000 C 
ATOM     15  O   UNL     1       3.554   8.731  17.643  0.00  0.00    +0.000 OA
ATOM     16  N   UNL     1       1.507   9.389  18.329  0.00  0.00    +0.000 N 
ATOM     17  H   UNL     1       1.783  10.310  17.996  0.00  0.00    +0.000 HD
BRANCH  16  18
ATOM     18  C   UNL     1       0.217   9.253  18.972  0.00  0.00    +0.000 C 
BRANCH  18  19
ATOM     19  C   UNL     1      -0.035  10.091  20.185  0.00  0.00    +0.000 A 
ATOM     20  C   UNL     1      -0.104  11.480  20.017  0.00  0.00    +0.000 A 
ATOM     21  F   UNL     1       0.097  12.016  18.803  0.00  0.00    +0.000 F 
ATOM     22  C   UNL     1      -0.401  12.332  21.072  0.00  0.00    +0.000 A 
ATOM     23  C   UNL     1      -0.652  11.781  22.321  0.00  0.00    +0.000 A 
ATOM     24  F   UNL     1      -0.950  12.591  23.341  0.00  0.00    +0.000 F 
ATOM     25  C   UNL     1      -0.619  10.409  22.519  0.00  0.00    +0.000 A 
ATOM     26  C   UNL     1      -0.318   9.572  21.446  0.00  0.00    +0.000 A 
ATOM     27  F   UNL     1      -0.324   8.249  21.642  0.00  0.00    +0.000 F 
ENDBRANCH  18  19
ENDBRANCH  16  18
ENDBRANCH  10  14
BRANCH   7  28
ATOM     28  C   UNL     1       3.396   3.698  16.271  0.00  0.00    +0.000 C 
BRANCH  28  29
ATOM     29  C   UNL     1       4.849   4.133  16.154  0.00  0.00    +0.000 A 
ATOM     30  C   UNL     1       5.634   4.259  17.310  0.00  0.00    +0.000 A 
ATOM     31  C   UNL     1       6.968   4.656  17.212  0.00  0.00    +0.000 A 
ATOM     32  F   UNL     1       7.697   4.780  18.330  0.00  0.00    +0.000 F 
ATOM     33  C   UNL     1       7.552   4.925  15.983  0.00  0.00    +0.000 A 
ATOM     34  C   UNL     1       6.784   4.787  14.839  0.00  0.00    +0.000 A 
ATOM     35  F   UNL     1       7.328   5.042  13.642  0.00  0.00    +0.000 F 
ATOM     36  C   UNL     1       5.451   4.387  14.910  0.00  0.00    +0.000 A 
ENDBRANCH  28  29
ENDBRANCH   7  28
TORSDOF 5
ENDMDL
MODEL 3
REMARK VINA RESULT:      -9.0      1.174      2.126
REMARK  Name = 
REMARK  7 active torsions:
REMARK  status: ('A' for Active; 'I' for Inactive)
REMARK    1  A    between atoms: C_1  and  C_2
REMARK    2  A    between atoms: C_2  and  C_3
REMARK    3  A    between atoms: N_7  and  C_8
REMARK    4  A    between atoms: C_8  and  C_9
REMARK    5  A    between atoms: C_19  and  C_20
REMARK    6  A    between atoms: N_22  and  C_23
REMARK    7  A    between atoms: C_23  and  C_24
REMARK                            x       y       z     vdW  Elec       q    Type
REMARK                         _______ _______ _______ _____ _____    ______ ____
ROOT
ATOM      1  C   UNL     1       3.293   2.798  21.386  0.00  0.00    +0.000 C 
ATOM      2  C   UNL     1       2.114   2.988  20.413  0.00  0.00    +0.000 C 
ATOM      3  C   UNL     1       0.786   2.768  21.173  0.00  0.00    +0.000 C 
ATOM      4  C   UNL     1       2.166   1.910  19.327  0.00  0.00    +0.000 C 
ATOM      5  C   UNL     1       3.118   2.214  18.212  0.00  0.00    +0.000 C 
ATOM      6  O   UNL     1       3.856   1.345  17.750  0.00  0.00    +0.000 OA
ATOM      7  N   UNL     1       2.961   3.479  17.659  0.00  0.00    +0.000 N 
ATOM      8  C   UNL     1       2.492   4.576  18.450  0.00  0.00    +0.000 A 
ATOM      9  C   UNL     1       2.447   5.875  17.923  0.00  0.00    +0.000 A 
ATOM     10  C   UNL     1       2.253   6.995  18.737  0.00  0.00    +0.000 A 
ATOM     11  C   UNL     1       1.934   6.811  20.077  0.00  0.00    +0.000 A 
ATOM     12  C   UNL     1       1.874   5.518  20.600  0.00  0.00    +0.000 A 
ATOM     13  C   UNL     1       2.159   4.386  19.802  0.00  0.00    +0.000 A 
ENDROOT
BRANCH  10  14
ATOM     14  C   UNL     1       2.416   8.385  18.222  0.00  0.00    +0.000 C 
ATOM     15  O   UNL     1       3.158   8.589  17.268  0.00  0.00    +0.000 OA
ATOM     16  N   UNL     1       1.699   9.428  18.771  0.00  0.00    +0.000 N 
ATOM     17  H   UNL     1       1.940  10.333  18.375  0.00  0.00    +0.000 HD
BRANCH  16  18
ATOM     18  C   UNL     1       0.789   9.394  19.896  0.00  0.00    +0.000 C 
BRANCH  18  19
ATOM     19  C   UNL     1      -0.387  10.318  19.854  0.00  0.00    +0.000 A 
ATOM     20  C   UNL     1      -0.621  11.128  20.972  0.00  0.00    +0.000 A 
ATOM     21  F   UNL     1       0.174  11.026  22.049  0.00  0.00    +0.000 F 
ATOM     22  C   UNL     1      -1.646  12.064  20.997  0.00  0.00    +0.000 A 
ATOM     23  C   UNL     1      -2.445  12.205  19.871  0.00  0.00    +0.000 A 
ATOM     24  F   UNL     1      -3.428  13.110  19.879  0.00  0.00    +0.000 F 
ATOM     25  C   UNL     1      -2.227  11.439  18.736  0.00  0.00    +0.000 A 
ATOM     26  C   UNL     1      -1.192  10.505  18.733  0.00  0.00    +0.000 A 
ATOM     27  F   UNL     1      -0.969   9.797  17.619  0.00  0.00    +0.000 F 
ENDBRANCH  18  19
ENDBRANCH  16  18
ENDBRANCH  10  14
BRANCH   7  28
ATOM     28  C   UNL     1       3.396   3.657  16.272  0.00  0.00    +0.000 C 
BRANCH  28  29
ATOM     29  C   UNL     1       4.842   4.109  16.142  0.00  0.00    +0.000 A 
ATOM     30  C   UNL     1       5.631   4.260  17.293  0.00  0.00    +0.000 A 
ATOM     31  C   UNL     1       6.959   4.673  17.183  0.00  0.00    +0.000 A 
ATOM     32  F   UNL     1       7.690   4.822  18.296  0.00  0.00    +0.000 F 
ATOM     33  C   UNL     1       7.534   4.933  15.949  0.00  0.00    +0.000 A 
ATOM     34  C   UNL     1       6.763   4.770  14.809  0.00  0.00    +0.000 A 
ATOM     35  F   UNL     1       7.299   5.016  13.607  0.00  0.00    +0.000 F 
ATOM     36  C   UNL     1       5.436   4.353  14.892  0.00  0.00    +0.000 A 
ENDBRANCH  28  29
ENDBRANCH   7  28
TORSDOF 5
ENDMDL
MODEL 4
REMARK VINA RESULT:      -9.0      1.217      1.514
REMARK  Name = 
REMARK  7 active torsions:
REMARK  status: ('A' for Active; 'I' for Inactive)
REMARK    1  A    between atoms: C_1  and  C_2
REMARK    2  A    between atoms: C_2  and  C_3
REMARK    3  A    between atoms: N_7  and  C_8
REMARK    4  A    between atoms: C_8  and  C_9
REMARK    5  A    between atoms: C_19  and  C_20
REMARK    6  A    between atoms: N_22  and  C_23
REMARK    7  A    between atoms: C_23  and  C_24
REMARK                            x       y       z     vdW  Elec       q    Type
REMARK                         _______ _______ _______ _____ _____    ______ ____
ROOT
ATOM      1  C   UNL     1       3.240   2.854  21.377  0.00  0.00    +0.000 C 
ATOM      2  C   UNL     1       2.079   3.041  20.383  0.00  0.00    +0.000 C 
ATOM      3  C   UNL     1       0.736   2.829  21.119  0.00  0.00    +0.000 C 
ATOM      4  C   UNL     1       2.148   1.957  19.304  0.00  0.00    +0.000 C 
ATOM      5  C   UNL     1       3.121   2.253  18.204  0.00  0.00    +0.000 C 
ATOM      6  O   UNL     1       3.865   1.380  17.760  0.00  0.00    +0.000 OA
ATOM      7  N   UNL     1       2.976   3.515  17.641  0.00  0.00    +0.000 N 
ATOM      8  C   UNL     1       2.496   4.617  18.417  0.00  0.00    +0.000 A 
ATOM      9  C   UNL     1       2.463   5.914  17.883  0.00  0.00    +0.000 A 
ATOM     10  C   UNL     1       2.257   7.039  18.686  0.00  0.00    +0.000 A 
ATOM     11  C   UNL     1       1.913   6.863  20.021  0.00  0.00    +0.000 A 
ATOM     12  C   UNL     1       1.841   5.573  20.550  0.00  0.00    +0.000 A 
ATOM     13  C   UNL     1       2.137   4.436  19.765  0.00  0.00    +0.000 A 
ENDROOT
BRANCH  10  14
ATOM     14  C   UNL     1       2.432   8.425  18.167  0.00  0.00    +0.000 C 
ATOM     15  O   UNL     1       3.208   8.626  17.240  0.00  0.00    +0.000 OA
ATOM     16  N   UNL     1       1.688   9.468  18.678  0.00  0.00    +0.000 N 
ATOM     17  H   UNL     1       1.940  10.372  18.285  0.00  0.00    +0.000 HD
BRANCH  16  18
ATOM     18  C   UNL     1       0.736   9.438  19.768  0.00  0.00    +0.000 C 
BRANCH  18  19
ATOM     19  C   UNL     1      -0.391  10.421  19.720  0.00  0.00    +0.000 A 
ATOM     20  C   UNL     1      -1.190  10.444  18.571  0.00  0.00    +0.000 A 
ATOM     21  F   UNL     1      -0.904   9.629  17.543  0.00  0.00    +0.000 F 
ATOM     22  C   UNL     1      -2.297  11.275  18.464  0.00  0.00    +0.000 A 
ATOM     23  C   UNL     1      -2.623  12.089  19.539  0.00  0.00    +0.000 A 
ATOM     24  F   UNL     1      -3.694  12.885  19.453  0.00  0.00    +0.000 F 
ATOM     25  C   UNL     1      -1.871  12.075  20.704  0.00  0.00    +0.000 A 
ATOM     26  C   UNL     1      -0.763  11.233  20.789  0.00  0.00    +0.000 A 
ATOM     27  F   UNL     1      -0.066  11.202  21.931  0.00  0.00    +0.000 F 
ENDBRANCH  18  19
ENDBRANCH  16  18
ENDBRANCH  10  14
BRANCH   7  28
ATOM     28  C   UNL     1       3.436   3.684  16.261  0.00  0.00    +0.000 C 
BRANCH  28  29
ATOM     29  C   UNL     1       4.890   4.118  16.155  0.00  0.00    +0.000 A 
ATOM     30  C   UNL     1       5.436   4.424  14.898  0.00  0.00    +0.000 A 
ATOM     31  C   UNL     1       6.768   4.824  14.791  0.00  0.00    +0.000 A 
ATOM     32  F   UNL     1       7.271   5.100  13.580  0.00  0.00    +0.000 F 
ATOM     33  C   UNL     1       7.579   4.939  15.910  0.00  0.00    +0.000 A 
ATOM     34  C   UNL     1       7.039   4.653  17.153  0.00  0.00    +0.000 A 
ATOM     35  F   UNL     1       7.805   4.758  18.247  0.00  0.00    +0.000 F 
ATOM     36  C   UNL     1       5.710   4.257  17.287  0.00  0.00    +0.000 A 
ENDBRANCH  28  29
ENDBRANCH   7  28
TORSDOF 5
ENDMDL
MODEL 5
REMARK VINA RESULT:      -9.0      2.420      3.276
REMARK  Name = 
REMARK  7 active torsions:
REMARK  status: ('A' for Active; 'I' for Inactive)
REMARK    1  A    between atoms: C_1  and  C_2
REMARK    2  A    between atoms: C_2  and  C_3
REMARK    3  A    between atoms: N_7  and  C_8
REMARK    4  A    between atoms: C_8  and  C_9
REMARK    5  A    between atoms: C_19  and  C_20
REMARK    6  A    between atoms: N_22  and  C_23
REMARK    7  A    between atoms: C_23  and  C_24
REMARK                            x       y       z     vdW  Elec       q    Type
REMARK                         _______ _______ _______ _____ _____    ______ ____
ROOT
ATOM      1  C   UNL     1       2.975   2.275  19.755  0.00  0.00    +0.000 C 
ATOM      2  C   UNL     1       2.127   3.090  18.760  0.00  0.00    +0.000 C 
ATOM      3  C   UNL     1       0.734   2.435  18.620  0.00  0.00    +0.000 C 
ATOM      4  C   UNL     1       2.767   3.028  17.370  0.00  0.00    +0.000 C 
ATOM      5  C   UNL     1       3.897   3.991  17.176  0.00  0.00    +0.000 C 
ATOM      6  O   UNL     1       4.933   3.651  16.605  0.00  0.00    +0.000 OA
ATOM      7  N   UNL     1       3.597   5.299  17.534  0.00  0.00    +0.000 N 
ATOM      8  C   UNL     1       2.656   5.581  18.575  0.00  0.00    +0.000 A 
ATOM      9  C   UNL     1       2.442   6.895  19.016  0.00  0.00    +0.000 A 
ATOM     10  C   UNL     1       1.742   7.175  20.192  0.00  0.00    +0.000 A 
ATOM     11  C   UNL     1       1.098   6.139  20.859  0.00  0.00    +0.000 A 
ATOM     12  C   UNL     1       1.214   4.833  20.379  0.00  0.00    +0.000 A 
ATOM     13  C   UNL     1       1.996   4.533  19.241  0.00  0.00    +0.000 A 
ENDROOT
BRANCH  10  14
ATOM     14  C   UNL     1       1.694   8.545  20.779  0.00  0.00    +0.000 C 
ATOM     15  O   UNL     1       2.186   8.743  21.884  0.00  0.00    +0.000 OA
ATOM     16  N   UNL     1       1.157   9.597  20.067  0.00  0.00    +0.000 N 
ATOM     17  H   UNL     1       1.128  10.466  20.595  0.00  0.00    +0.000 HD
BRANCH  16  18
ATOM     18  C   UNL     1       0.526   9.567  18.764  0.00  0.00    +0.000 C 
BRANCH  18  19
ATOM     19  C   UNL     1      -0.747  10.336  18.602  0.00  0.00    +0.000 A 
ATOM     20  C   UNL     1      -1.571  10.016  17.517  0.00  0.00    +0.000 A 
ATOM     21  F   UNL     1      -1.185   9.074  16.641  0.00  0.00    +0.000 F 
ATOM     22  C   UNL     1      -2.802  10.628  17.324  0.00  0.00    +0.000 A 
ATOM     23  C   UNL     1      -3.226  11.572  18.249  0.00  0.00    +0.000 A 
ATOM     24  F   UNL     1      -4.414  12.160  18.080  0.00  0.00    +0.000 F 
ATOM     25  C   UNL     1      -2.450  11.897  19.350  0.00  0.00    +0.000 A 
ATOM     26  C   UNL     1      -1.217  11.269  19.524  0.00  0.00    +0.000 A 
ATOM     27  F   UNL     1      -0.493  11.565  20.610  0.00  0.00    +0.000 F 
ENDBRANCH  18  19
ENDBRANCH  16  18
ENDBRANCH  10  14
BRANCH   7  28
ATOM     28  C   UNL     1       4.362   6.361  16.876  0.00  0.00    +0.000 C 
BRANCH  28  29
ATOM     29  C   UNL     1       5.716   6.621  17.520  0.00  0.00    +0.000 A 
ATOM     30  C   UNL     1       6.192   5.755  18.515  0.00  0.00    +0.000 A 
ATOM     31  C   UNL     1       7.433   5.985  19.110  0.00  0.00    +0.000 A 
ATOM     32  F   UNL     1       7.864   5.151  20.066  0.00  0.00    +0.000 F 
ATOM     33  C   UNL     1       8.226   7.058  18.732  0.00  0.00    +0.000 A 
ATOM     34  C   UNL     1       7.765   7.906  17.739  0.00  0.00    +0.000 A 
ATOM     35  F   UNL     1       8.515   8.949  17.359  0.00  0.00    +0.000 F 
ATOM     36  C   UNL     1       6.532   7.695  17.126  0.00  0.00    +0.000 A 
ENDBRANCH  28  29
ENDBRANCH   7  28
TORSDOF 5
ENDMDL
MODEL 6
REMARK VINA RESULT:      -8.9      1.178      1.976
REMARK  Name = 
REMARK  7 active torsions:
REMARK  status: ('A' for Active; 'I' for Inactive)
REMARK    1  A    between atoms: C_1  and  C_2
REMARK    2  A    between atoms: C_2  and  C_3
REMARK    3  A    between atoms: N_7  and  C_8
REMARK    4  A    between atoms: C_8  and  C_9
REMARK    5  A    between atoms: C_19  and  C_20
REMARK    6  A    between atoms: N_22  and  C_23
REMARK    7  A    between atoms: C_23  and  C_24
REMARK                            x       y       z     vdW  Elec       q    Type
REMARK                         _______ _______ _______ _____ _____    ______ ____
ROOT
ATOM      1  C   UNL     1       3.280   2.812  21.386  0.00  0.00    +0.000 C 
ATOM      2  C   UNL     1       2.099   3.004  20.415  0.00  0.00    +0.000 C 
ATOM      3  C   UNL     1       0.772   2.774  21.173  0.00  0.00    +0.000 C 
ATOM      4  C   UNL     1       2.155   1.934  19.322  0.00  0.00    +0.000 C 
ATOM      5  C   UNL     1       3.106   2.250  18.208  0.00  0.00    +0.000 C 
ATOM      6  O   UNL     1       3.847   1.386  17.740  0.00  0.00    +0.000 OA
ATOM      7  N   UNL     1       2.944   3.517  17.664  0.00  0.00    +0.000 N 
ATOM      8  C   UNL     1       2.471   4.607  18.462  0.00  0.00    +0.000 A 
ATOM      9  C   UNL     1       2.421   5.910  17.945  0.00  0.00    +0.000 A 
ATOM     10  C   UNL     1       2.223   7.024  18.766  0.00  0.00    +0.000 A 
ATOM     11  C   UNL     1       1.904   6.829  20.105  0.00  0.00    +0.000 A 
ATOM     12  C   UNL     1       1.850   5.532  20.619  0.00  0.00    +0.000 A 
ATOM     13  C   UNL     1       2.138   4.407  19.814  0.00  0.00    +0.000 A 
ENDROOT
BRANCH  10  14
ATOM     14  C   UNL     1       2.380   8.417  18.261  0.00  0.00    +0.000 C 
ATOM     15  O   UNL     1       3.161   8.639  17.343  0.00  0.00    +0.000 OA
ATOM     16  N   UNL     1       1.616   9.444  18.776  0.00  0.00    +0.000 N 
ATOM     17  H   UNL     1       1.856  10.355  18.393  0.00  0.00    +0.000 HD
BRANCH  16  18
ATOM     18  C   UNL     1       0.655   9.388  19.857  0.00  0.00    +0.000 C 
BRANCH  18  19
ATOM     19  C   UNL     1      -0.395  10.453  19.895  0.00  0.00    +0.000 A 
ATOM     20  C   UNL     1      -1.241  10.578  18.786  0.00  0.00    +0.000 A 
ATOM     21  F   UNL     1      -1.064   9.782  17.720  0.00  0.00    +0.000 F 
ATOM     22  C   UNL     1      -2.286  11.491  18.760  0.00  0.00    +0.000 A 
ATOM     23  C   UNL     1      -2.500  12.288  19.876  0.00  0.00    +0.000 A 
ATOM     24  F   UNL     1      -3.510  13.163  19.867  0.00  0.00    +0.000 F 
ATOM     25  C   UNL     1      -1.700  12.175  21.003  0.00  0.00    +0.000 A 
ATOM     26  C   UNL     1      -0.656  11.251  21.008  0.00  0.00    +0.000 A 
ATOM     27  F   UNL     1       0.086  11.126  22.113  0.00  0.00    +0.000 F 
ENDBRANCH  18  19
ENDBRANCH  16  18
ENDBRANCH  10  14
BRANCH   7  28
ATOM     28  C   UNL     1       3.377   3.707  16.278  0.00  0.00    +0.000 C 
BRANCH  28  29
ATOM     29  C   UNL     1       4.830   4.140  16.150  0.00  0.00    +0.000 A 
ATOM     30  C   UNL     1       5.621   4.275  17.301  0.00  0.00    +0.000 A 
ATOM     31  C   UNL     1       6.954   4.671  17.193  0.00  0.00    +0.000 A 
ATOM     32  F   UNL     1       7.688   4.804  18.306  0.00  0.00    +0.000 F 
ATOM     33  C   UNL     1       7.532   4.930  15.960  0.00  0.00    +0.000 A 
ATOM     34  C   UNL     1       6.758   4.783  14.820  0.00  0.00    +0.000 A 
ATOM     35  F   UNL     1       7.297   5.029  13.619  0.00  0.00    +0.000 F 
ATOM     36  C   UNL     1       5.426   4.384  14.901  0.00  0.00    +0.000 A 
ENDBRANCH  28  29
ENDBRANCH   7  28
TORSDOF 5
ENDMDL
MODEL 7
REMARK VINA RESULT:      -8.9      0.278      1.418
REMARK  Name = 
REMARK  7 active torsions:
REMARK  status: ('A' for Active; 'I' for Inactive)
REMARK    1  A    between atoms: C_1  and  C_2
REMARK    2  A    between atoms: C_2  and  C_3
REMARK    3  A    between atoms: N_7  and  C_8
REMARK    4  A    between atoms: C_8  and  C_9
REMARK    5  A    between atoms: C_19  and  C_20
REMARK    6  A    between atoms: N_22  and  C_23
REMARK    7  A    between atoms: C_23  and  C_24
REMARK                            x       y       z     vdW  Elec       q    Type
REMARK                         _______ _______ _______ _____ _____    ______ ____
ROOT
ATOM      1  C   UNL     1       3.400   2.748  21.347  0.00  0.00    +0.000 C 
ATOM      2  C   UNL     1       2.197   2.950  20.407  0.00  0.00    +0.000 C 
ATOM      3  C   UNL     1       0.890   2.659  21.180  0.00  0.00    +0.000 C 
ATOM      4  C   UNL     1       2.257   1.925  19.271  0.00  0.00    +0.000 C 
ATOM      5  C   UNL     1       3.178   2.306  18.153  0.00  0.00    +0.000 C 
ATOM      6  O   UNL     1       3.929   1.480  17.638  0.00  0.00    +0.000 OA
ATOM      7  N   UNL     1       2.975   3.590  17.663  0.00  0.00    +0.000 N 
ATOM      8  C   UNL     1       2.493   4.636  18.512  0.00  0.00    +0.000 A 
ATOM      9  C   UNL     1       2.403   5.957  18.048  0.00  0.00    +0.000 A 
ATOM     10  C   UNL     1       2.195   7.032  18.915  0.00  0.00    +0.000 A 
ATOM     11  C   UNL     1       1.907   6.778  20.251  0.00  0.00    +0.000 A 
ATOM     12  C   UNL     1       1.893   5.462  20.715  0.00  0.00    +0.000 A 
ATOM     13  C   UNL     1       2.192   4.376  19.861  0.00  0.00    +0.000 A 
ENDROOT
BRANCH  10  14
ATOM     14  C   UNL     1       2.311   8.448  18.463  0.00  0.00    +0.000 C 
ATOM     15  O   UNL     1       3.266   8.782  17.772  0.00  0.00    +0.000 OA
ATOM     16  N   UNL     1       1.327   9.366  18.765  0.00  0.00    +0.000 N 
ATOM     17  H   UNL     1       1.547  10.309  18.453  0.00  0.00    +0.000 HD
BRANCH  16  18
ATOM     18  C   UNL     1       0.137   9.173  19.567  0.00  0.00    +0.000 C 
BRANCH  18  19
ATOM     19  C   UNL     1      -0.210  10.248  20.547  0.00  0.00    +0.000 A 
ATOM     20  C   UNL     1      -0.466   9.869  21.871  0.00  0.00    +0.000 A 
ATOM     21  F   UNL     1      -0.436   8.571  22.211  0.00  0.00    +0.000 F 
ATOM     22  C   UNL     1      -0.730  10.804  22.863  0.00  0.00    +0.000 A 
ATOM     23  C   UNL     1      -0.721  12.150  22.527  0.00  0.00    +0.000 A 
ATOM     24  F   UNL     1      -0.963  13.059  23.477  0.00  0.00    +0.000 F 
ATOM     25  C   UNL     1      -0.446  12.565  21.233  0.00  0.00    +0.000 A 
ATOM     26  C   UNL     1      -0.184  11.610  20.252  0.00  0.00    +0.000 A 
ATOM     27  F   UNL     1       0.115  12.024  19.016  0.00  0.00    +0.000 F 
ENDBRANCH  18  19
ENDBRANCH  16  18
ENDBRANCH  10  14
BRANCH   7  28
ATOM     28  C   UNL     1       3.377   3.843  16.277  0.00  0.00    +0.000 C 
BRANCH  28  29
ATOM     29  C   UNL     1       4.850   4.191  16.126  0.00  0.00    +0.000 A 
ATOM     30  C   UNL     1       5.388   4.406  14.848  0.00  0.00    +0.000 A 
ATOM     31  C   UNL     1       6.738   4.726  14.701  0.00  0.00    +0.000 A 
ATOM     32  F   UNL     1       7.233   4.917  13.470  0.00  0.00    +0.000 F 
ATOM     33  C   UNL     1       7.575   4.850  15.799  0.00  0.00    +0.000 A 
ATOM     34  C   UNL     1       7.043   4.653  17.063  0.00  0.00    +0.000 A 
ATOM     35  F   UNL     1       7.834   4.767  18.138  0.00  0.00    +0.000 F 
ATOM     36  C   UNL     1       5.698   4.338  17.238  0.00  0.00    +0.000 A 
ENDBRANCH  28  29
ENDBRANCH   7  28
TORSDOF 5
ENDMDL
MODEL 8
REMARK VINA RESULT:      -8.8      2.416      3.280
REMARK  Name = 
REMARK  7 active torsions:
REMARK  status: ('A' for Active; 'I' for Inactive)
REMARK    1  A    between atoms: C_1  and  C_2
REMARK    2  A    between atoms: C_2  and  C_3
REMARK    3  A    between atoms: N_7  and  C_8
REMARK    4  A    between atoms: C_8  and  C_9
REMARK    5  A    between atoms: C_19  and  C_20
REMARK    6  A    between atoms: N_22  and  C_23
REMARK    7  A    between atoms: C_23  and  C_24
REMARK                            x       y       z     vdW  Elec       q    Type
REMARK                         _______ _______ _______ _____ _____    ______ ____
ROOT
ATOM      1  C   UNL     1       2.914   2.326  19.849  0.00  0.00    +0.000 C 
ATOM      2  C   UNL     1       2.086   3.129  18.828  0.00  0.00    +0.000 C 
ATOM      3  C   UNL     1       0.686   2.488  18.690  0.00  0.00    +0.000 C 
ATOM      4  C   UNL     1       2.738   3.028  17.446  0.00  0.00    +0.000 C 
ATOM      5  C   UNL     1       3.882   3.973  17.242  0.00  0.00    +0.000 C 
ATOM      6  O   UNL     1       4.918   3.608  16.688  0.00  0.00    +0.000 OA
ATOM      7  N   UNL     1       3.595   5.293  17.568  0.00  0.00    +0.000 N 
ATOM      8  C   UNL     1       2.647   5.609  18.593  0.00  0.00    +0.000 A 
ATOM      9  C   UNL     1       2.446   6.935  19.003  0.00  0.00    +0.000 A 
ATOM     10  C   UNL     1       1.739   7.249  20.167  0.00  0.00    +0.000 A 
ATOM     11  C   UNL     1       1.076   6.236  20.850  0.00  0.00    +0.000 A 
ATOM     12  C   UNL     1       1.180   4.919  20.400  0.00  0.00    +0.000 A 
ATOM     13  C   UNL     1       1.969   4.584  19.276  0.00  0.00    +0.000 A 
ENDROOT
BRANCH  10  14
ATOM     14  C   UNL     1       1.703   8.632  20.722  0.00  0.00    +0.000 C 
ATOM     15  O   UNL     1       2.201   8.852  21.820  0.00  0.00    +0.000 OA
ATOM     16  N   UNL     1       1.169   9.672  19.990  0.00  0.00    +0.000 N 
ATOM     17  H   UNL     1       1.148  10.553  20.498  0.00  0.00    +0.000 HD
BRANCH  16  18
ATOM     18  C   UNL     1       0.532   9.617  18.690  0.00  0.00    +0.000 C 
BRANCH  18  19
ATOM     19  C   UNL     1      -0.825  10.235  18.567  0.00  0.00    +0.000 A 
ATOM     20  C   UNL     1      -1.194  11.197  19.514  0.00  0.00    +0.000 A 
ATOM     21  F   UNL     1      -0.355  11.504  20.515  0.00  0.00    +0.000 F 
ATOM     22  C   UNL     1      -2.405  11.872  19.440  0.00  0.00    +0.000 A 
ATOM     23  C   UNL     1      -3.260  11.590  18.384  0.00  0.00    +0.000 A 
ATOM     24  F   UNL     1      -4.423  12.241  18.296  0.00  0.00    +0.000 F 
ATOM     25  C   UNL     1      -2.917  10.662  17.412  0.00  0.00    +0.000 A 
ATOM     26  C   UNL     1      -1.696   9.996  17.506  0.00  0.00    +0.000 A 
ATOM     27  F   UNL     1      -1.361   9.130  16.543  0.00  0.00    +0.000 F 
ENDBRANCH  18  19
ENDBRANCH  16  18
ENDBRANCH  10  14
BRANCH   7  28
ATOM     28  C   UNL     1       4.379   6.330  16.894  0.00  0.00    +0.000 C 
BRANCH  28  29
ATOM     29  C   UNL     1       5.727   6.592  17.548  0.00  0.00    +0.000 A 
ATOM     30  C   UNL     1       6.191   5.734  18.557  0.00  0.00    +0.000 A 
ATOM     31  C   UNL     1       7.427   5.966  19.161  0.00  0.00    +0.000 A 
ATOM     32  F   UNL     1       7.845   5.140  20.130  0.00  0.00    +0.000 F 
ATOM     33  C   UNL     1       8.227   7.032  18.780  0.00  0.00    +0.000 A 
ATOM     34  C   UNL     1       7.779   7.872  17.773  0.00  0.00    +0.000 A 
ATOM     35  F   UNL     1       8.537   8.908  17.390  0.00  0.00    +0.000 F 
ATOM     36  C   UNL     1       6.551   7.658  17.151  0.00  0.00    +0.000 A 
ENDBRANCH  28  29
ENDBRANCH   7  28
TORSDOF 5
ENDMDL
MODEL 9
REMARK VINA RESULT:      -8.8      1.186      1.720
REMARK  Name = 
REMARK  7 active torsions:
REMARK  status: ('A' for Active; 'I' for Inactive)
REMARK    1  A    between atoms: C_1  and  C_2
REMARK    2  A    between atoms: C_2  and  C_3
REMARK    3  A    between atoms: N_7  and  C_8
REMARK    4  A    between atoms: C_8  and  C_9
REMARK    5  A    between atoms: C_19  and  C_20
REMARK    6  A    between atoms: N_22  and  C_23
REMARK    7  A    between atoms: C_23  and  C_24
REMARK                            x       y       z     vdW  Elec       q    Type
REMARK                         _______ _______ _______ _____ _____    ______ ____
ROOT
ATOM      1  C   UNL     1       3.213   2.898  21.372  0.00  0.00    +0.000 C 
ATOM      2  C   UNL     1       2.058   3.107  20.375  0.00  0.00    +0.000 C 
ATOM      3  C   UNL     1       0.710   2.963  21.118  0.00  0.00    +0.000 C 
ATOM      4  C   UNL     1       2.083   1.998  19.320  0.00  0.00    +0.000 C 
ATOM      5  C   UNL     1       3.064   2.232  18.213  0.00  0.00    +0.000 C 
ATOM      6  O   UNL     1       3.773   1.320  17.787  0.00  0.00    +0.000 OA
ATOM      7  N   UNL     1       2.967   3.485  17.622  0.00  0.00    +0.000 N 
ATOM      8  C   UNL     1       2.531   4.622  18.374  0.00  0.00    +0.000 A 
ATOM      9  C   UNL     1       2.547   5.907  17.811  0.00  0.00    +0.000 A 
ATOM     10  C   UNL     1       2.386   7.056  18.589  0.00  0.00    +0.000 A 
ATOM     11  C   UNL     1       2.039   6.923  19.929  0.00  0.00    +0.000 A 
ATOM     12  C   UNL     1       1.918   5.650  20.487  0.00  0.00    +0.000 A 
ATOM     13  C   UNL     1       2.169   4.485  19.726  0.00  0.00    +0.000 A 
ENDROOT
BRANCH  10  14
ATOM     14  C   UNL     1       2.614   8.423  18.039  0.00  0.00    +0.000 C 
ATOM     15  O   UNL     1       3.756   8.784  17.780  0.00  0.00    +0.000 OA
ATOM     16  N   UNL     1       1.551   9.258  17.766  0.00  0.00    +0.000 N 
ATOM     17  H   UNL     1       1.836  10.183  17.451  0.00  0.00    +0.000 HD
BRANCH  16  18
ATOM     18  C   UNL     1       0.142   9.023  18.007  0.00  0.00    +0.000 C 
BRANCH  18  19
ATOM     19  C   UNL     1      -0.643  10.137  18.623  0.00  0.00    +0.000 A 
ATOM     20  C   UNL     1      -0.303  10.536  19.922  0.00  0.00    +0.000 A 
ATOM     21  F   UNL     1       0.671   9.892  20.584  0.00  0.00    +0.000 F 
ATOM     22  C   UNL     1      -0.930  11.604  20.549  0.00  0.00    +0.000 A 
ATOM     23  C   UNL     1      -1.909  12.300  19.854  0.00  0.00    +0.000 A 
ATOM     24  F   UNL     1      -2.512  13.338  20.443  0.00  0.00    +0.000 F 
ATOM     25  C   UNL     1      -2.254  11.952  18.557  0.00  0.00    +0.000 A 
ATOM     26  C   UNL     1      -1.611  10.876  17.947  0.00  0.00    +0.000 A 
ATOM     27  F   UNL     1      -1.927  10.571  16.683  0.00  0.00    +0.000 F 
ENDBRANCH  18  19
ENDBRANCH  16  18
ENDBRANCH  10  14
BRANCH   7  28
ATOM     28  C   UNL     1       3.430   3.606  16.238  0.00  0.00    +0.000 C 
BRANCH  28  29
ATOM     29  C   UNL     1       4.878   4.055  16.119  0.00  0.00    +0.000 A 
ATOM     30  C   UNL     1       5.415   4.348  14.856  0.00  0.00    +0.000 A 
ATOM     31  C   UNL     1       6.742   4.762  14.738  0.00  0.00    +0.000 A 
ATOM     32  F   UNL     1       7.237   5.027  13.521  0.00  0.00    +0.000 F 
ATOM     33  C   UNL     1       7.555   4.905  15.851  0.00  0.00    +0.000 A 
ATOM     34  C   UNL     1       7.024   4.631  17.101  0.00  0.00    +0.000 A 
ATOM     35  F   UNL     1       7.792   4.762  18.190  0.00  0.00    +0.000 F 
ATOM     36  C   UNL     1       5.700   4.221  17.246  0.00  0.00    +0.000 A 
ENDBRANCH  28  29
ENDBRANCH   7  28
TORSDOF 5
ENDMDL
