MODEL 1
REMARK VINA RESULT:      -7.4      0.000      0.000
REMARK  Name = 
REMARK  15 active torsions:
REMARK  status: ('A' for Active; 'I' for Inactive)
REMARK    1  A    between atoms: C_1  and  C_2
REMARK    2  A    between atoms: C_2  and  N_3
REMARK    3  A    between atoms: N_3  and  C_4
REMARK    4  A    between atoms: N_3  and  C_6
REMARK    5  A    between atoms: C_4  and  C_5
REMARK    6  A    between atoms: C_6  and  C_7
REMARK    7  A    between atoms: C_9  and  C_10
REMARK    8  A    between atoms: C_14  and  C_15
REMARK    9  A    between atoms: C_15  and  N_16
REMARK   10  A    between atoms: N_16  and  C_17
REMARK   11  A    between atoms: N_16  and  C_19
REMARK   12  A    between atoms: C_17  and  C_18
REMARK   13  A    between atoms: C_19  and  C_20
REMARK   14  A    between atoms: C_21  and  O_22
REMARK   15  A    between atoms: C_29  and  O_30
REMARK                            x       y       z     vdW  Elec       q    Type
REMARK                         _______ _______ _______ _____ _____    ______ ____
ROOT
ATOM      1  C   UNL     1       1.735   8.526  18.853  0.00  0.00    +0.000 C 
ATOM      2  C   UNL     1       1.083   9.057  19.907  0.00  0.00    +0.000 C 
ATOM      3  C   UNL     1       0.447  10.341  19.643  0.00  0.00    +0.000 A 
ATOM      4  C   UNL     1      -0.895  10.585  19.878  0.00  0.00    +0.000 A 
ATOM      5  C   UNL     1      -1.440  11.791  19.375  0.00  0.00    +0.000 A 
ATOM      6  C   UNL     1      -0.573  12.851  19.112  0.00  0.00    +0.000 A 
ATOM      7  C   UNL     1       0.738  12.567  18.752  0.00  0.00    +0.000 A 
ATOM      8  C   UNL     1       1.141  11.246  18.838  0.00  0.00    +0.000 A 
ATOM      9  O   UNL     1       2.074  10.751  17.948  0.00  0.00    +0.000 OA
ATOM     10  C   UNL     1       1.700   9.381  17.598  0.00  0.00    +0.000 C 
ENDROOT
BRANCH   1  13
ATOM     11  C   UNL     1       4.072   5.636  17.965  0.00  0.00    +0.000 A 
ATOM     12  C   UNL     1       3.399   6.873  17.924  0.00  0.00    +0.000 A 
ATOM     13  C   UNL     1       2.482   7.252  18.918  0.00  0.00    +0.000 A 
ATOM     14  C   UNL     1       2.271   6.355  19.980  0.00  0.00    +0.000 A 
ATOM     15  C   UNL     1       2.950   5.138  20.055  0.00  0.00    +0.000 A 
ATOM     16  C   UNL     1       3.836   4.784  19.047  0.00  0.00    +0.000 A 
BRANCH  16  17
ATOM     17  O   UNL     1       4.489   3.585  19.112  0.00  0.00    +0.000 OA
ATOM     18  H   UNL     1       3.837   2.881  19.260  0.00  0.00    +0.000 HD
ENDBRANCH  16  17
BRANCH  11  19
ATOM     19  C   UNL     1       5.012   5.243  16.844  0.00  0.00    +0.000 C 
BRANCH  19  20
ATOM     20  N   UNL     1       6.396   4.922  17.260  0.00  0.00    +0.000 NA
BRANCH  20  22
ATOM     21  C   UNL     1       6.708   4.854  14.756  0.00  0.00    +0.000 C 
ATOM     22  C   UNL     1       7.183   4.393  16.131  0.00  0.00    +0.000 C 
ENDBRANCH  20  22
BRANCH  20  23
ATOM     23  C   UNL     1       7.014   6.090  17.916  0.00  0.00    +0.000 C 
ATOM     24  C   UNL     1       7.783   5.818  19.210  0.00  0.00    +0.000 C 
ENDBRANCH  20  23
ENDBRANCH  19  20
ENDBRANCH  11  19
ENDBRANCH   1  13
BRANCH   6  25
ATOM     25  O   UNL     1      -1.018  14.124  18.942  0.00  0.00    +0.000 OA
ATOM     26  H   UNL     1      -0.306  14.715  19.253  0.00  0.00    +0.000 HD
ENDBRANCH   6  25
BRANCH   5  27
ATOM     27  C   UNL     1      -2.880  11.762  18.898  0.00  0.00    +0.000 C 
BRANCH  27  28
ATOM     28  N   UNL     1      -3.080  11.489  17.442  0.00  0.00    +0.000 NA
BRANCH  28  29
ATOM     29  C   UNL     1      -2.578  10.175  16.960  0.00  0.00    +0.000 C 
ATOM     30  C   UNL     1      -2.636   9.868  15.469  0.00  0.00    +0.000 C 
ENDBRANCH  28  29
BRANCH  28  31
ATOM     31  C   UNL     1      -4.513  11.668  17.126  0.00  0.00    +0.000 C 
ATOM     32  C   UNL     1      -5.359  12.149  18.303  0.00  0.00    +0.000 C 
ENDBRANCH  28  31
ENDBRANCH  27  28
ENDBRANCH   5  27
TORSDOF 11
ENDMDL
MODEL 2
REMARK VINA RESULT:      -7.4      0.869      1.535
REMARK  Name = 
REMARK  15 active torsions:
REMARK  status: ('A' for Active; 'I' for Inactive)
REMARK    1  A    between atoms: C_1  and  C_2
REMARK    2  A    between atoms: C_2  and  N_3
REMARK    3  A    between atoms: N_3  and  C_4
REMARK    4  A    between atoms: N_3  and  C_6
REMARK    5  A    between atoms: C_4  and  C_5
REMARK    6  A    between atoms: C_6  and  C_7
REMARK    7  A    between atoms: C_9  and  C_10
REMARK    8  A    between atoms: C_14  and  C_15
REMARK    9  A    between atoms: C_15  and  N_16
REMARK   10  A    between atoms: N_16  and  C_17
REMARK   11  A    between atoms: N_16  and  C_19
REMARK   12  A    between atoms: C_17  and  C_18
REMARK   13  A    between atoms: C_19  and  C_20
REMARK   14  A    between atoms: C_21  and  O_22
REMARK   15  A    between atoms: C_29  and  O_30
REMARK                            x       y       z     vdW  Elec       q    Type
REMARK                         _______ _______ _______ _____ _____    ______ ____
ROOT
ATOM      1  C   UNL     1       2.031   7.857  18.909  0.00  0.00    +0.000 C 
ATOM      2  C   UNL     1       1.423   8.504  19.925  0.00  0.00    +0.000 C 
ATOM      3  C   UNL     1       0.768   9.748  19.544  0.00  0.00    +0.000 A 
ATOM      4  C   UNL     1      -0.564  10.016  19.810  0.00  0.00    +0.000 A 
ATOM      5  C   UNL     1      -1.139  11.155  19.198  0.00  0.00    +0.000 A 
ATOM      6  C   UNL     1      -0.291  12.179  18.777  0.00  0.00    +0.000 A 
ATOM      7  C   UNL     1       1.004  11.859  18.393  0.00  0.00    +0.000 A 
ATOM      8  C   UNL     1       1.419  10.556  18.611  0.00  0.00    +0.000 A 
ATOM      9  O   UNL     1       2.314   9.964  17.742  0.00  0.00    +0.000 OA
ATOM     10  C   UNL     1       1.934   8.562  17.568  0.00  0.00    +0.000 C 
ENDROOT
BRANCH   1  13
ATOM     11  C   UNL     1       4.565   5.042  18.405  0.00  0.00    +0.000 A 
ATOM     12  C   UNL     1       3.877   6.263  18.265  0.00  0.00    +0.000 A 
ATOM     13  C   UNL     1       2.788   6.600  19.086  0.00  0.00    +0.000 A 
ATOM     14  C   UNL     1       2.416   5.676  20.079  0.00  0.00    +0.000 A 
ATOM     15  C   UNL     1       3.104   4.474  20.253  0.00  0.00    +0.000 A 
ATOM     16  C   UNL     1       4.164   4.162  19.413  0.00  0.00    +0.000 A 
BRANCH  16  17
ATOM     17  O   UNL     1       4.827   2.978  19.575  0.00  0.00    +0.000 OA
ATOM     18  H   UNL     1       5.428   2.852  18.823  0.00  0.00    +0.000 HD
ENDBRANCH  16  17
BRANCH  11  19
ATOM     19  C   UNL     1       5.699   4.694  17.462  0.00  0.00    +0.000 C 
BRANCH  19  20
ATOM     20  N   UNL     1       6.237   5.825  16.673  0.00  0.00    +0.000 NA
BRANCH  20  22
ATOM     21  C   UNL     1       7.450   7.883  17.493  0.00  0.00    +0.000 C 
ATOM     22  C   UNL     1       7.462   6.370  17.288  0.00  0.00    +0.000 C 
ENDBRANCH  20  22
BRANCH  20  23
ATOM     23  C   UNL     1       6.410   5.426  15.263  0.00  0.00    +0.000 C 
ATOM     24  C   UNL     1       5.958   4.012  14.895  0.00  0.00    +0.000 C 
ENDBRANCH  20  23
ENDBRANCH  19  20
ENDBRANCH  11  19
ENDBRANCH   1  13
BRANCH   6  25
ATOM     25  O   UNL     1      -0.752  13.425  18.483  0.00  0.00    +0.000 OA
ATOM     26  H   UNL     1       0.023  13.955  18.216  0.00  0.00    +0.000 HD
ENDBRANCH   6  25
BRANCH   5  27
ATOM     27  C   UNL     1      -2.599  11.070  18.793  0.00  0.00    +0.000 C 
BRANCH  27  28
ATOM     28  N   UNL     1      -2.897  11.377  17.361  0.00  0.00    +0.000 NA
BRANCH  28  29
ATOM     29  C   UNL     1      -2.276  10.465  16.365  0.00  0.00    +0.000 C 
ATOM     30  C   UNL     1      -2.946  10.294  15.008  0.00  0.00    +0.000 C 
ENDBRANCH  28  29
BRANCH  28  31
ATOM     31  C   UNL     1      -4.365  11.440  17.194  0.00  0.00    +0.000 C 
ATOM     32  C   UNL     1      -5.099  12.124  18.346  0.00  0.00    +0.000 C 
ENDBRANCH  28  31
ENDBRANCH  27  28
ENDBRANCH   5  27
TORSDOF 11
ENDMDL
MODEL 3
REMARK VINA RESULT:      -7.4      0.549      1.306
REMARK  Name = 
REMARK  15 active torsions:
REMARK  status: ('A' for Active; 'I' for Inactive)
REMARK    1  A    between atoms: C_1  and  C_2
REMARK    2  A    between atoms: C_2  and  N_3
REMARK    3  A    between atoms: N_3  and  C_4
REMARK    4  A    between atoms: N_3  and  C_6
REMARK    5  A    between atoms: C_4  and  C_5
REMARK    6  A    between atoms: C_6  and  C_7
REMARK    7  A    between atoms: C_9  and  C_10
REMARK    8  A    between atoms: C_14  and  C_15
REMARK    9  A    between atoms: C_15  and  N_16
REMARK   10  A    between atoms: N_16  and  C_17
REMARK   11  A    between atoms: N_16  and  C_19
REMARK   12  A    between atoms: C_17  and  C_18
REMARK   13  A    between atoms: C_19  and  C_20
REMARK   14  A    between atoms: C_21  and  O_22
REMARK   15  A    between atoms: C_29  and  O_30
REMARK                            x       y       z     vdW  Elec       q    Type
REMARK                         _______ _______ _______ _____ _____    ______ ____
ROOT
ATOM      1  C   UNL     1       1.680   8.714  18.913  0.00  0.00    +0.000 C 
ATOM      2  C   UNL     1       0.995   9.202  19.968  0.00  0.00    +0.000 C 
ATOM      3  C   UNL     1       0.381  10.504  19.742  0.00  0.00    +0.000 A 
ATOM      4  C   UNL     1      -0.967  10.750  19.940  0.00  0.00    +0.000 A 
ATOM      5  C   UNL     1      -1.484  11.984  19.476  0.00  0.00    +0.000 A 
ATOM      6  C   UNL     1      -0.598  13.046  19.295  0.00  0.00    +0.000 A 
ATOM      7  C   UNL     1       0.722  12.766  18.968  0.00  0.00    +0.000 A 
ATOM      8  C   UNL     1       1.110  11.438  19.006  0.00  0.00    +0.000 A 
ATOM      9  O   UNL     1       2.070  10.976  18.127  0.00  0.00    +0.000 OA
ATOM     10  C   UNL     1       1.697   9.627  17.700  0.00  0.00    +0.000 C 
ENDROOT
BRANCH   1  13
ATOM     11  C   UNL     1       3.954   5.805  17.930  0.00  0.00    +0.000 A 
ATOM     12  C   UNL     1       3.295   7.050  17.920  0.00  0.00    +0.000 A 
ATOM     13  C   UNL     1       2.413   7.431  18.945  0.00  0.00    +0.000 A 
ATOM     14  C   UNL     1       2.224   6.527  20.005  0.00  0.00    +0.000 A 
ATOM     15  C   UNL     1       2.890   5.302  20.049  0.00  0.00    +0.000 A 
ATOM     16  C   UNL     1       3.741   4.946  19.011  0.00  0.00    +0.000 A 
BRANCH  16  17
ATOM     17  O   UNL     1       4.381   3.739  19.047  0.00  0.00    +0.000 OA
ATOM     18  H   UNL     1       4.633   3.547  19.964  0.00  0.00    +0.000 HD
ENDBRANCH  16  17
BRANCH  11  19
ATOM     19  C   UNL     1       4.854   5.411  16.777  0.00  0.00    +0.000 C 
BRANCH  19  20
ATOM     20  N   UNL     1       6.292   5.284  17.110  0.00  0.00    +0.000 NA
BRANCH  20  22
ATOM     21  C   UNL     1       6.363   4.370  14.758  0.00  0.00    +0.000 C 
ATOM     22  C   UNL     1       6.986   4.405  16.151  0.00  0.00    +0.000 C 
ENDBRANCH  20  22
BRANCH  20  23
ATOM     23  C   UNL     1       6.904   6.620  17.238  0.00  0.00    +0.000 C 
ATOM     24  C   UNL     1       7.888   6.811  18.394  0.00  0.00    +0.000 C 
ENDBRANCH  20  23
ENDBRANCH  19  20
ENDBRANCH  11  19
ENDBRANCH   1  13
BRANCH   6  25
ATOM     25  O   UNL     1      -1.026  14.330  19.169  0.00  0.00    +0.000 OA
ATOM     26  H   UNL     1      -0.294  14.832  18.760  0.00  0.00    +0.000 HD
ENDBRANCH   6  25
BRANCH   5  27
ATOM     27  C   UNL     1      -2.906  11.992  18.947  0.00  0.00    +0.000 C 
BRANCH  27  28
ATOM     28  N   UNL     1      -3.219  10.970  17.903  0.00  0.00    +0.000 NA
BRANCH  28  29
ATOM     29  C   UNL     1      -4.640  10.912  17.466  0.00  0.00    +0.000 C 
ATOM     30  C   UNL     1      -5.732  10.841  18.525  0.00  0.00    +0.000 C 
ENDBRANCH  28  29
BRANCH  28  31
ATOM     31  C   UNL     1      -2.310  11.181  16.756  0.00  0.00    +0.000 C 
ATOM     32  C   UNL     1      -2.879  10.727  15.413  0.00  0.00    +0.000 C 
ENDBRANCH  28  31
ENDBRANCH  27  28
ENDBRANCH   5  27
TORSDOF 11
ENDMDL
MODEL 4
REMARK VINA RESULT:      -7.2      0.927      1.697
REMARK  Name = 
REMARK  15 active torsions:
REMARK  status: ('A' for Active; 'I' for Inactive)
REMARK    1  A    between atoms: C_1  and  C_2
REMARK    2  A    between atoms: C_2  and  N_3
REMARK    3  A    between atoms: N_3  and  C_4
REMARK    4  A    between atoms: N_3  and  C_6
REMARK    5  A    between atoms: C_4  and  C_5
REMARK    6  A    between atoms: C_6  and  C_7
REMARK    7  A    between atoms: C_9  and  C_10
REMARK    8  A    between atoms: C_14  and  C_15
REMARK    9  A    between atoms: C_15  and  N_16
REMARK   10  A    between atoms: N_16  and  C_17
REMARK   11  A    between atoms: N_16  and  C_19
REMARK   12  A    between atoms: C_17  and  C_18
REMARK   13  A    between atoms: C_19  and  C_20
REMARK   14  A    between atoms: C_21  and  O_22
REMARK   15  A    between atoms: C_29  and  O_30
REMARK                            x       y       z     vdW  Elec       q    Type
REMARK                         _______ _______ _______ _____ _____    ______ ____
ROOT
ATOM      1  C   UNL     1       1.763   8.651  18.829  0.00  0.00    +0.000 C 
ATOM      2  C   UNL     1       0.997   9.125  19.833  0.00  0.00    +0.000 C 
ATOM      3  C   UNL     1       0.408  10.434  19.580  0.00  0.00    +0.000 A 
ATOM      4  C   UNL     1      -0.950  10.684  19.672  0.00  0.00    +0.000 A 
ATOM      5  C   UNL     1      -1.423  11.928  19.189  0.00  0.00    +0.000 A 
ATOM      6  C   UNL     1      -0.521  12.988  19.097  0.00  0.00    +0.000 A 
ATOM      7  C   UNL     1       0.820  12.707  18.874  0.00  0.00    +0.000 A 
ATOM      8  C   UNL     1       1.198  11.376  18.921  0.00  0.00    +0.000 A 
ATOM      9  O   UNL     1       2.225  10.924  18.115  0.00  0.00    +0.000 OA
ATOM     10  C   UNL     1       1.882   9.584  17.636  0.00  0.00    +0.000 C 
ENDROOT
BRANCH   1  13
ATOM     11  C   UNL     1       4.017   5.699  17.934  0.00  0.00    +0.000 A 
ATOM     12  C   UNL     1       3.368   6.948  17.887  0.00  0.00    +0.000 A 
ATOM     13  C   UNL     1       2.486   7.364  18.898  0.00  0.00    +0.000 A 
ATOM     14  C   UNL     1       2.287   6.491  19.983  0.00  0.00    +0.000 A 
ATOM     15  C   UNL     1       2.943   5.262  20.062  0.00  0.00    +0.000 A 
ATOM     16  C   UNL     1       3.794   4.871  19.037  0.00  0.00    +0.000 A 
BRANCH  16  17
ATOM     17  O   UNL     1       4.425   3.661  19.108  0.00  0.00    +0.000 OA
ATOM     18  H   UNL     1       5.380   3.800  18.997  0.00  0.00    +0.000 HD
ENDBRANCH  16  17
BRANCH  11  19
ATOM     19  C   UNL     1       4.919   5.266  16.795  0.00  0.00    +0.000 C 
BRANCH  19  20
ATOM     20  N   UNL     1       6.312   4.942  17.177  0.00  0.00    +0.000 NA
BRANCH  20  22
ATOM     21  C   UNL     1       6.196   3.944  14.861  0.00  0.00    +0.000 C 
ATOM     22  C   UNL     1       7.064   4.390  16.035  0.00  0.00    +0.000 C 
ENDBRANCH  20  22
BRANCH  20  23
ATOM     23  C   UNL     1       6.955   6.116  17.797  0.00  0.00    +0.000 C 
ATOM     24  C   UNL     1       7.773   5.856  19.064  0.00  0.00    +0.000 C 
ENDBRANCH  20  23
ENDBRANCH  19  20
ENDBRANCH  11  19
ENDBRANCH   1  13
BRANCH   6  25
ATOM     25  O   UNL     1      -0.933  14.277  18.959  0.00  0.00    +0.000 OA
ATOM     26  H   UNL     1      -1.443  14.496  19.762  0.00  0.00    +0.000 HD
ENDBRANCH   6  25
BRANCH   5  27
ATOM     27  C   UNL     1      -2.797  11.952  18.547  0.00  0.00    +0.000 C 
BRANCH  27  28
ATOM     28  N   UNL     1      -3.955  12.039  19.487  0.00  0.00    +0.000 NA
BRANCH  28  29
ATOM     29  C   UNL     1      -3.881  13.126  20.499  0.00  0.00    +0.000 C 
ATOM     30  C   UNL     1      -3.691  12.755  21.963  0.00  0.00    +0.000 C 
ENDBRANCH  28  29
BRANCH  28  31
ATOM     31  C   UNL     1      -5.197  12.128  18.690  0.00  0.00    +0.000 C 
ATOM     32  C   UNL     1      -5.155  11.353  17.374  0.00  0.00    +0.000 C 
ENDBRANCH  28  31
ENDBRANCH  27  28
ENDBRANCH   5  27
TORSDOF 11
ENDMDL
MODEL 5
REMARK VINA RESULT:      -7.1      1.018      1.159
REMARK  Name = 
REMARK  15 active torsions:
REMARK  status: ('A' for Active; 'I' for Inactive)
REMARK    1  A    between atoms: C_1  and  C_2
REMARK    2  A    between atoms: C_2  and  N_3
REMARK    3  A    between atoms: N_3  and  C_4
REMARK    4  A    between atoms: N_3  and  C_6
REMARK    5  A    between atoms: C_4  and  C_5
REMARK    6  A    between atoms: C_6  and  C_7
REMARK    7  A    between atoms: C_9  and  C_10
REMARK    8  A    between atoms: C_14  and  C_15
REMARK    9  A    between atoms: C_15  and  N_16
REMARK   10  A    between atoms: N_16  and  C_17
REMARK   11  A    between atoms: N_16  and  C_19
REMARK   12  A    between atoms: C_17  and  C_18
REMARK   13  A    between atoms: C_19  and  C_20
REMARK   14  A    between atoms: C_21  and  O_22
REMARK   15  A    between atoms: C_29  and  O_30
REMARK                            x       y       z     vdW  Elec       q    Type
REMARK                         _______ _______ _______ _____ _____    ______ ____
ROOT
ATOM      1  C   UNL     1       2.151   7.642  18.954  0.00  0.00    +0.000 C 
ATOM      2  C   UNL     1       1.533   8.313  19.947  0.00  0.00    +0.000 C 
ATOM      3  C   UNL     1       0.902   9.560  19.534  0.00  0.00    +0.000 A 
ATOM      4  C   UNL     1      -0.430   9.850  19.770  0.00  0.00    +0.000 A 
ATOM      5  C   UNL     1      -0.978  10.987  19.129  0.00  0.00    +0.000 A 
ATOM      6  C   UNL     1      -0.109  11.993  18.708  0.00  0.00    +0.000 A 
ATOM      7  C   UNL     1       1.189  11.648  18.354  0.00  0.00    +0.000 A 
ATOM      8  C   UNL     1       1.582  10.344  18.601  0.00  0.00    +0.000 A 
ATOM      9  O   UNL     1       2.485   9.726  17.759  0.00  0.00    +0.000 OA
ATOM     10  C   UNL     1       2.089   8.327  17.600  0.00  0.00    +0.000 C 
ENDROOT
BRANCH   1  13
ATOM     11  C   UNL     1       4.928   5.017  18.982  0.00  0.00    +0.000 A 
ATOM     12  C   UNL     1       4.243   6.238  18.825  0.00  0.00    +0.000 A 
ATOM     13  C   UNL     1       2.888   6.377  19.165  0.00  0.00    +0.000 A 
ATOM     14  C   UNL     1       2.233   5.250  19.694  0.00  0.00    +0.000 A 
ATOM     15  C   UNL     1       2.902   4.040  19.885  0.00  0.00    +0.000 A 
ATOM     16  C   UNL     1       4.237   3.929  19.522  0.00  0.00    +0.000 A 
BRANCH  16  17
ATOM     17  O   UNL     1       4.887   2.740  19.695  0.00  0.00    +0.000 OA
ATOM     18  H   UNL     1       4.271   2.102  20.090  0.00  0.00    +0.000 HD
ENDBRANCH  16  17
BRANCH  11  19
ATOM     19  C   UNL     1       6.376   4.895  18.552  0.00  0.00    +0.000 C 
BRANCH  19  20
ATOM     20  N   UNL     1       6.624   5.074  17.104  0.00  0.00    +0.000 NA
BRANCH  20  22
ATOM     21  C   UNL     1       6.168   4.018  14.857  0.00  0.00    +0.000 C 
ATOM     22  C   UNL     1       5.718   4.235  16.299  0.00  0.00    +0.000 C 
ENDBRANCH  20  22
BRANCH  20  23
ATOM     23  C   UNL     1       6.573   6.506  16.752  0.00  0.00    +0.000 C 
ATOM     24  C   UNL     1       7.562   7.422  17.476  0.00  0.00    +0.000 C 
ENDBRANCH  20  23
ENDBRANCH  19  20
ENDBRANCH  11  19
ENDBRANCH   1  13
BRANCH   6  25
ATOM     25  O   UNL     1      -0.547  13.239  18.385  0.00  0.00    +0.000 OA
ATOM     26  H   UNL     1      -1.347  13.122  17.838  0.00  0.00    +0.000 HD
ENDBRANCH   6  25
BRANCH   5  27
ATOM     27  C   UNL     1      -2.431  10.915  18.696  0.00  0.00    +0.000 C 
BRANCH  27  28
ATOM     28  N   UNL     1      -2.699  11.215  17.257  0.00  0.00    +0.000 NA
BRANCH  28  29
ATOM     29  C   UNL     1      -2.350  10.133  16.299  0.00  0.00    +0.000 C 
ATOM     30  C   UNL     1      -2.943  10.174  14.897  0.00  0.00    +0.000 C 
ENDBRANCH  28  29
BRANCH  28  31
ATOM     31  C   UNL     1      -4.115  11.620  17.122  0.00  0.00    +0.000 C 
ATOM     32  C   UNL     1      -4.994  11.235  18.310  0.00  0.00    +0.000 C 
ENDBRANCH  28  31
ENDBRANCH  27  28
ENDBRANCH   5  27
TORSDOF 11
ENDMDL
MODEL 6
REMARK VINA RESULT:      -7.1      0.799      1.908
REMARK  Name = 
REMARK  15 active torsions:
REMARK  status: ('A' for Active; 'I' for Inactive)
REMARK    1  A    between atoms: C_1  and  C_2
REMARK    2  A    between atoms: C_2  and  N_3
REMARK    3  A    between atoms: N_3  and  C_4
REMARK    4  A    between atoms: N_3  and  C_6
REMARK    5  A    between atoms: C_4  and  C_5
REMARK    6  A    between atoms: C_6  and  C_7
REMARK    7  A    between atoms: C_9  and  C_10
REMARK    8  A    between atoms: C_14  and  C_15
REMARK    9  A    between atoms: C_15  and  N_16
REMARK   10  A    between atoms: N_16  and  C_17
REMARK   11  A    between atoms: N_16  and  C_19
REMARK   12  A    between atoms: C_17  and  C_18
REMARK   13  A    between atoms: C_19  and  C_20
REMARK   14  A    between atoms: C_21  and  O_22
REMARK   15  A    between atoms: C_29  and  O_30
REMARK                            x       y       z     vdW  Elec       q    Type
REMARK                         _______ _______ _______ _____ _____    ______ ____
ROOT
ATOM      1  C   UNL     1       1.532   8.477  19.298  0.00  0.00    +0.000 C 
ATOM      2  C   UNL     1       1.093   9.248  20.314  0.00  0.00    +0.000 C 
ATOM      3  C   UNL     1       0.598  10.558  19.911  0.00  0.00    +0.000 A 
ATOM      4  C   UNL     1      -0.660  11.028  20.243  0.00  0.00    +0.000 A 
ATOM      5  C   UNL     1      -1.107  12.212  19.610  0.00  0.00    +0.000 A 
ATOM      6  C   UNL     1      -0.151  13.083  19.087  0.00  0.00    +0.000 A 
ATOM      7  C   UNL     1       1.056  12.561  18.642  0.00  0.00    +0.000 A 
ATOM      8  C   UNL     1       1.294  11.222  18.901  0.00  0.00    +0.000 A 
ATOM      9  O   UNL     1       2.035  10.470  18.010  0.00  0.00    +0.000 OA
ATOM     10  C   UNL     1       1.447   9.133  17.931  0.00  0.00    +0.000 C 
ENDROOT
BRANCH   1  13
ATOM     11  C   UNL     1       3.549   5.278  18.753  0.00  0.00    +0.000 A 
ATOM     12  C   UNL     1       3.036   6.580  18.590  0.00  0.00    +0.000 A 
ATOM     13  C   UNL     1       2.112   7.131  19.492  0.00  0.00    +0.000 A 
ATOM     14  C   UNL     1       1.726   6.340  20.589  0.00  0.00    +0.000 A 
ATOM     15  C   UNL     1       2.245   5.059  20.785  0.00  0.00    +0.000 A 
ATOM     16  C   UNL     1       3.143   4.535  19.865  0.00  0.00    +0.000 A 
BRANCH  16  17
ATOM     17  O   UNL     1       3.639   3.275  20.048  0.00  0.00    +0.000 OA
ATOM     18  H   UNL     1       3.850   3.156  20.988  0.00  0.00    +0.000 HD
ENDBRANCH  16  17
BRANCH  11  19
ATOM     19  C   UNL     1       4.502   4.701  17.726  0.00  0.00    +0.000 C 
BRANCH  19  20
ATOM     20  N   UNL     1       5.848   5.318  17.694  0.00  0.00    +0.000 NA
BRANCH  20  22
ATOM     21  C   UNL     1       7.887   5.781  19.110  0.00  0.00    +0.000 C 
ATOM     22  C   UNL     1       6.389   5.491  19.055  0.00  0.00    +0.000 C 
ENDBRANCH  20  22
BRANCH  20  23
ATOM     23  C   UNL     1       6.736   4.554  16.797  0.00  0.00    +0.000 C 
ATOM     24  C   UNL     1       6.799   5.020  15.341  0.00  0.00    +0.000 C 
ENDBRANCH  20  23
ENDBRANCH  19  20
ENDBRANCH  11  19
ENDBRANCH   1  13
BRANCH   6  25
ATOM     25  O   UNL     1      -0.448  14.369  18.758  0.00  0.00    +0.000 OA
ATOM     26  H   UNL     1       0.400  14.811  18.558  0.00  0.00    +0.000 HD
ENDBRANCH   6  25
BRANCH   5  27
ATOM     27  C   UNL     1      -2.587  12.324  19.298  0.00  0.00    +0.000 C 
BRANCH  27  28
ATOM     28  N   UNL     1      -3.163  11.228  18.462  0.00  0.00    +0.000 NA
BRANCH  28  29
ATOM     29  C   UNL     1      -4.639  11.260  18.287  0.00  0.00    +0.000 C 
ATOM     30  C   UNL     1      -5.219  11.931  17.050  0.00  0.00    +0.000 C 
ENDBRANCH  28  29
BRANCH  28  31
ATOM     31  C   UNL     1      -2.466  11.222  17.158  0.00  0.00    +0.000 C 
ATOM     32  C   UNL     1      -1.932   9.854  16.738  0.00  0.00    +0.000 C 
ENDBRANCH  28  31
ENDBRANCH  27  28
ENDBRANCH   5  27
TORSDOF 11
ENDMDL
MODEL 7
REMARK VINA RESULT:      -7.1      1.717      2.928
REMARK  Name = 
REMARK  15 active torsions:
REMARK  status: ('A' for Active; 'I' for Inactive)
REMARK    1  A    between atoms: C_1  and  C_2
REMARK    2  A    between atoms: C_2  and  N_3
REMARK    3  A    between atoms: N_3  and  C_4
REMARK    4  A    between atoms: N_3  and  C_6
REMARK    5  A    between atoms: C_4  and  C_5
REMARK    6  A    between atoms: C_6  and  C_7
REMARK    7  A    between atoms: C_9  and  C_10
REMARK    8  A    between atoms: C_14  and  C_15
REMARK    9  A    between atoms: C_15  and  N_16
REMARK   10  A    between atoms: N_16  and  C_17
REMARK   11  A    between atoms: N_16  and  C_19
REMARK   12  A    between atoms: C_17  and  C_18
REMARK   13  A    between atoms: C_19  and  C_20
REMARK   14  A    between atoms: C_21  and  O_22
REMARK   15  A    between atoms: C_29  and  O_30
REMARK                            x       y       z     vdW  Elec       q    Type
REMARK                         _______ _______ _______ _____ _____    ______ ____
ROOT
ATOM      1  C   UNL     1       2.175   8.374  18.497  0.00  0.00    +0.000 C 
ATOM      2  C   UNL     1       1.420   8.691  19.569  0.00  0.00    +0.000 C 
ATOM      3  C   UNL     1       0.638   9.911  19.420  0.00  0.00    +0.000 A 
ATOM      4  C   UNL     1      -0.732   9.961  19.609  0.00  0.00    +0.000 A 
ATOM      5  C   UNL     1      -1.406  11.143  19.219  0.00  0.00    +0.000 A 
ATOM      6  C   UNL     1      -0.670  12.324  19.126  0.00  0.00    +0.000 A 
ATOM      7  C   UNL     1       0.679  12.247  18.807  0.00  0.00    +0.000 A 
ATOM      8  C   UNL     1       1.242  10.983  18.763  0.00  0.00    +0.000 A 
ATOM      9  O   UNL     1       2.264  10.716  17.873  0.00  0.00    +0.000 OA
ATOM     10  C   UNL     1       2.081   9.363  17.349  0.00  0.00    +0.000 C 
ENDROOT
BRANCH   1  13
ATOM     11  C   UNL     1       3.626   4.887  19.077  0.00  0.00    +0.000 A 
ATOM     12  C   UNL     1       2.744   5.986  19.077  0.00  0.00    +0.000 A 
ATOM     13  C   UNL     1       3.074   7.201  18.456  0.00  0.00    +0.000 A 
ATOM     14  C   UNL     1       4.320   7.280  17.807  0.00  0.00    +0.000 A 
ATOM     15  C   UNL     1       5.194   6.193  17.770  0.00  0.00    +0.000 A 
ATOM     16  C   UNL     1       4.847   5.011  18.410  0.00  0.00    +0.000 A 
BRANCH  16  17
ATOM     17  O   UNL     1       5.711   3.952  18.386  0.00  0.00    +0.000 OA
ATOM     18  H   UNL     1       5.992   3.759  19.295  0.00  0.00    +0.000 HD
ENDBRANCH  16  17
BRANCH  11  19
ATOM     19  C   UNL     1       3.253   3.612  19.806  0.00  0.00    +0.000 C 
BRANCH  19  20
ATOM     20  N   UNL     1       1.938   3.036  19.446  0.00  0.00    +0.000 NA
BRANCH  20  22
ATOM     21  C   UNL     1       3.505   1.339  18.426  0.00  0.00    +0.000 C 
ATOM     22  C   UNL     1       2.088   1.901  18.516  0.00  0.00    +0.000 C 
ENDBRANCH  20  22
BRANCH  20  23
ATOM     23  C   UNL     1       1.175   2.706  20.665  0.00  0.00    +0.000 C 
ATOM     24  C   UNL     1       1.938   2.786  21.988  0.00  0.00    +0.000 C 
ENDBRANCH  20  23
ENDBRANCH  19  20
ENDBRANCH  11  19
ENDBRANCH   1  13
BRANCH   6  25
ATOM     25  O   UNL     1      -1.266  13.546  19.080  0.00  0.00    +0.000 OA
ATOM     26  H   UNL     1      -2.185  13.422  19.388  0.00  0.00    +0.000 HD
ENDBRANCH   6  25
BRANCH   5  27
ATOM     27  C   UNL     1      -2.811  10.998  18.665  0.00  0.00    +0.000 C 
BRANCH  27  28
ATOM     28  N   UNL     1      -2.966  11.265  17.203  0.00  0.00    +0.000 NA
BRANCH  28  29
ATOM     29  C   UNL     1      -2.553  10.159  16.299  0.00  0.00    +0.000 C 
ATOM     30  C   UNL     1      -2.945  10.225  14.830  0.00  0.00    +0.000 C 
ENDBRANCH  28  29
BRANCH  28  31
ATOM     31  C   UNL     1      -4.364  11.674  16.949  0.00  0.00    +0.000 C 
ATOM     32  C   UNL     1      -5.391  10.994  17.854  0.00  0.00    +0.000 C 
ENDBRANCH  28  31
ENDBRANCH  27  28
ENDBRANCH   5  27
TORSDOF 11
ENDMDL
MODEL 8
REMARK VINA RESULT:      -7.1      2.331      4.105
REMARK  Name = 
REMARK  15 active torsions:
REMARK  status: ('A' for Active; 'I' for Inactive)
REMARK    1  A    between atoms: C_1  and  C_2
REMARK    2  A    between atoms: C_2  and  N_3
REMARK    3  A    between atoms: N_3  and  C_4
REMARK    4  A    between atoms: N_3  and  C_6
REMARK    5  A    between atoms: C_4  and  C_5
REMARK    6  A    between atoms: C_6  and  C_7
REMARK    7  A    between atoms: C_9  and  C_10
REMARK    8  A    between atoms: C_14  and  C_15
REMARK    9  A    between atoms: C_15  and  N_16
REMARK   10  A    between atoms: N_16  and  C_17
REMARK   11  A    between atoms: N_16  and  C_19
REMARK   12  A    between atoms: C_17  and  C_18
REMARK   13  A    between atoms: C_19  and  C_20
REMARK   14  A    between atoms: C_21  and  O_22
REMARK   15  A    between atoms: C_29  and  O_30
REMARK                            x       y       z     vdW  Elec       q    Type
REMARK                         _______ _______ _______ _____ _____    ______ ____
ROOT
ATOM      1  C   UNL     1       2.263   7.709  19.089  0.00  0.00    +0.000 C 
ATOM      2  C   UNL     1       2.146   8.554  18.045  0.00  0.00    +0.000 C 
ATOM      3  C   UNL     1       1.529   9.834  18.368  0.00  0.00    +0.000 A 
ATOM      4  C   UNL     1       2.122  11.053  18.090  0.00  0.00    +0.000 A 
ATOM      5  C   UNL     1       1.532  12.213  18.649  0.00  0.00    +0.000 A 
ATOM      6  C   UNL     1       0.190  12.158  19.023  0.00  0.00    +0.000 A 
ATOM      7  C   UNL     1      -0.343  10.939  19.421  0.00  0.00    +0.000 A 
ATOM      8  C   UNL     1       0.458   9.822  19.263  0.00  0.00    +0.000 A 
ATOM      9  O   UNL     1       0.364   8.774  20.158  0.00  0.00    +0.000 OA
ATOM     10  C   UNL     1       1.707   8.245  20.397  0.00  0.00    +0.000 C 
ENDROOT
BRANCH   1  13
ATOM     11  C   UNL     1       4.151   4.658  17.773  0.00  0.00    +0.000 A 
ATOM     12  C   UNL     1       3.661   5.972  17.908  0.00  0.00    +0.000 A 
ATOM     13  C   UNL     1       2.821   6.345  18.970  0.00  0.00    +0.000 A 
ATOM     14  C   UNL     1       2.499   5.357  19.918  0.00  0.00    +0.000 A 
ATOM     15  C   UNL     1       2.998   4.058  19.819  0.00  0.00    +0.000 A 
ATOM     16  C   UNL     1       3.811   3.716  18.747  0.00  0.00    +0.000 A 
BRANCH  16  17
ATOM     17  O   UNL     1       4.287   2.439  18.641  0.00  0.00    +0.000 OA
ATOM     18  H   UNL     1       4.595   2.295  17.732  0.00  0.00    +0.000 HD
ENDBRANCH  16  17
BRANCH  11  19
ATOM     19  C   UNL     1       5.010   4.285  16.582  0.00  0.00    +0.000 C 
BRANCH  19  20
ATOM     20  N   UNL     1       6.272   5.047  16.446  0.00  0.00    +0.000 NA
BRANCH  20  22
ATOM     21  C   UNL     1       7.627   5.590  18.506  0.00  0.00    +0.000 C 
ATOM     22  C   UNL     1       7.283   4.581  17.413  0.00  0.00    +0.000 C 
ENDBRANCH  20  22
BRANCH  20  23
ATOM     23  C   UNL     1       6.735   5.019  15.046  0.00  0.00    +0.000 C 
ATOM     24  C   UNL     1       5.947   4.129  14.084  0.00  0.00    +0.000 C 
ENDBRANCH  20  23
ENDBRANCH  19  20
ENDBRANCH  11  19
ENDBRANCH   1  13
BRANCH   6  25
ATOM     25  O   UNL     1      -0.541  13.280  19.260  0.00  0.00    +0.000 OA
ATOM     26  H   UNL     1      -1.057  13.113  20.072  0.00  0.00    +0.000 HD
ENDBRANCH   6  25
BRANCH   5  27
ATOM     27  C   UNL     1       2.460  13.342  19.058  0.00  0.00    +0.000 C 
BRANCH  27  28
ATOM     28  N   UNL     1       2.204  14.663  18.410  0.00  0.00    +0.000 NA
BRANCH  28  29
ATOM     29  C   UNL     1       1.723  15.741  19.315  0.00  0.00    +0.000 C 
ATOM     30  C   UNL     1       0.555  16.610  18.867  0.00  0.00    +0.000 C 
ENDBRANCH  28  29
BRANCH  28  31
ATOM     31  C   UNL     1       3.426  15.072  17.686  0.00  0.00    +0.000 C 
ATOM     32  C   UNL     1       4.328  16.027  18.466  0.00  0.00    +0.000 C 
ENDBRANCH  28  31
ENDBRANCH  27  28
ENDBRANCH   5  27
TORSDOF 11
ENDMDL
MODEL 9
REMARK VINA RESULT:      -7.1      0.877      1.966
REMARK  Name = 
REMARK  15 active torsions:
REMARK  status: ('A' for Active; 'I' for Inactive)
REMARK    1  A    between atoms: C_1  and  C_2
REMARK    2  A    between atoms: C_2  and  N_3
REMARK    3  A    between atoms: N_3  and  C_4
REMARK    4  A    between atoms: N_3  and  C_6
REMARK    5  A    between atoms: C_4  and  C_5
REMARK    6  A    between atoms: C_6  and  C_7
REMARK    7  A    between atoms: C_9  and  C_10
REMARK    8  A    between atoms: C_14  and  C_15
REMARK    9  A    between atoms: C_15  and  N_16
REMARK   10  A    between atoms: N_16  and  C_17
REMARK   11  A    between atoms: N_16  and  C_19
REMARK   12  A    between atoms: C_17  and  C_18
REMARK   13  A    between atoms: C_19  and  C_20
REMARK   14  A    between atoms: C_21  and  O_22
REMARK   15  A    between atoms: C_29  and  O_30
REMARK                            x       y       z     vdW  Elec       q    Type
REMARK                         _______ _______ _______ _____ _____    ______ ____
ROOT
ATOM      1  C   UNL     1       1.760   8.212  19.077  0.00  0.00    +0.000 C 
ATOM      2  C   UNL     1       0.961   8.860  19.949  0.00  0.00    +0.000 C 
ATOM      3  C   UNL     1       0.494  10.162  19.490  0.00  0.00    +0.000 A 
ATOM      4  C   UNL     1      -0.844  10.513  19.438  0.00  0.00    +0.000 A 
ATOM      5  C   UNL     1      -1.183  11.713  18.769  0.00  0.00    +0.000 A 
ATOM      6  C   UNL     1      -0.199  12.690  18.624  0.00  0.00    +0.000 A 
ATOM      7  C   UNL     1       1.130  12.294  18.549  0.00  0.00    +0.000 A 
ATOM      8  C   UNL     1       1.401  10.958  18.789  0.00  0.00    +0.000 A 
ATOM      9  O   UNL     1       2.446  10.339  18.132  0.00  0.00    +0.000 OA
ATOM     10  C   UNL     1       2.038   8.975  17.794  0.00  0.00    +0.000 C 
ENDROOT
BRANCH   1  13
ATOM     11  C   UNL     1       4.067   5.170  18.919  0.00  0.00    +0.000 A 
ATOM     12  C   UNL     1       3.513   6.443  18.678  0.00  0.00    +0.000 A 
ATOM     13  C   UNL     1       2.376   6.899  19.363  0.00  0.00    +0.000 A 
ATOM     14  C   UNL     1       1.812   6.041  20.325  0.00  0.00    +0.000 A 
ATOM     15  C   UNL     1       2.364   4.789  20.600  0.00  0.00    +0.000 A 
ATOM     16  C   UNL     1       3.478   4.360  19.892  0.00  0.00    +0.000 A 
BRANCH  16  17
ATOM     17  O   UNL     1       4.008   3.127  20.150  0.00  0.00    +0.000 OA
ATOM     18  H   UNL     1       4.835   3.240  20.646  0.00  0.00    +0.000 HD
ENDBRANCH  16  17
BRANCH  11  19
ATOM     19  C   UNL     1       5.263   4.696  18.118  0.00  0.00    +0.000 C 
BRANCH  19  20
ATOM     20  N   UNL     1       5.442   5.347  16.800  0.00  0.00    +0.000 NA
BRANCH  20  22
ATOM     21  C   UNL     1       7.422   6.297  18.046  0.00  0.00    +0.000 C 
ATOM     22  C   UNL     1       6.761   6.000  16.703  0.00  0.00    +0.000 C 
ENDBRANCH  20  22
BRANCH  20  23
ATOM     23  C   UNL     1       5.178   4.382  15.716  0.00  0.00    +0.000 C 
ATOM     24  C   UNL     1       6.080   4.476  14.484  0.00  0.00    +0.000 C 
ENDBRANCH  20  23
ENDBRANCH  19  20
ENDBRANCH  11  19
ENDBRANCH   1  13
BRANCH   6  25
ATOM     25  O   UNL     1      -0.499  13.975  18.296  0.00  0.00    +0.000 OA
ATOM     26  H   UNL     1      -1.451  14.097  18.478  0.00  0.00    +0.000 HD
ENDBRANCH   6  25
BRANCH   5  27
ATOM     27  C   UNL     1      -2.500  11.747  18.017  0.00  0.00    +0.000 C 
BRANCH  27  28
ATOM     28  N   UNL     1      -3.160  10.425  17.796  0.00  0.00    +0.000 NA
BRANCH  28  29
ATOM     29  C   UNL     1      -4.640  10.413  17.940  0.00  0.00    +0.000 C 
ATOM     30  C   UNL     1      -5.352  11.704  18.320  0.00  0.00    +0.000 C 
ENDBRANCH  28  29
BRANCH  28  31
ATOM     31  C   UNL     1      -2.742   9.909  16.475  0.00  0.00    +0.000 C 
ATOM     32  C   UNL     1      -3.081  10.832  15.306  0.00  0.00    +0.000 C 
ENDBRANCH  28  31
ENDBRANCH  27  28
ENDBRANCH   5  27
TORSDOF 11
ENDMDL
