MODEL 1
REMARK VINA RESULT:      -6.7      0.000      0.000
REMARK  Name = 
REMARK  4 active torsions:
REMARK  status: ('A' for Active; 'I' for Inactive)
REMARK    1  A    between atoms: C_1  and  C_2
REMARK    2  A    between atoms: C_2  and  C_3
REMARK    3  A    between atoms: C_7  and  C_8
REMARK    4  A    between atoms: C_10  and  N_11
REMARK                            x       y       z     vdW  Elec       q    Type
REMARK                         _______ _______ _______ _____ _____    ______ ____
ROOT
ATOM      1  C   UNL     1       2.515   6.528  19.521  0.00  0.00    +0.000 A 
ATOM      2  N   UNL     1       3.411   7.110  18.705  0.00  0.00    +0.000 NA
ATOM      3  C   UNL     1       4.137   6.276  17.947  0.00  0.00    +0.000 A 
ATOM      4  S   UNL     1       5.275   6.925  16.866  0.00  0.00    +0.000 S 
ATOM      5  C   UNL     1       5.711   5.380  16.305  0.00  0.00    +0.000 A 
ATOM      6  C   UNL     1       5.002   4.375  16.936  0.00  0.00    +0.000 A 
ATOM      7  C   UNL     1       4.073   4.886  17.926  0.00  0.00    +0.000 A 
ATOM      8  C   UNL     1       3.150   4.280  18.835  0.00  0.00    +0.000 A 
ATOM      9  C   UNL     1       2.331   5.138  19.618  0.00  0.00    +0.000 A 
ATOM     10  C   UNL     1       1.318   4.566  20.589  0.00  0.00    +0.000 C 
ATOM     11  C   UNL     1       0.962   3.107  20.330  0.00  0.00    +0.000 C 
ATOM     12  C   UNL     1       2.231   2.295  20.161  0.00  0.00    +0.000 C 
ATOM     13  C   UNL     1       2.992   2.779  18.933  0.00  0.00    +0.000 C 
ENDROOT
BRANCH   6  14
ATOM     14  N   UNL     1       5.167   3.062  16.640  0.00  0.00    +0.000 N 
ATOM     15  H   UNL     1       4.651   2.315  17.103  0.00  0.00    +0.000 HD
ATOM     16  H   UNL     1       5.943   2.708  16.092  0.00  0.00    +0.000 HD
ENDBRANCH   6  14
BRANCH   1  18
ATOM     17  C   UNL     1       1.511   8.815  19.512  0.00  0.00    +0.000 C 
ATOM     18  C   UNL     1       1.665   7.515  20.289  0.00  0.00    +0.000 C 
ENDBRANCH   1  18
BRANCH   5  19
ATOM     19  C   UNL     1       6.694   5.198  15.284  0.00  0.00    +0.000 C 
ATOM     20  N   UNL     1       7.498   5.079  14.456  0.00  0.00    +0.000 NA
ENDBRANCH   5  19
TORSDOF 3
ENDMDL
MODEL 2
REMARK VINA RESULT:      -6.6      1.587      3.447
REMARK  Name = 
REMARK  4 active torsions:
REMARK  status: ('A' for Active; 'I' for Inactive)
REMARK    1  A    between atoms: C_1  and  C_2
REMARK    2  A    between atoms: C_2  and  C_3
REMARK    3  A    between atoms: C_7  and  C_8
REMARK    4  A    between atoms: C_10  and  N_11
REMARK                            x       y       z     vdW  Elec       q    Type
REMARK                         _______ _______ _______ _____ _____    ______ ____
ROOT
ATOM      1  C   UNL     1       2.771   4.821  19.825  0.00  0.00    +0.000 A 
ATOM      2  N   UNL     1       3.556   3.994  19.111  0.00  0.00    +0.000 NA
ATOM      3  C   UNL     1       4.132   4.531  18.025  0.00  0.00    +0.000 A 
ATOM      4  S   UNL     1       5.161   3.569  17.077  0.00  0.00    +0.000 S 
ATOM      5  C   UNL     1       5.487   4.857  16.016  0.00  0.00    +0.000 A 
ATOM      6  C   UNL     1       4.816   6.011  16.375  0.00  0.00    +0.000 A 
ATOM      7  C   UNL     1       3.993   5.834  17.556  0.00  0.00    +0.000 A 
ATOM      8  C   UNL     1       3.117   6.686  18.298  0.00  0.00    +0.000 A 
ATOM      9  C   UNL     1       2.529   6.162  19.482  0.00  0.00    +0.000 A 
ATOM     10  C   UNL     1       1.604   7.013  20.328  0.00  0.00    +0.000 C 
ATOM     11  C   UNL     1       1.722   8.510  20.067  0.00  0.00    +0.000 C 
ATOM     12  C   UNL     1       1.664   8.773  18.575  0.00  0.00    +0.000 C 
ATOM     13  C   UNL     1       2.857   8.119  17.890  0.00  0.00    +0.000 C 
ENDROOT
BRANCH   6  14
ATOM     14  N   UNL     1       4.935   7.174  15.686  0.00  0.00    +0.000 N 
ATOM     15  H   UNL     1       4.195   7.553  15.096  0.00  0.00    +0.000 HD
ATOM     16  H   UNL     1       5.819   7.648  15.542  0.00  0.00    +0.000 HD
ENDBRANCH   6  14
BRANCH   1  18
ATOM     17  C   UNL     1       1.141   3.168  20.747  0.00  0.00    +0.000 C 
ATOM     18  C   UNL     1       2.217   4.191  21.082  0.00  0.00    +0.000 C 
ENDBRANCH   1  18
BRANCH   5  19
ATOM     19  C   UNL     1       6.374   4.713  14.905  0.00  0.00    +0.000 C 
ATOM     20  N   UNL     1       7.110   4.619  14.014  0.00  0.00    +0.000 NA
ENDBRANCH   5  19
TORSDOF 3
ENDMDL
MODEL 3
REMARK VINA RESULT:      -6.4      1.549      3.480
REMARK  Name = 
REMARK  4 active torsions:
REMARK  status: ('A' for Active; 'I' for Inactive)
REMARK    1  A    between atoms: C_1  and  C_2
REMARK    2  A    between atoms: C_2  and  C_3
REMARK    3  A    between atoms: C_7  and  C_8
REMARK    4  A    between atoms: C_10  and  N_11
REMARK                            x       y       z     vdW  Elec       q    Type
REMARK                         _______ _______ _______ _____ _____    ______ ____
ROOT
ATOM      1  C   UNL     1       2.905   3.636  18.630  0.00  0.00    +0.000 A 
ATOM      2  N   UNL     1       3.732   3.088  17.721  0.00  0.00    +0.000 NA
ATOM      3  C   UNL     1       4.451   3.953  16.991  0.00  0.00    +0.000 A 
ATOM      4  S   UNL     1       5.541   3.349  15.837  0.00  0.00    +0.000 S 
ATOM      5  C   UNL     1       6.040   4.916  15.401  0.00  0.00    +0.000 A 
ATOM      6  C   UNL     1       5.380   5.893  16.123  0.00  0.00    +0.000 A 
ATOM      7  C   UNL     1       4.420   5.342  17.060  0.00  0.00    +0.000 A 
ATOM      8  C   UNL     1       3.500   5.911  17.996  0.00  0.00    +0.000 A 
ATOM      9  C   UNL     1       2.759   5.020  18.821  0.00  0.00    +0.000 A 
ATOM     10  C   UNL     1       1.779   5.552  19.847  0.00  0.00    +0.000 C 
ATOM     11  C   UNL     1       1.988   7.018  20.206  0.00  0.00    +0.000 C 
ATOM     12  C   UNL     1       2.112   7.840  18.939  0.00  0.00    +0.000 C 
ATOM     13  C   UNL     1       3.348   7.406  18.162  0.00  0.00    +0.000 C 
ENDROOT
BRANCH   6  14
ATOM     14  N   UNL     1       5.625   7.217  15.960  0.00  0.00    +0.000 N 
ATOM     15  H   UNL     1       5.120   7.802  15.294  0.00  0.00    +0.000 HD
ATOM     16  H   UNL     1       6.445   7.682  16.331  0.00  0.00    +0.000 HD
ENDBRANCH   6  14
BRANCH   1  18
ATOM     17  C   UNL     1       0.856   2.226  18.854  0.00  0.00    +0.000 C 
ATOM     18  C   UNL     1       2.185   2.618  19.483  0.00  0.00    +0.000 C 
ENDBRANCH   1  18
BRANCH   5  19
ATOM     19  C   UNL     1       7.042   5.139  14.408  0.00  0.00    +0.000 C 
ATOM     20  N   UNL     1       7.846   5.348  13.598  0.00  0.00    +0.000 NA
ENDBRANCH   5  19
TORSDOF 3
ENDMDL
MODEL 4
REMARK VINA RESULT:      -6.3      2.481      4.979
REMARK  Name = 
REMARK  4 active torsions:
REMARK  status: ('A' for Active; 'I' for Inactive)
REMARK    1  A    between atoms: C_1  and  C_2
REMARK    2  A    between atoms: C_2  and  C_3
REMARK    3  A    between atoms: C_7  and  C_8
REMARK    4  A    between atoms: C_10  and  N_11
REMARK                            x       y       z     vdW  Elec       q    Type
REMARK                         _______ _______ _______ _____ _____    ______ ____
ROOT
ATOM      1  C   UNL     1       3.294   7.190  17.865  0.00  0.00    +0.000 A 
ATOM      2  N   UNL     1       2.498   6.929  18.918  0.00  0.00    +0.000 NA
ATOM      3  C   UNL     1       2.527   5.668  19.371  0.00  0.00    +0.000 A 
ATOM      4  S   UNL     1       1.575   5.253  20.714  0.00  0.00    +0.000 S 
ATOM      5  C   UNL     1       2.137   3.648  20.693  0.00  0.00    +0.000 A 
ATOM      6  C   UNL     1       3.040   3.425  19.670  0.00  0.00    +0.000 A 
ATOM      7  C   UNL     1       3.272   4.607  18.863  0.00  0.00    +0.000 A 
ATOM      8  C   UNL     1       4.075   4.889  17.714  0.00  0.00    +0.000 A 
ATOM      9  C   UNL     1       4.104   6.229  17.238  0.00  0.00    +0.000 A 
ATOM     10  C   UNL     1       4.947   6.604  16.036  0.00  0.00    +0.000 C 
ATOM     11  C   UNL     1       6.033   5.591  15.696  0.00  0.00    +0.000 C 
ATOM     12  C   UNL     1       5.438   4.198  15.663  0.00  0.00    +0.000 C 
ATOM     13  C   UNL     1       4.919   3.826  17.046  0.00  0.00    +0.000 C 
ENDROOT
BRANCH   6  14
ATOM     14  N   UNL     1       3.636   2.223  19.465  0.00  0.00    +0.000 N 
ATOM     15  H   UNL     1       3.248   1.502  18.859  0.00  0.00    +0.000 HD
ATOM     16  H   UNL     1       4.393   1.873  20.041  0.00  0.00    +0.000 HD
ENDBRANCH   6  14
BRANCH   1  18
ATOM     17  C   UNL     1       1.964   9.304  17.805  0.00  0.00    +0.000 C 
ATOM     18  C   UNL     1       3.289   8.644  17.450  0.00  0.00    +0.000 C 
ENDBRANCH   1  18
BRANCH   5  19
ATOM     19  C   UNL     1       1.706   2.685  21.656  0.00  0.00    +0.000 C 
ATOM     20  N   UNL     1       1.337   1.923  22.449  0.00  0.00    +0.000 NA
ENDBRANCH   5  19
TORSDOF 3
ENDMDL
MODEL 5
REMARK VINA RESULT:      -6.2      1.839      4.968
REMARK  Name = 
REMARK  4 active torsions:
REMARK  status: ('A' for Active; 'I' for Inactive)
REMARK    1  A    between atoms: C_1  and  C_2
REMARK    2  A    between atoms: C_2  and  C_3
REMARK    3  A    between atoms: C_7  and  C_8
REMARK    4  A    between atoms: C_10  and  N_11
REMARK                            x       y       z     vdW  Elec       q    Type
REMARK                         _______ _______ _______ _____ _____    ______ ____
ROOT
ATOM      1  C   UNL     1       3.994   4.753  17.788  0.00  0.00    +0.000 A 
ATOM      2  N   UNL     1       3.713   6.001  17.372  0.00  0.00    +0.000 NA
ATOM      3  C   UNL     1       2.992   6.749  18.219  0.00  0.00    +0.000 A 
ATOM      4  S   UNL     1       2.612   8.348  17.788  0.00  0.00    +0.000 S 
ATOM      5  C   UNL     1       1.793   8.612  19.255  0.00  0.00    +0.000 A 
ATOM      6  C   UNL     1       1.803   7.493  20.067  0.00  0.00    +0.000 A 
ATOM      7  C   UNL     1       2.496   6.371  19.463  0.00  0.00    +0.000 A 
ATOM      8  C   UNL     1       2.761   5.026  19.870  0.00  0.00    +0.000 A 
ATOM      9  C   UNL     1       3.565   4.222  19.016  0.00  0.00    +0.000 A 
ATOM     10  C   UNL     1       3.902   2.793  19.391  0.00  0.00    +0.000 C 
ATOM     11  C   UNL     1       3.704   2.474  20.868  0.00  0.00    +0.000 C 
ATOM     12  C   UNL     1       2.340   2.959  21.316  0.00  0.00    +0.000 C 
ATOM     13  C   UNL     1       2.264   4.475  21.188  0.00  0.00    +0.000 C 
ENDROOT
BRANCH   6  14
ATOM     14  N   UNL     1       1.226   7.472  21.295  0.00  0.00    +0.000 N 
ATOM     15  H   UNL     1       1.275   6.670  21.922  0.00  0.00    +0.000 HD
ATOM     16  H   UNL     1       0.546   8.158  21.603  0.00  0.00    +0.000 HD
ENDBRANCH   6  14
BRANCH   1  18
ATOM     17  C   UNL     1       5.261   4.842  15.637  0.00  0.00    +0.000 C 
ATOM     18  C   UNL     1       4.880   3.984  16.835  0.00  0.00    +0.000 C 
ENDBRANCH   1  18
BRANCH   5  19
ATOM     19  C   UNL     1       1.195   9.871  19.569  0.00  0.00    +0.000 C 
ATOM     20  N   UNL     1       0.701  10.882  19.850  0.00  0.00    +0.000 NA
ENDBRANCH   5  19
TORSDOF 3
ENDMDL
MODEL 6
REMARK VINA RESULT:      -6.2      2.830      5.477
REMARK  Name = 
REMARK  4 active torsions:
REMARK  status: ('A' for Active; 'I' for Inactive)
REMARK    1  A    between atoms: C_1  and  C_2
REMARK    2  A    between atoms: C_2  and  C_3
REMARK    3  A    between atoms: C_7  and  C_8
REMARK    4  A    between atoms: C_10  and  N_11
REMARK                            x       y       z     vdW  Elec       q    Type
REMARK                         _______ _______ _______ _____ _____    ______ ____
ROOT
ATOM      1  C   UNL     1       2.800   4.377  20.120  0.00  0.00    +0.000 A 
ATOM      2  N   UNL     1       2.072   5.267  20.819  0.00  0.00    +0.000 NA
ATOM      3  C   UNL     1       1.962   6.486  20.272  0.00  0.00    +0.000 A 
ATOM      4  S   UNL     1       1.039   7.668  21.071  0.00  0.00    +0.000 S 
ATOM      5  C   UNL     1       1.331   8.810  19.846  0.00  0.00    +0.000 A 
ATOM      6  C   UNL     1       2.129   8.302  18.838  0.00  0.00    +0.000 A 
ATOM      7  C   UNL     1       2.527   6.929  19.080  0.00  0.00    +0.000 A 
ATOM      8  C   UNL     1       3.338   5.986  18.374  0.00  0.00    +0.000 A 
ATOM      9  C   UNL     1       3.435   4.670  18.902  0.00  0.00    +0.000 A 
ATOM     10  C   UNL     1       4.263   3.613  18.198  0.00  0.00    +0.000 C 
ATOM     11  C   UNL     1       4.577   3.937  16.742  0.00  0.00    +0.000 C 
ATOM     12  C   UNL     1       5.105   5.353  16.637  0.00  0.00    +0.000 C 
ATOM     13  C   UNL     1       4.030   6.338  17.076  0.00  0.00    +0.000 C 
ENDROOT
BRANCH   6  14
ATOM     14  N   UNL     1       2.482   9.026  17.746  0.00  0.00    +0.000 N 
ATOM     15  H   UNL     1       3.359   9.540  17.675  0.00  0.00    +0.000 HD
ATOM     16  H   UNL     1       1.832   9.275  17.009  0.00  0.00    +0.000 HD
ENDBRANCH   6  14
BRANCH   1  18
ATOM     17  C   UNL     1       1.609   2.787  21.635  0.00  0.00    +0.000 C 
ATOM     18  C   UNL     1       2.820   2.997  20.737  0.00  0.00    +0.000 C 
ENDBRANCH   1  18
BRANCH   5  19
ATOM     19  C   UNL     1       0.778  10.127  19.896  0.00  0.00    +0.000 C 
ATOM     20  N   UNL     1       0.356  11.207  19.930  0.00  0.00    +0.000 NA
ENDBRANCH   5  19
TORSDOF 3
ENDMDL
MODEL 7
REMARK VINA RESULT:      -6.1      3.275      5.945
REMARK  Name = 
REMARK  4 active torsions:
REMARK  status: ('A' for Active; 'I' for Inactive)
REMARK    1  A    between atoms: C_1  and  C_2
REMARK    2  A    between atoms: C_2  and  C_3
REMARK    3  A    between atoms: C_7  and  C_8
REMARK    4  A    between atoms: C_10  and  N_11
REMARK                            x       y       z     vdW  Elec       q    Type
REMARK                         _______ _______ _______ _____ _____    ______ ____
ROOT
ATOM      1  C   UNL     1       2.241   5.616  20.399  0.00  0.00    +0.000 A 
ATOM      2  N   UNL     1       1.481   6.535  21.022  0.00  0.00    +0.000 NA
ATOM      3  C   UNL     1       1.378   7.720  20.404  0.00  0.00    +0.000 A 
ATOM      4  S   UNL     1       0.417   8.933  21.104  0.00  0.00    +0.000 S 
ATOM      5  C   UNL     1       0.739  10.009  19.827  0.00  0.00    +0.000 A 
ATOM      6  C   UNL     1       1.575   9.455  18.876  0.00  0.00    +0.000 A 
ATOM      7  C   UNL     1       1.978   8.102  19.208  0.00  0.00    +0.000 A 
ATOM      8  C   UNL     1       2.822   7.131  18.584  0.00  0.00    +0.000 A 
ATOM      9  C   UNL     1       2.915   5.847  19.188  0.00  0.00    +0.000 A 
ATOM     10  C   UNL     1       3.776   4.763  18.572  0.00  0.00    +0.000 C 
ATOM     11  C   UNL     1       4.135   5.008  17.111  0.00  0.00    +0.000 C 
ATOM     12  C   UNL     1       4.653   6.422  16.944  0.00  0.00    +0.000 C 
ATOM     13  C   UNL     1       3.554   7.418  17.291  0.00  0.00    +0.000 C 
ENDROOT
BRANCH   6  14
ATOM     14  N   UNL     1       1.958  10.121  17.758  0.00  0.00    +0.000 N 
ATOM     15  H   UNL     1       2.444  11.016  17.778  0.00  0.00    +0.000 HD
ATOM     16  H   UNL     1       1.622   9.889  16.830  0.00  0.00    +0.000 HD
ENDBRANCH   6  14
BRANCH   1  18
ATOM     17  C   UNL     1       1.078   3.418  20.640  0.00  0.00    +0.000 C 
ATOM     18  C   UNL     1       2.254   4.273  21.092  0.00  0.00    +0.000 C 
ENDBRANCH   1  18
BRANCH   5  19
ATOM     19  C   UNL     1       0.172  11.320  19.784  0.00  0.00    +0.000 C 
ATOM     20  N   UNL     1      -0.297  12.381  19.778  0.00  0.00    +0.000 NA
ENDBRANCH   5  19
TORSDOF 3
ENDMDL
MODEL 8
REMARK VINA RESULT:      -5.9      2.651      5.705
REMARK  Name = 
REMARK  4 active torsions:
REMARK  status: ('A' for Active; 'I' for Inactive)
REMARK    1  A    between atoms: C_1  and  C_2
REMARK    2  A    between atoms: C_2  and  C_3
REMARK    3  A    between atoms: C_7  and  C_8
REMARK    4  A    between atoms: C_10  and  N_11
REMARK                            x       y       z     vdW  Elec       q    Type
REMARK                         _______ _______ _______ _____ _____    ______ ____
ROOT
ATOM      1  C   UNL     1       3.827   4.052  19.033  0.00  0.00    +0.000 A 
ATOM      2  N   UNL     1       3.027   4.634  19.945  0.00  0.00    +0.000 NA
ATOM      3  C   UNL     1       2.670   5.900  19.682  0.00  0.00    +0.000 A 
ATOM      4  S   UNL     1       1.640   6.707  20.764  0.00  0.00    +0.000 S 
ATOM      5  C   UNL     1       1.631   8.110  19.803  0.00  0.00    +0.000 A 
ATOM      6  C   UNL     1       2.409   7.971  18.668  0.00  0.00    +0.000 A 
ATOM      7  C   UNL     1       3.048   6.671  18.586  0.00  0.00    +0.000 A 
ATOM      8  C   UNL     1       3.937   6.054  17.652  0.00  0.00    +0.000 A 
ATOM      9  C   UNL     1       4.296   4.696  17.876  0.00  0.00    +0.000 A 
ATOM     10  C   UNL     1       5.220   3.972  16.918  0.00  0.00    +0.000 C 
ATOM     11  C   UNL     1       5.346   4.637  15.553  0.00  0.00    +0.000 C 
ATOM     12  C   UNL     1       5.624   6.116  15.731  0.00  0.00    +0.000 C 
ATOM     13  C   UNL     1       4.444   6.782  16.427  0.00  0.00    +0.000 C 
ENDROOT
BRANCH   6  14
ATOM     14  N   UNL     1       2.541   8.953  17.743  0.00  0.00    +0.000 N 
ATOM     15  H   UNL     1       1.872   9.105  16.989  0.00  0.00    +0.000 HD
ATOM     16  H   UNL     1       3.397   9.479  17.606  0.00  0.00    +0.000 HD
ENDBRANCH   6  14
BRANCH   1  18
ATOM     17  C   UNL     1       3.097   1.688  18.686  0.00  0.00    +0.000 C 
ATOM     18  C   UNL     1       4.128   2.601  19.334  0.00  0.00    +0.000 C 
ENDBRANCH   1  18
BRANCH   5  19
ATOM     19  C   UNL     1       0.876   9.268  20.165  0.00  0.00    +0.000 C 
ATOM     20  N   UNL     1       0.250  10.207  20.432  0.00  0.00    +0.000 NA
ENDBRANCH   5  19
TORSDOF 3
ENDMDL
MODEL 9
REMARK VINA RESULT:      -5.7      2.484      5.510
REMARK  Name = 
REMARK  4 active torsions:
REMARK  status: ('A' for Active; 'I' for Inactive)
REMARK    1  A    between atoms: C_1  and  C_2
REMARK    2  A    between atoms: C_2  and  C_3
REMARK    3  A    between atoms: C_7  and  C_8
REMARK    4  A    between atoms: C_10  and  N_11
REMARK                            x       y       z     vdW  Elec       q    Type
REMARK                         _______ _______ _______ _____ _____    ______ ____
ROOT
ATOM      1  C   UNL     1       6.581   6.024  17.864  0.00  0.00    +0.000 A 
ATOM      2  N   UNL     1       5.743   5.980  18.915  0.00  0.00    +0.000 NA
ATOM      3  C   UNL     1       4.651   5.219  18.757  0.00  0.00    +0.000 A 
ATOM      4  S   UNL     1       3.549   5.083  20.043  0.00  0.00    +0.000 S 
ATOM      5  C   UNL     1       2.556   4.023  19.158  0.00  0.00    +0.000 A 
ATOM      6  C   UNL     1       3.053   3.776  17.892  0.00  0.00    +0.000 A 
ATOM      7  C   UNL     1       4.288   4.490  17.629  0.00  0.00    +0.000 A 
ATOM      8  C   UNL     1       5.164   4.586  16.503  0.00  0.00    +0.000 A 
ATOM      9  C   UNL     1       6.357   5.346  16.654  0.00  0.00    +0.000 A 
ATOM     10  C   UNL     1       7.340   5.477  15.509  0.00  0.00    +0.000 C 
ATOM     11  C   UNL     1       7.175   4.422  14.422  0.00  0.00    +0.000 C 
ATOM     12  C   UNL     1       5.717   4.330  14.019  0.00  0.00    +0.000 C 
ATOM     13  C   UNL     1       4.883   3.863  15.204  0.00  0.00    +0.000 C 
ENDROOT
BRANCH   6  14
ATOM     14  N   UNL     1       2.440   2.947  17.010  0.00  0.00    +0.000 N 
ATOM     15  H   UNL     1       1.459   2.680  17.083  0.00  0.00    +0.000 HD
ATOM     16  H   UNL     1       2.942   2.378  16.339  0.00  0.00    +0.000 HD
ENDBRANCH   6  14
BRANCH   1  18
ATOM     17  C   UNL     1       7.675   8.259  17.639  0.00  0.00    +0.000 C 
ATOM     18  C   UNL     1       7.836   6.825  18.125  0.00  0.00    +0.000 C 
ENDBRANCH   1  18
BRANCH   5  19
ATOM     19  C   UNL     1       1.363   3.467  19.713  0.00  0.00    +0.000 C 
ATOM     20  N   UNL     1       0.393   2.996  20.142  0.00  0.00    +0.000 NA
ENDBRANCH   5  19
TORSDOF 3
ENDMDL
