MODEL 1
REMARK VINA RESULT:      -6.8      0.000      0.000
REMARK  Name = 
REMARK  2 active torsions:
REMARK  status: ('A' for Active; 'I' for Inactive)
REMARK    1  A    between atoms: N_6  and  C_7
REMARK    2  A    between atoms: C_10  and  N_11
REMARK                            x       y       z     vdW  Elec       q    Type
REMARK                         _______ _______ _______ _____ _____    ______ ____
ROOT
ATOM      1  C   UNL     1       3.889   4.700  18.737  0.00  0.00    +0.000 A 
ATOM      2  C   UNL     1       5.215   4.353  19.036  0.00  0.00    +0.000 A 
ATOM      3  C   UNL     1       6.299   4.958  18.384  0.00  0.00    +0.000 A 
ATOM      4  C   UNL     1       6.065   5.944  17.426  0.00  0.00    +0.000 A 
ATOM      5  C   UNL     1       4.757   6.327  17.121  0.00  0.00    +0.000 A 
ATOM      6  C   UNL     1       3.681   5.701  17.770  0.00  0.00    +0.000 A 
ENDROOT
BRANCH   1  12
ATOM      7  O   UNL     1       1.872   2.743  17.607  0.00  0.00    +0.000 OA
ATOM      8  C   UNL     1       1.865   3.196  18.743  0.00  0.00    +0.000 C 
ATOM      9  C   UNL     1       0.750   2.920  19.721  0.00  0.00    +0.000 C 
ATOM     10  C   UNL     1       1.351   3.298  21.058  0.00  0.00    +0.000 C 
ATOM     11  C   UNL     1       2.362   4.369  20.710  0.00  0.00    +0.000 C 
ATOM     12  N   UNL     1       2.787   4.053  19.365  0.00  0.00    +0.000 N 
ENDBRANCH   1  12
BRANCH   4  13
ATOM     13  N   UNL     1       7.194   6.574  16.731  0.00  0.00    +0.000 N 
ATOM     14  O   UNL     1       7.662   5.990  15.744  0.00  0.00    +0.000 OA
ATOM     15  O   UNL     1       7.608   7.656  17.169  0.00  0.00    +0.000 OA
ENDBRANCH   4  13
TORSDOF 2
ENDMDL
MODEL 2
REMARK VINA RESULT:      -6.8      1.121      1.229
REMARK  Name = 
REMARK  2 active torsions:
REMARK  status: ('A' for Active; 'I' for Inactive)
REMARK    1  A    between atoms: N_6  and  C_7
REMARK    2  A    between atoms: C_10  and  N_11
REMARK                            x       y       z     vdW  Elec       q    Type
REMARK                         _______ _______ _______ _____ _____    ______ ____
ROOT
ATOM      1  C   UNL     1       3.929   4.175  18.380  0.00  0.00    +0.000 A 
ATOM      2  C   UNL     1       4.380   3.577  17.193  0.00  0.00    +0.000 A 
ATOM      3  C   UNL     1       5.437   4.122  16.450  0.00  0.00    +0.000 A 
ATOM      4  C   UNL     1       6.074   5.276  16.903  0.00  0.00    +0.000 A 
ATOM      5  C   UNL     1       5.662   5.883  18.091  0.00  0.00    +0.000 A 
ATOM      6  C   UNL     1       4.593   5.335  18.816  0.00  0.00    +0.000 A 
ENDROOT
BRANCH   1  12
ATOM      7  O   UNL     1       1.026   3.861  17.574  0.00  0.00    +0.000 OA
ATOM      8  C   UNL     1       1.493   3.592  18.672  0.00  0.00    +0.000 C 
ATOM      9  C   UNL     1       0.635   3.165  19.837  0.00  0.00    +0.000 C 
ATOM     10  C   UNL     1       1.627   2.547  20.799  0.00  0.00    +0.000 C 
ATOM     11  C   UNL     1       2.919   3.278  20.505  0.00  0.00    +0.000 C 
ATOM     12  N   UNL     1       2.826   3.647  19.110  0.00  0.00    +0.000 N 
ENDBRANCH   1  12
BRANCH   4  13
ATOM     13  N   UNL     1       7.174   5.860  16.125  0.00  0.00    +0.000 N 
ATOM     14  O   UNL     1       7.495   5.296  15.069  0.00  0.00    +0.000 OA
ATOM     15  O   UNL     1       7.712   6.883  16.567  0.00  0.00    +0.000 OA
ENDBRANCH   4  13
TORSDOF 2
ENDMDL
MODEL 3
REMARK VINA RESULT:      -6.8      0.133      1.483
REMARK  Name = 
REMARK  2 active torsions:
REMARK  status: ('A' for Active; 'I' for Inactive)
REMARK    1  A    between atoms: N_6  and  C_7
REMARK    2  A    between atoms: C_10  and  N_11
REMARK                            x       y       z     vdW  Elec       q    Type
REMARK                         _______ _______ _______ _____ _____    ______ ____
ROOT
ATOM      1  C   UNL     1       3.854   4.680  18.701  0.00  0.00    +0.000 A 
ATOM      2  C   UNL     1       3.660   5.756  17.822  0.00  0.00    +0.000 A 
ATOM      3  C   UNL     1       4.735   6.378  17.171  0.00  0.00    +0.000 A 
ATOM      4  C   UNL     1       6.032   5.911  17.382  0.00  0.00    +0.000 A 
ATOM      5  C   UNL     1       6.256   4.829  18.235  0.00  0.00    +0.000 A 
ATOM      6  C   UNL     1       5.172   4.226  18.892  0.00  0.00    +0.000 A 
ENDROOT
BRANCH   1  12
ATOM      7  O   UNL     1       1.670   2.840  17.693  0.00  0.00    +0.000 OA
ATOM      8  C   UNL     1       1.764   3.276  18.832  0.00  0.00    +0.000 C 
ATOM      9  C   UNL     1       0.707   3.039  19.882  0.00  0.00    +0.000 C 
ATOM     10  C   UNL     1       1.417   3.368  21.178  0.00  0.00    +0.000 C 
ATOM     11  C   UNL     1       2.453   4.394  20.773  0.00  0.00    +0.000 C 
ATOM     12  N   UNL     1       2.768   4.078  19.398  0.00  0.00    +0.000 N 
ENDBRANCH   1  12
BRANCH   4  13
ATOM     13  N   UNL     1       7.163   6.564  16.713  0.00  0.00    +0.000 N 
ATOM     14  O   UNL     1       7.562   7.643  17.174  0.00  0.00    +0.000 OA
ATOM     15  O   UNL     1       7.657   5.995  15.729  0.00  0.00    +0.000 OA
ENDBRANCH   4  13
TORSDOF 2
ENDMDL
MODEL 4
REMARK VINA RESULT:      -6.8      1.123      1.270
REMARK  Name = 
REMARK  2 active torsions:
REMARK  status: ('A' for Active; 'I' for Inactive)
REMARK    1  A    between atoms: N_6  and  C_7
REMARK    2  A    between atoms: C_10  and  N_11
REMARK                            x       y       z     vdW  Elec       q    Type
REMARK                         _______ _______ _______ _____ _____    ______ ____
ROOT
ATOM      1  C   UNL     1       3.871   4.256  18.288  0.00  0.00    +0.000 A 
ATOM      2  C   UNL     1       4.432   5.497  18.627  0.00  0.00    +0.000 A 
ATOM      3  C   UNL     1       5.514   6.034  17.915  0.00  0.00    +0.000 A 
ATOM      4  C   UNL     1       6.041   5.334  16.830  0.00  0.00    +0.000 A 
ATOM      5  C   UNL     1       5.490   4.107  16.454  0.00  0.00    +0.000 A 
ATOM      6  C   UNL     1       4.418   3.574  17.186  0.00  0.00    +0.000 A 
ENDROOT
BRANCH   1  12
ATOM      7  O   UNL     1       0.970   3.822  17.533  0.00  0.00    +0.000 OA
ATOM      8  C   UNL     1       1.465   3.578  18.624  0.00  0.00    +0.000 C 
ATOM      9  C   UNL     1       0.645   3.124  19.806  0.00  0.00    +0.000 C 
ATOM     10  C   UNL     1       1.677   2.551  20.754  0.00  0.00    +0.000 C 
ATOM     11  C   UNL     1       2.934   3.332  20.434  0.00  0.00    +0.000 C 
ATOM     12  N   UNL     1       2.802   3.689  19.039  0.00  0.00    +0.000 N 
ENDBRANCH   1  12
BRANCH   4  13
ATOM     13  N   UNL     1       7.180   5.885  16.086  0.00  0.00    +0.000 N 
ATOM     14  O   UNL     1       7.528   5.302  15.049  0.00  0.00    +0.000 OA
ATOM     15  O   UNL     1       7.724   6.902  16.536  0.00  0.00    +0.000 OA
ENDBRANCH   4  13
TORSDOF 2
ENDMDL
MODEL 5
REMARK VINA RESULT:      -6.8      1.536      1.886
REMARK  Name = 
REMARK  2 active torsions:
REMARK  status: ('A' for Active; 'I' for Inactive)
REMARK    1  A    between atoms: N_6  and  C_7
REMARK    2  A    between atoms: C_10  and  N_11
REMARK                            x       y       z     vdW  Elec       q    Type
REMARK                         _______ _______ _______ _____ _____    ______ ____
ROOT
ATOM      1  C   UNL     1       4.020   4.167  18.701  0.00  0.00    +0.000 A 
ATOM      2  C   UNL     1       4.032   3.873  17.328  0.00  0.00    +0.000 A 
ATOM      3  C   UNL     1       5.062   4.323  16.489  0.00  0.00    +0.000 A 
ATOM      4  C   UNL     1       6.113   5.067  17.024  0.00  0.00    +0.000 A 
ATOM      5  C   UNL     1       6.139   5.358  18.390  0.00  0.00    +0.000 A 
ATOM      6  C   UNL     1       5.095   4.914  19.215  0.00  0.00    +0.000 A 
ENDROOT
BRANCH   1  12
ATOM      7  O   UNL     1       4.029   2.284  21.073  0.00  0.00    +0.000 OA
ATOM      8  C   UNL     1       3.041   2.822  20.596  0.00  0.00    +0.000 C 
ATOM      9  C   UNL     1       1.641   2.517  21.069  0.00  0.00    +0.000 C 
ATOM     10  C   UNL     1       0.825   3.674  20.531  0.00  0.00    +0.000 C 
ATOM     11  C   UNL     1       1.572   4.092  19.283  0.00  0.00    +0.000 C 
ATOM     12  N   UNL     1       2.952   3.749  19.544  0.00  0.00    +0.000 N 
ENDBRANCH   1  12
BRANCH   4  13
ATOM     13  N   UNL     1       7.188   5.551  16.150  0.00  0.00    +0.000 N 
ATOM     14  O   UNL     1       7.607   4.783  15.272  0.00  0.00    +0.000 OA
ATOM     15  O   UNL     1       7.608   6.701  16.337  0.00  0.00    +0.000 OA
ENDBRANCH   4  13
TORSDOF 2
ENDMDL
MODEL 6
REMARK VINA RESULT:      -6.7      1.569      1.740
REMARK  Name = 
REMARK  2 active torsions:
REMARK  status: ('A' for Active; 'I' for Inactive)
REMARK    1  A    between atoms: N_6  and  C_7
REMARK    2  A    between atoms: C_10  and  N_11
REMARK                            x       y       z     vdW  Elec       q    Type
REMARK                         _______ _______ _______ _____ _____    ______ ____
ROOT
ATOM      1  C   UNL     1       3.995   4.230  18.774  0.00  0.00    +0.000 A 
ATOM      2  C   UNL     1       4.913   5.208  19.191  0.00  0.00    +0.000 A 
ATOM      3  C   UNL     1       5.954   5.641  18.358  0.00  0.00    +0.000 A 
ATOM      4  C   UNL     1       6.080   5.108  17.076  0.00  0.00    +0.000 A 
ATOM      5  C   UNL     1       5.170   4.149  16.625  0.00  0.00    +0.000 A 
ATOM      6  C   UNL     1       4.143   3.713  17.475  0.00  0.00    +0.000 A 
ENDROOT
BRANCH   1  12
ATOM      7  O   UNL     1       4.127   2.263  21.074  0.00  0.00    +0.000 OA
ATOM      8  C   UNL     1       3.111   2.794  20.649  0.00  0.00    +0.000 C 
ATOM      9  C   UNL     1       1.735   2.438  21.156  0.00  0.00    +0.000 C 
ATOM     10  C   UNL     1       0.876   3.593  20.687  0.00  0.00    +0.000 C 
ATOM     11  C   UNL     1       1.571   4.075  19.432  0.00  0.00    +0.000 C 
ATOM     12  N   UNL     1       2.966   3.757  19.636  0.00  0.00    +0.000 N 
ENDBRANCH   1  12
BRANCH   4  13
ATOM     13  N   UNL     1       7.174   5.549  16.203  0.00  0.00    +0.000 N 
ATOM     14  O   UNL     1       7.559   4.767  15.321  0.00  0.00    +0.000 OA
ATOM     15  O   UNL     1       7.645   6.678  16.395  0.00  0.00    +0.000 OA
ENDBRANCH   4  13
TORSDOF 2
ENDMDL
MODEL 7
REMARK VINA RESULT:      -6.7      2.016      2.273
REMARK  Name = 
REMARK  2 active torsions:
REMARK  status: ('A' for Active; 'I' for Inactive)
REMARK    1  A    between atoms: N_6  and  C_7
REMARK    2  A    between atoms: C_10  and  N_11
REMARK                            x       y       z     vdW  Elec       q    Type
REMARK                         _______ _______ _______ _____ _____    ______ ____
ROOT
ATOM      1  C   UNL     1       4.534   4.044  18.337  0.00  0.00    +0.000 A 
ATOM      2  C   UNL     1       5.862   4.490  18.430  0.00  0.00    +0.000 A 
ATOM      3  C   UNL     1       6.645   4.711  17.288  0.00  0.00    +0.000 A 
ATOM      4  C   UNL     1       6.096   4.502  16.024  0.00  0.00    +0.000 A 
ATOM      5  C   UNL     1       4.771   4.079  15.897  0.00  0.00    +0.000 A 
ATOM      6  C   UNL     1       4.004   3.847  17.049  0.00  0.00    +0.000 A 
ENDROOT
BRANCH   1  12
ATOM      7  O   UNL     1       4.817   1.862  20.418  0.00  0.00    +0.000 OA
ATOM      8  C   UNL     1       3.927   2.699  20.381  0.00  0.00    +0.000 C 
ATOM      9  C   UNL     1       2.754   2.681  21.331  0.00  0.00    +0.000 C 
ATOM     10  C   UNL     1       2.178   4.075  21.208  0.00  0.00    +0.000 C 
ATOM     11  C   UNL     1       2.532   4.490  19.796  0.00  0.00    +0.000 C 
ATOM     12  N   UNL     1       3.753   3.776  19.497  0.00  0.00    +0.000 N 
ENDBRANCH   1  12
BRANCH   4  13
ATOM     13  N   UNL     1       6.913   4.720  14.824  0.00  0.00    +0.000 N 
ATOM     14  O   UNL     1       6.661   4.036  13.822  0.00  0.00    +0.000 OA
ATOM     15  O   UNL     1       7.804   5.579  14.883  0.00  0.00    +0.000 OA
ENDBRANCH   4  13
TORSDOF 2
ENDMDL
MODEL 8
REMARK VINA RESULT:      -6.7      1.259      1.599
REMARK  Name = 
REMARK  2 active torsions:
REMARK  status: ('A' for Active; 'I' for Inactive)
REMARK    1  A    between atoms: N_6  and  C_7
REMARK    2  A    between atoms: C_10  and  N_11
REMARK                            x       y       z     vdW  Elec       q    Type
REMARK                         _______ _______ _______ _____ _____    ______ ____
ROOT
ATOM      1  C   UNL     1       3.806   4.701  18.633  0.00  0.00    +0.000 A 
ATOM      2  C   UNL     1       5.003   4.500  19.338  0.00  0.00    +0.000 A 
ATOM      3  C   UNL     1       6.188   5.160  18.981  0.00  0.00    +0.000 A 
ATOM      4  C   UNL     1       6.184   6.053  17.911  0.00  0.00    +0.000 A 
ATOM      5  C   UNL     1       5.004   6.291  17.202  0.00  0.00    +0.000 A 
ATOM      6  C   UNL     1       3.830   5.612  17.561  0.00  0.00    +0.000 A 
ENDROOT
BRANCH   1  12
ATOM      7  O   UNL     1       1.730   5.278  20.760  0.00  0.00    +0.000 OA
ATOM      8  C   UNL     1       1.733   4.310  20.014  0.00  0.00    +0.000 C 
ATOM      9  C   UNL     1       0.737   3.184  20.138  0.00  0.00    +0.000 C 
ATOM     10  C   UNL     1       0.842   2.470  18.807  0.00  0.00    +0.000 C 
ATOM     11  C   UNL     1       2.268   2.726  18.372  0.00  0.00    +0.000 C 
ATOM     12  N   UNL     1       2.615   3.997  18.966  0.00  0.00    +0.000 N 
ENDBRANCH   1  12
BRANCH   4  13
ATOM     13  N   UNL     1       7.422   6.739  17.524  0.00  0.00    +0.000 N 
ATOM     14  O   UNL     1       7.739   6.725  16.326  0.00  0.00    +0.000 OA
ATOM     15  O   UNL     1       8.074   7.297  18.417  0.00  0.00    +0.000 OA
ENDBRANCH   4  13
TORSDOF 2
ENDMDL
MODEL 9
REMARK VINA RESULT:      -6.7      1.759      2.212
REMARK  Name = 
REMARK  2 active torsions:
REMARK  status: ('A' for Active; 'I' for Inactive)
REMARK    1  A    between atoms: N_6  and  C_7
REMARK    2  A    between atoms: C_10  and  N_11
REMARK                            x       y       z     vdW  Elec       q    Type
REMARK                         _______ _______ _______ _____ _____    ______ ____
ROOT
ATOM      1  C   UNL     1       3.929   4.655  17.648  0.00  0.00    +0.000 A 
ATOM      2  C   UNL     1       4.303   5.892  17.101  0.00  0.00    +0.000 A 
ATOM      3  C   UNL     1       5.236   5.983  16.057  0.00  0.00    +0.000 A 
ATOM      4  C   UNL     1       5.798   4.820  15.532  0.00  0.00    +0.000 A 
ATOM      5  C   UNL     1       5.430   3.573  16.041  0.00  0.00    +0.000 A 
ATOM      6  C   UNL     1       4.508   3.498  17.096  0.00  0.00    +0.000 A 
ENDROOT
BRANCH   1  12
ATOM      7  O   UNL     1       1.157   3.443  17.778  0.00  0.00    +0.000 OA
ATOM      8  C   UNL     1       1.720   4.030  18.691  0.00  0.00    +0.000 C 
ATOM      9  C   UNL     1       1.039   4.337  20.002  0.00  0.00    +0.000 C 
ATOM     10  C   UNL     1       2.190   4.660  20.931  0.00  0.00    +0.000 C 
ATOM     11  C   UNL     1       3.255   5.214  20.008  0.00  0.00    +0.000 C 
ATOM     12  N   UNL     1       3.017   4.566  18.738  0.00  0.00    +0.000 N 
ENDBRANCH   1  12
BRANCH   4  13
ATOM     13  N   UNL     1       6.783   4.907  14.447  0.00  0.00    +0.000 N 
ATOM     14  O   UNL     1       6.572   4.245  13.421  0.00  0.00    +0.000 OA
ATOM     15  O   UNL     1       7.765   5.642  14.620  0.00  0.00    +0.000 OA
ENDBRANCH   4  13
TORSDOF 2
ENDMDL
