MODEL 1
REMARK VINA RESULT:      -8.9      0.000      0.000
REMARK  Name = 
REMARK  5 active torsions:
REMARK  status: ('A' for Active; 'I' for Inactive)
REMARK    1  A    between atoms: C_1  and  C_2
REMARK    2  A    between atoms: C_5  and  C_6
REMARK    3  A    between atoms: C_9  and  C_10
REMARK    4  A    between atoms: C_10  and  C_12
REMARK    5  A    between atoms: N_16  and  O_17
REMARK                            x       y       z     vdW  Elec       q    Type
REMARK                         _______ _______ _______ _____ _____    ______ ____
ROOT
ATOM      1  C   UNL     1       1.678   7.721  20.126  0.00  0.00    +0.000 A 
ATOM      2  C   UNL     1       2.240   7.929  18.853  0.00  0.00    +0.000 A 
ATOM      3  C   UNL     1       2.928   6.914  18.177  0.00  0.00    +0.000 A 
ATOM      4  C   UNL     1       3.049   5.647  18.750  0.00  0.00    +0.000 A 
ATOM      5  C   UNL     1       2.547   5.431  20.036  0.00  0.00    +0.000 A 
ATOM      6  C   UNL     1       1.865   6.453  20.708  0.00  0.00    +0.000 A 
ENDROOT
BRANCH   1  11
ATOM      7  C   UNL     1      -1.258  11.952  22.855  0.00  0.00    +0.000 C 
ATOM      8  C   UNL     1      -0.513  10.855  22.157  0.00  0.00    +0.000 A 
ATOM      9  C   UNL     1      -0.242   9.647  22.798  0.00  0.00    +0.000 A 
ATOM     10  C   UNL     1       0.472   8.638  22.140  0.00  0.00    +0.000 A 
ATOM     11  C   UNL     1       0.925   8.796  20.817  0.00  0.00    +0.000 A 
ATOM     12  C   UNL     1       0.636  10.018  20.186  0.00  0.00    +0.000 A 
ATOM     13  C   UNL     1      -0.066  11.035  20.845  0.00  0.00    +0.000 A 
ENDBRANCH   1  11
BRANCH   4  14
ATOM     14  C   UNL     1       3.717   4.515  18.051  0.00  0.00    +0.000 C 
ATOM     15  O   UNL     1       3.336   3.366  18.260  0.00  0.00    +0.000 OA
BRANCH  14  16
ATOM     16  C   UNL     1       4.829   4.799  17.079  0.00  0.00    +0.000 A 
ATOM     17  C   UNL     1       4.839   4.107  15.931  0.00  0.00    +0.000 A 
ATOM     18  C   UNL     1       5.931   4.341  14.966  0.00  0.00    +0.000 A 
ATOM     19  O   UNL     1       5.971   3.735  13.899  0.00  0.00    +0.000 OA
ATOM     20  N   UNL     1       6.884   5.255  15.355  0.00  0.00    +0.000 N 
ATOM     21  C   UNL     1       6.862   5.998  16.516  0.00  0.00    +0.000 A 
ATOM     22  O   UNL     1       7.695   6.834  16.858  0.00  0.00    +0.000 OA
ATOM     23  N   UNL     1       5.791   5.741  17.340  0.00  0.00    +0.000 N 
ATOM     24  H   UNL     1       5.757   6.316  18.174  0.00  0.00    +0.000 HD
BRANCH  20  25
ATOM     25  O   UNL     1       7.948   5.475  14.459  0.00  0.00    +0.000 OA
ATOM     26  H   UNL     1       8.123   4.574  14.122  0.00  0.00    +0.000 HD
ENDBRANCH  20  25
ENDBRANCH  14  16
ENDBRANCH   4  14
TORSDOF 4
ENDMDL
MODEL 2
REMARK VINA RESULT:      -8.8      1.506      1.980
REMARK  Name = 
REMARK  5 active torsions:
REMARK  status: ('A' for Active; 'I' for Inactive)
REMARK    1  A    between atoms: C_1  and  C_2
REMARK    2  A    between atoms: C_5  and  C_6
REMARK    3  A    between atoms: C_9  and  C_10
REMARK    4  A    between atoms: C_10  and  C_12
REMARK    5  A    between atoms: N_16  and  O_17
REMARK                            x       y       z     vdW  Elec       q    Type
REMARK                         _______ _______ _______ _____ _____    ______ ____
ROOT
ATOM      1  C   UNL     1       1.217   8.681  20.217  0.00  0.00    +0.000 A 
ATOM      2  C   UNL     1       1.633   8.803  18.879  0.00  0.00    +0.000 A 
ATOM      3  C   UNL     1       2.160   7.716  18.171  0.00  0.00    +0.000 A 
ATOM      4  C   UNL     1       2.259   6.463  18.779  0.00  0.00    +0.000 A 
ATOM      5  C   UNL     1       1.903   6.330  20.124  0.00  0.00    +0.000 A 
ATOM      6  C   UNL     1       1.382   7.423  20.828  0.00  0.00    +0.000 A 
ENDROOT
BRANCH   1  11
ATOM      7  C   UNL     1      -1.102  13.207  23.065  0.00  0.00    +0.000 C 
ATOM      8  C   UNL     1      -0.493  12.049  22.333  0.00  0.00    +0.000 A 
ATOM      9  C   UNL     1       0.292  12.247  21.198  0.00  0.00    +0.000 A 
ATOM     10  C   UNL     1       0.839  11.155  20.514  0.00  0.00    +0.000 A 
ATOM     11  C   UNL     1       0.632   9.832  20.947  0.00  0.00    +0.000 A 
ATOM     12  C   UNL     1      -0.157   9.655  22.097  0.00  0.00    +0.000 A 
ATOM     13  C   UNL     1      -0.717  10.743  22.777  0.00  0.00    +0.000 A 
ENDBRANCH   1  11
BRANCH   4  14
ATOM     14  C   UNL     1       2.755   5.261  18.055  0.00  0.00    +0.000 C 
ATOM     15  O   UNL     1       1.949   4.496  17.531  0.00  0.00    +0.000 OA
BRANCH  14  16
ATOM     16  C   UNL     1       4.235   5.017  17.952  0.00  0.00    +0.000 A 
ATOM     17  C   UNL     1       4.702   4.519  16.799  0.00  0.00    +0.000 A 
ATOM     18  C   UNL     1       6.146   4.242  16.673  0.00  0.00    +0.000 A 
ATOM     19  O   UNL     1       6.616   3.795  15.630  0.00  0.00    +0.000 OA
ATOM     20  N   UNL     1       6.902   4.502  17.793  0.00  0.00    +0.000 N 
ATOM     21  C   UNL     1       6.437   5.048  18.971  0.00  0.00    +0.000 A 
ATOM     22  O   UNL     1       7.110   5.306  19.966  0.00  0.00    +0.000 OA
ATOM     23  N   UNL     1       5.087   5.307  18.989  0.00  0.00    +0.000 N 
ATOM     24  H   UNL     1       4.755   5.744  19.840  0.00  0.00    +0.000 HD
BRANCH  20  25
ATOM     25  O   UNL     1       8.280   4.222  17.703  0.00  0.00    +0.000 OA
ATOM     26  H   UNL     1       8.666   5.115  17.613  0.00  0.00    +0.000 HD
ENDBRANCH  20  25
ENDBRANCH  14  16
ENDBRANCH   4  14
TORSDOF 4
ENDMDL
MODEL 3
REMARK VINA RESULT:      -8.8      0.276      1.409
REMARK  Name = 
REMARK  5 active torsions:
REMARK  status: ('A' for Active; 'I' for Inactive)
REMARK    1  A    between atoms: C_1  and  C_2
REMARK    2  A    between atoms: C_5  and  C_6
REMARK    3  A    between atoms: C_9  and  C_10
REMARK    4  A    between atoms: C_10  and  C_12
REMARK    5  A    between atoms: N_16  and  O_17
REMARK                            x       y       z     vdW  Elec       q    Type
REMARK                         _______ _______ _______ _____ _____    ______ ____
ROOT
ATOM      1  C   UNL     1       1.776   7.519  20.064  0.00  0.00    +0.000 A 
ATOM      2  C   UNL     1       1.881   6.266  20.694  0.00  0.00    +0.000 A 
ATOM      3  C   UNL     1       2.565   5.199  20.099  0.00  0.00    +0.000 A 
ATOM      4  C   UNL     1       3.190   5.368  18.862  0.00  0.00    +0.000 A 
ATOM      5  C   UNL     1       3.054   6.586  18.192  0.00  0.00    +0.000 A 
ATOM      6  C   UNL     1       2.363   7.647  18.791  0.00  0.00    +0.000 A 
ENDROOT
BRANCH   1  11
ATOM      7  C   UNL     1      -1.002  11.955  22.630  0.00  0.00    +0.000 C 
ATOM      8  C   UNL     1      -0.279  10.823  21.964  0.00  0.00    +0.000 A 
ATOM      9  C   UNL     1       0.011  10.856  20.600  0.00  0.00    +0.000 A 
ATOM     10  C   UNL     1       0.671   9.784  19.989  0.00  0.00    +0.000 A 
ATOM     11  C   UNL     1       1.075   8.650  20.719  0.00  0.00    +0.000 A 
ATOM     12  C   UNL     1       0.780   8.640  22.094  0.00  0.00    +0.000 A 
ATOM     13  C   UNL     1       0.108   9.705  22.707  0.00  0.00    +0.000 A 
ENDBRANCH   1  11
BRANCH   4  14
ATOM     14  C   UNL     1       3.980   4.286  18.212  0.00  0.00    +0.000 C 
ATOM     15  O   UNL     1       3.759   3.115  18.509  0.00  0.00    +0.000 OA
BRANCH  14  16
ATOM     16  C   UNL     1       5.017   4.643  17.184  0.00  0.00    +0.000 A 
ATOM     17  C   UNL     1       5.004   3.964  16.029  0.00  0.00    +0.000 A 
ATOM     18  C   UNL     1       6.024   4.270  15.008  0.00  0.00    +0.000 A 
ATOM     19  O   UNL     1       6.040   3.677  13.933  0.00  0.00    +0.000 OA
ATOM     20  N   UNL     1       6.943   5.235  15.354  0.00  0.00    +0.000 N 
ATOM     21  C   UNL     1       6.942   5.965  16.524  0.00  0.00    +0.000 A 
ATOM     22  O   UNL     1       7.744   6.845  16.830  0.00  0.00    +0.000 OA
ATOM     23  N   UNL     1       5.937   5.639  17.403  0.00  0.00    +0.000 N 
ATOM     24  H   UNL     1       5.916   6.203  18.245  0.00  0.00    +0.000 HD
BRANCH  20  25
ATOM     25  O   UNL     1       7.940   5.525  14.404  0.00  0.00    +0.000 OA
ATOM     26  H   UNL     1       7.413   5.817  13.634  0.00  0.00    +0.000 HD
ENDBRANCH  20  25
ENDBRANCH  14  16
ENDBRANCH   4  14
TORSDOF 4
ENDMDL
MODEL 4
REMARK VINA RESULT:      -8.8      4.640      7.169
REMARK  Name = 
REMARK  5 active torsions:
REMARK  status: ('A' for Active; 'I' for Inactive)
REMARK    1  A    between atoms: C_1  and  C_2
REMARK    2  A    between atoms: C_5  and  C_6
REMARK    3  A    between atoms: C_9  and  C_10
REMARK    4  A    between atoms: C_10  and  C_12
REMARK    5  A    between atoms: N_16  and  O_17
REMARK                            x       y       z     vdW  Elec       q    Type
REMARK                         _______ _______ _______ _____ _____    ______ ____
ROOT
ATOM      1  C   UNL     1       8.386   8.656  18.477  0.00  0.00    +0.000 A 
ATOM      2  C   UNL     1       8.571   7.461  19.196  0.00  0.00    +0.000 A 
ATOM      3  C   UNL     1       7.958   6.264  18.805  0.00  0.00    +0.000 A 
ATOM      4  C   UNL     1       7.161   6.226  17.659  0.00  0.00    +0.000 A 
ATOM      5  C   UNL     1       6.919   7.410  16.959  0.00  0.00    +0.000 A 
ATOM      6  C   UNL     1       7.530   8.605  17.360  0.00  0.00    +0.000 A 
ENDROOT
BRANCH   1  11
ATOM      7  C   UNL     1      11.076  13.570  20.085  0.00  0.00    +0.000 C 
ATOM      8  C   UNL     1      10.373  12.309  19.680  0.00  0.00    +0.000 A 
ATOM      9  C   UNL     1       9.824  11.452  20.633  0.00  0.00    +0.000 A 
ATOM     10  C   UNL     1       9.187  10.269  20.240  0.00  0.00    +0.000 A 
ATOM     11  C   UNL     1       9.064   9.909  18.885  0.00  0.00    +0.000 A 
ATOM     12  C   UNL     1       9.618  10.791  17.940  0.00  0.00    +0.000 A 
ATOM     13  C   UNL     1      10.268  11.969  18.329  0.00  0.00    +0.000 A 
ENDBRANCH   1  11
BRANCH   4  14
ATOM     14  C   UNL     1       6.536   4.969  17.164  0.00  0.00    +0.000 C 
ATOM     15  O   UNL     1       7.006   4.409  16.176  0.00  0.00    +0.000 OA
BRANCH  14  16
ATOM     16  C   UNL     1       5.358   4.390  17.896  0.00  0.00    +0.000 A 
ATOM     17  C   UNL     1       4.138   4.822  17.548  0.00  0.00    +0.000 A 
ATOM     18  C   UNL     1       2.962   4.295  18.265  0.00  0.00    +0.000 A 
ATOM     19  O   UNL     1       1.826   4.659  17.970  0.00  0.00    +0.000 OA
ATOM     20  N   UNL     1       3.231   3.399  19.275  0.00  0.00    +0.000 N 
ATOM     21  C   UNL     1       4.478   2.920  19.615  0.00  0.00    +0.000 A 
ATOM     22  O   UNL     1       4.724   2.102  20.499  0.00  0.00    +0.000 OA
ATOM     23  N   UNL     1       5.513   3.438  18.874  0.00  0.00    +0.000 N 
ATOM     24  H   UNL     1       6.424   3.056  19.100  0.00  0.00    +0.000 HD
BRANCH  20  25
ATOM     25  O   UNL     1       2.123   2.902  19.988  0.00  0.00    +0.000 OA
ATOM     26  H   UNL     1       2.533   2.218  20.554  0.00  0.00    +0.000 HD
ENDBRANCH  20  25
ENDBRANCH  14  16
ENDBRANCH   4  14
TORSDOF 4
ENDMDL
MODEL 5
REMARK VINA RESULT:      -8.8      0.557      1.926
REMARK  Name = 
REMARK  5 active torsions:
REMARK  status: ('A' for Active; 'I' for Inactive)
REMARK    1  A    between atoms: C_1  and  C_2
REMARK    2  A    between atoms: C_5  and  C_6
REMARK    3  A    between atoms: C_9  and  C_10
REMARK    4  A    between atoms: C_10  and  C_12
REMARK    5  A    between atoms: N_16  and  O_17
REMARK                            x       y       z     vdW  Elec       q    Type
REMARK                         _______ _______ _______ _____ _____    ______ ____
ROOT
ATOM      1  C   UNL     1       1.695   7.734  20.039  0.00  0.00    +0.000 A 
ATOM      2  C   UNL     1       2.199   7.932  18.741  0.00  0.00    +0.000 A 
ATOM      3  C   UNL     1       2.851   6.909  18.042  0.00  0.00    +0.000 A 
ATOM      4  C   UNL     1       2.991   5.644  18.617  0.00  0.00    +0.000 A 
ATOM      5  C   UNL     1       2.548   5.439  19.925  0.00  0.00    +0.000 A 
ATOM      6  C   UNL     1       1.902   6.469  20.621  0.00  0.00    +0.000 A 
ENDROOT
BRANCH   1  11
ATOM      7  C   UNL     1      -1.139  11.981  22.852  0.00  0.00    +0.000 C 
ATOM      8  C   UNL     1      -0.401  10.898  22.123  0.00  0.00    +0.000 A 
ATOM      9  C   UNL     1      -0.116  11.010  20.763  0.00  0.00    +0.000 A 
ATOM     10  C   UNL     1       0.558   9.983  20.092  0.00  0.00    +0.000 A 
ATOM     11  C   UNL     1       0.980   8.817  20.757  0.00  0.00    +0.000 A 
ATOM     12  C   UNL     1       0.689   8.727  22.130  0.00  0.00    +0.000 A 
ATOM     13  C   UNL     1       0.004   9.747  22.802  0.00  0.00    +0.000 A 
ENDBRANCH   1  11
BRANCH   4  14
ATOM     14  C   UNL     1       3.621   4.505  17.895  0.00  0.00    +0.000 C 
ATOM     15  O   UNL     1       3.156   3.375  18.027  0.00  0.00    +0.000 OA
BRANCH  14  16
ATOM     16  C   UNL     1       4.798   4.758  16.995  0.00  0.00    +0.000 A 
ATOM     17  C   UNL     1       5.697   5.670  17.393  0.00  0.00    +0.000 A 
ATOM     18  C   UNL     1       6.850   5.964  16.521  0.00  0.00    +0.000 A 
ATOM     19  O   UNL     1       7.701   6.785  16.853  0.00  0.00    +0.000 OA
ATOM     20  N   UNL     1       6.888   5.275  15.330  0.00  0.00    +0.000 N 
ATOM     21  C   UNL     1       5.990   4.308  14.929  0.00  0.00    +0.000 A 
ATOM     22  O   UNL     1       6.030   3.671  13.879  0.00  0.00    +0.000 OA
ATOM     23  N   UNL     1       4.966   4.074  15.817  0.00  0.00    +0.000 N 
ATOM     24  H   UNL     1       4.329   3.337  15.538  0.00  0.00    +0.000 HD
BRANCH  20  25
ATOM     25  O   UNL     1       7.968   5.558  14.472  0.00  0.00    +0.000 OA
ATOM     26  H   UNL     1       8.224   6.458  14.754  0.00  0.00    +0.000 HD
ENDBRANCH  20  25
ENDBRANCH  14  16
ENDBRANCH   4  14
TORSDOF 4
ENDMDL
MODEL 6
REMARK VINA RESULT:      -8.7      1.109      2.028
REMARK  Name = 
REMARK  5 active torsions:
REMARK  status: ('A' for Active; 'I' for Inactive)
REMARK    1  A    between atoms: C_1  and  C_2
REMARK    2  A    between atoms: C_5  and  C_6
REMARK    3  A    between atoms: C_9  and  C_10
REMARK    4  A    between atoms: C_10  and  C_12
REMARK    5  A    between atoms: N_16  and  O_17
REMARK                            x       y       z     vdW  Elec       q    Type
REMARK                         _______ _______ _______ _____ _____    ______ ____
ROOT
ATOM      1  C   UNL     1       1.404   7.677  20.500  0.00  0.00    +0.000 A 
ATOM      2  C   UNL     1       2.194   7.785  19.342  0.00  0.00    +0.000 A 
ATOM      3  C   UNL     1       2.797   6.666  18.755  0.00  0.00    +0.000 A 
ATOM      4  C   UNL     1       2.601   5.396  19.301  0.00  0.00    +0.000 A 
ATOM      5  C   UNL     1       1.865   5.269  20.481  0.00  0.00    +0.000 A 
ATOM      6  C   UNL     1       1.269   6.395  21.066  0.00  0.00    +0.000 A 
ENDROOT
BRANCH   1  11
ATOM      7  C   UNL     1      -1.207  12.342  22.822  0.00  0.00    +0.000 C 
ATOM      8  C   UNL     1      -0.525  11.151  22.220  0.00  0.00    +0.000 A 
ATOM      9  C   UNL     1      -0.088  11.163  20.896  0.00  0.00    +0.000 A 
ATOM     10  C   UNL     1       0.530  10.036  20.342  0.00  0.00    +0.000 A 
ATOM     11  C   UNL     1       0.745   8.866  21.094  0.00  0.00    +0.000 A 
ATOM     12  C   UNL     1       0.304   8.877  22.429  0.00  0.00    +0.000 A 
ATOM     13  C   UNL     1      -0.327   9.997  22.983  0.00  0.00    +0.000 A 
ENDBRANCH   1  11
BRANCH   4  14
ATOM     14  C   UNL     1       3.168   4.166  18.684  0.00  0.00    +0.000 C 
ATOM     15  O   UNL     1       2.602   3.089  18.854  0.00  0.00    +0.000 OA
BRANCH  14  16
ATOM     16  C   UNL     1       4.409   4.266  17.841  0.00  0.00    +0.000 A 
ATOM     17  C   UNL     1       5.586   4.344  18.477  0.00  0.00    +0.000 A 
ATOM     18  C   UNL     1       6.822   4.470  17.682  0.00  0.00    +0.000 A 
ATOM     19  O   UNL     1       7.921   4.535  18.226  0.00  0.00    +0.000 OA
ATOM     20  N   UNL     1       6.649   4.524  16.317  0.00  0.00    +0.000 N 
ATOM     21  C   UNL     1       5.447   4.407  15.652  0.00  0.00    +0.000 A 
ATOM     22  O   UNL     1       5.287   4.430  14.433  0.00  0.00    +0.000 OA
ATOM     23  N   UNL     1       4.351   4.258  16.469  0.00  0.00    +0.000 N 
ATOM     24  H   UNL     1       3.474   4.134  15.977  0.00  0.00    +0.000 HD
BRANCH  20  25
ATOM     25  O   UNL     1       7.814   4.669  15.539  0.00  0.00    +0.000 OA
ATOM     26  H   UNL     1       7.762   3.893  14.946  0.00  0.00    +0.000 HD
ENDBRANCH  20  25
ENDBRANCH  14  16
ENDBRANCH   4  14
TORSDOF 4
ENDMDL
MODEL 7
REMARK VINA RESULT:      -8.7      0.639      1.952
REMARK  Name = 
REMARK  5 active torsions:
REMARK  status: ('A' for Active; 'I' for Inactive)
REMARK    1  A    between atoms: C_1  and  C_2
REMARK    2  A    between atoms: C_5  and  C_6
REMARK    3  A    between atoms: C_9  and  C_10
REMARK    4  A    between atoms: C_10  and  C_12
REMARK    5  A    between atoms: N_16  and  O_17
REMARK                            x       y       z     vdW  Elec       q    Type
REMARK                         _______ _______ _______ _____ _____    ______ ____
ROOT
ATOM      1  C   UNL     1       1.808   7.469  20.035  0.00  0.00    +0.000 A 
ATOM      2  C   UNL     1       1.892   6.214  20.664  0.00  0.00    +0.000 A 
ATOM      3  C   UNL     1       2.567   5.139  20.073  0.00  0.00    +0.000 A 
ATOM      4  C   UNL     1       3.204   5.301  18.841  0.00  0.00    +0.000 A 
ATOM      5  C   UNL     1       3.088   6.522  18.172  0.00  0.00    +0.000 A 
ATOM      6  C   UNL     1       2.406   7.591  18.767  0.00  0.00    +0.000 A 
ENDROOT
BRANCH   1  11
ATOM      7  C   UNL     1      -0.888  11.955  22.601  0.00  0.00    +0.000 C 
ATOM      8  C   UNL     1      -0.204  10.793  21.947  0.00  0.00    +0.000 A 
ATOM      9  C   UNL     1       0.141   9.655  22.677  0.00  0.00    +0.000 A 
ATOM     10  C   UNL     1       0.796   8.585  22.056  0.00  0.00    +0.000 A 
ATOM     11  C   UNL     1       1.116   8.608  20.686  0.00  0.00    +0.000 A 
ATOM     12  C   UNL     1       0.753   9.761  19.967  0.00  0.00    +0.000 A 
ATOM     13  C   UNL     1       0.109  10.839  20.586  0.00  0.00    +0.000 A 
ENDBRANCH   1  11
BRANCH   4  14
ATOM     14  C   UNL     1       3.986   4.211  18.197  0.00  0.00    +0.000 C 
ATOM     15  O   UNL     1       3.736   3.041  18.478  0.00  0.00    +0.000 OA
BRANCH  14  16
ATOM     16  C   UNL     1       5.051   4.557  17.194  0.00  0.00    +0.000 A 
ATOM     17  C   UNL     1       5.923   5.520  17.524  0.00  0.00    +0.000 A 
ATOM     18  C   UNL     1       6.965   5.904  16.552  0.00  0.00    +0.000 A 
ATOM     19  O   UNL     1       7.789   6.774  16.820  0.00  0.00    +0.000 OA
ATOM     20  N   UNL     1       6.931   5.238  15.348  0.00  0.00    +0.000 N 
ATOM     21  C   UNL     1       6.062   4.221  15.014  0.00  0.00    +0.000 A 
ATOM     22  O   UNL     1       6.040   3.605  13.950  0.00  0.00    +0.000 OA
ATOM     23  N   UNL     1       5.147   3.905  15.990  0.00  0.00    +0.000 N 
ATOM     24  H   UNL     1       4.534   3.132  15.757  0.00  0.00    +0.000 HD
BRANCH  20  25
ATOM     25  O   UNL     1       7.901   5.606  14.397  0.00  0.00    +0.000 OA
ATOM     26  H   UNL     1       7.665   5.043  13.633  0.00  0.00    +0.000 HD
ENDBRANCH  20  25
ENDBRANCH  14  16
ENDBRANCH   4  14
TORSDOF 4
ENDMDL
MODEL 8
REMARK VINA RESULT:      -8.6      2.598      3.839
REMARK  Name = 
REMARK  5 active torsions:
REMARK  status: ('A' for Active; 'I' for Inactive)
REMARK    1  A    between atoms: C_1  and  C_2
REMARK    2  A    between atoms: C_5  and  C_6
REMARK    3  A    between atoms: C_9  and  C_10
REMARK    4  A    between atoms: C_10  and  C_12
REMARK    5  A    between atoms: N_16  and  O_17
REMARK                            x       y       z     vdW  Elec       q    Type
REMARK                         _______ _______ _______ _____ _____    ______ ____
ROOT
ATOM      1  C   UNL     1       0.646   9.494  20.268  0.00  0.00    +0.000 A 
ATOM      2  C   UNL     1       0.971   9.774  18.928  0.00  0.00    +0.000 A 
ATOM      3  C   UNL     1       1.816   8.939  18.187  0.00  0.00    +0.000 A 
ATOM      4  C   UNL     1       2.337   7.778  18.762  0.00  0.00    +0.000 A 
ATOM      5  C   UNL     1       2.072   7.507  20.106  0.00  0.00    +0.000 A 
ATOM      6  C   UNL     1       1.232   8.351  20.844  0.00  0.00    +0.000 A 
ENDROOT
BRANCH   1  11
ATOM      7  C   UNL     1      -2.990  12.923  23.267  0.00  0.00    +0.000 C 
ATOM      8  C   UNL     1      -2.049  12.053  22.490  0.00  0.00    +0.000 A 
ATOM      9  C   UNL     1      -1.880  12.220  21.116  0.00  0.00    +0.000 A 
ATOM     10  C   UNL     1      -1.012  11.388  20.400  0.00  0.00    +0.000 A 
ATOM     11  C   UNL     1      -0.274  10.370  21.033  0.00  0.00    +0.000 A 
ATOM     12  C   UNL     1      -0.453  10.222  22.419  0.00  0.00    +0.000 A 
ATOM     13  C   UNL     1      -1.331  11.044  23.137  0.00  0.00    +0.000 A 
ENDBRANCH   1  11
BRANCH   4  14
ATOM     14  C   UNL     1       3.190   6.824  18.001  0.00  0.00    +0.000 C 
ATOM     15  O   UNL     1       3.992   7.256  17.177  0.00  0.00    +0.000 OA
BRANCH  14  16
ATOM     16  C   UNL     1       3.075   5.350  18.272  0.00  0.00    +0.000 A 
ATOM     17  C   UNL     1       1.922   4.748  17.947  0.00  0.00    +0.000 A 
ATOM     18  C   UNL     1       1.765   3.308  18.224  0.00  0.00    +0.000 A 
ATOM     19  O   UNL     1       0.729   2.717  17.933  0.00  0.00    +0.000 OA
ATOM     20  N   UNL     1       2.838   2.698  18.835  0.00  0.00    +0.000 N 
ATOM     21  C   UNL     1       4.041   3.299  19.139  0.00  0.00    +0.000 A 
ATOM     22  O   UNL     1       5.011   2.757  19.662  0.00  0.00    +0.000 OA
ATOM     23  N   UNL     1       4.112   4.634  18.815  0.00  0.00    +0.000 N 
ATOM     24  H   UNL     1       5.010   5.064  19.005  0.00  0.00    +0.000 HD
BRANCH  20  25
ATOM     25  O   UNL     1       2.700   1.328  19.131  0.00  0.00    +0.000 OA
ATOM     26  H   UNL     1       2.924   0.910  18.276  0.00  0.00    +0.000 HD
ENDBRANCH  20  25
ENDBRANCH  14  16
ENDBRANCH   4  14
TORSDOF 4
ENDMDL
MODEL 9
REMARK VINA RESULT:      -8.6      1.506      2.321
REMARK  Name = 
REMARK  5 active torsions:
REMARK  status: ('A' for Active; 'I' for Inactive)
REMARK    1  A    between atoms: C_1  and  C_2
REMARK    2  A    between atoms: C_5  and  C_6
REMARK    3  A    between atoms: C_9  and  C_10
REMARK    4  A    between atoms: C_10  and  C_12
REMARK    5  A    between atoms: N_16  and  O_17
REMARK                            x       y       z     vdW  Elec       q    Type
REMARK                         _______ _______ _______ _____ _____    ______ ____
ROOT
ATOM      1  C   UNL     1       1.218   8.740  20.208  0.00  0.00    +0.000 A 
ATOM      2  C   UNL     1       1.690   8.823  18.886  0.00  0.00    +0.000 A 
ATOM      3  C   UNL     1       2.201   7.705  18.216  0.00  0.00    +0.000 A 
ATOM      4  C   UNL     1       2.228   6.459  18.847  0.00  0.00    +0.000 A 
ATOM      5  C   UNL     1       1.815   6.363  20.178  0.00  0.00    +0.000 A 
ATOM      6  C   UNL     1       1.310   7.487  20.844  0.00  0.00    +0.000 A 
ENDROOT
BRANCH   1  11
ATOM      7  C   UNL     1      -0.992  13.398  22.927  0.00  0.00    +0.000 C 
ATOM      8  C   UNL     1      -0.436  12.194  22.228  0.00  0.00    +0.000 A 
ATOM      9  C   UNL     1      -0.682  10.907  22.705  0.00  0.00    +0.000 A 
ATOM     10  C   UNL     1      -0.141   9.793  22.052  0.00  0.00    +0.000 A 
ATOM     11  C   UNL     1       0.650   9.925  20.895  0.00  0.00    +0.000 A 
ATOM     12  C   UNL     1       0.880  11.231  20.427  0.00  0.00    +0.000 A 
ATOM     13  C   UNL     1       0.352  12.349  21.085  0.00  0.00    +0.000 A 
ENDBRANCH   1  11
BRANCH   4  14
ATOM     14  C   UNL     1       2.704   5.227  18.161  0.00  0.00    +0.000 C 
ATOM     15  O   UNL     1       1.883   4.433  17.708  0.00  0.00    +0.000 OA
BRANCH  14  16
ATOM     16  C   UNL     1       4.180   4.988  18.011  0.00  0.00    +0.000 A 
ATOM     17  C   UNL     1       4.965   5.275  19.059  0.00  0.00    +0.000 A 
ATOM     18  C   UNL     1       6.422   5.078  18.936  0.00  0.00    +0.000 A 
ATOM     19  O   UNL     1       7.174   5.320  19.877  0.00  0.00    +0.000 OA
ATOM     20  N   UNL     1       6.861   4.628  17.712  0.00  0.00    +0.000 N 
ATOM     21  C   UNL     1       6.060   4.294  16.641  0.00  0.00    +0.000 A 
ATOM     22  O   UNL     1       6.442   3.868  15.554  0.00  0.00    +0.000 OA
ATOM     23  N   UNL     1       4.713   4.476  16.854  0.00  0.00    +0.000 N 
ATOM     24  H   UNL     1       4.124   4.194  16.079  0.00  0.00    +0.000 HD
BRANCH  20  25
ATOM     25  O   UNL     1       8.251   4.455  17.566  0.00  0.00    +0.000 OA
ATOM     26  H   UNL     1       8.577   4.631  18.471  0.00  0.00    +0.000 HD
ENDBRANCH  20  25
ENDBRANCH  14  16
ENDBRANCH   4  14
TORSDOF 4
ENDMDL
