MODEL 1
REMARK VINA RESULT:      -5.8      0.000      0.000
REMARK  Name = 
REMARK  7 active torsions:
REMARK  status: ('A' for Active; 'I' for Inactive)
REMARK    1  A    between atoms: C_1  and  C_2
REMARK    2  A    between atoms: C_2  and  C_3
REMARK    3  A    between atoms: C_3  and  C_4
REMARK    4  A    between atoms: C_4  and  O_5
REMARK    5  A    between atoms: C_8  and  C_9
REMARK    6  A    between atoms: C_9  and  C_10
REMARK    7  A    between atoms: C_10  and  O_12
REMARK                            x       y       z     vdW  Elec       q    Type
REMARK                         _______ _______ _______ _____ _____    ______ ____
ROOT
ATOM      1  C   UNL     1       2.749   4.417  18.782  0.00  0.00    +0.000 C 
ATOM      2  C   UNL     1       3.204   5.615  17.905  0.00  0.00    +0.000 C 
ATOM      3  O   UNL     1       4.536   6.061  18.204  0.00  0.00    +0.000 OA
ATOM      4  C   UNL     1       5.512   5.002  18.123  0.00  0.00    +0.000 C 
ATOM      5  C   UNL     1       5.114   3.866  19.086  0.00  0.00    +0.000 C 
ATOM      6  N   UNL     1       3.778   3.321  18.780  0.00  0.00    +0.000 NA
ATOM      7  H   UNL     1       3.524   2.693  19.555  0.00  0.00    +0.000 HD
ENDROOT
BRANCH   1   9
ATOM      8  C   UNL     1       0.866   2.628  19.004  0.00  0.00    +0.000 C 
ATOM      9  C   UNL     1       1.472   3.760  18.181  0.00  0.00    +0.000 C 
ENDBRANCH   1   9
BRANCH   1  10
ATOM     10  C   UNL     1       2.479   4.921  20.233  0.00  0.00    +0.000 C 
BRANCH  10  11
ATOM     11  O   UNL     1       2.642   6.339  20.323  0.00  0.00    +0.000 OA
ATOM     12  H   UNL     1       3.393   6.509  20.917  0.00  0.00    +0.000 HD
ENDBRANCH  10  11
ENDBRANCH   1  10
BRANCH   4  13
ATOM     13  C   UNL     1       5.718   4.565  16.673  0.00  0.00    +0.000 C 
BRANCH  13  14
ATOM     14  C   UNL     1       7.148   4.726  16.248  0.00  0.00    +0.000 C 
ATOM     15  O   UNL     1       7.499   5.342  15.254  0.00  0.00    +0.000 OA
BRANCH  14  16
ATOM     16  O   UNL     1       8.028   4.153  17.100  0.00  0.00    +0.000 OA
ATOM     17  H   UNL     1       8.126   3.185  16.975  0.00  0.00    +0.000 HD
ENDBRANCH  14  16
ENDBRANCH  13  14
ENDBRANCH   4  13
TORSDOF 6
ENDMDL
MODEL 2
REMARK VINA RESULT:      -5.8      2.217      2.627
REMARK  Name = 
REMARK  7 active torsions:
REMARK  status: ('A' for Active; 'I' for Inactive)
REMARK    1  A    between atoms: C_1  and  C_2
REMARK    2  A    between atoms: C_2  and  C_3
REMARK    3  A    between atoms: C_3  and  C_4
REMARK    4  A    between atoms: C_4  and  O_5
REMARK    5  A    between atoms: C_8  and  C_9
REMARK    6  A    between atoms: C_9  and  C_10
REMARK    7  A    between atoms: C_10  and  O_12
REMARK                            x       y       z     vdW  Elec       q    Type
REMARK                         _______ _______ _______ _____ _____    ______ ____
ROOT
ATOM      1  C   UNL     1       3.895   4.023  18.472  0.00  0.00    +0.000 C 
ATOM      2  C   UNL     1       4.893   4.800  19.373  0.00  0.00    +0.000 C 
ATOM      3  O   UNL     1       6.262   4.640  18.970  0.00  0.00    +0.000 OA
ATOM      4  C   UNL     1       6.483   4.990  17.588  0.00  0.00    +0.000 C 
ATOM      5  C   UNL     1       5.571   4.128  16.692  0.00  0.00    +0.000 C 
ATOM      6  N   UNL     1       4.144   4.307  17.016  0.00  0.00    +0.000 NA
ATOM      7  H   UNL     1       3.624   3.588  16.496  0.00  0.00    +0.000 HD
ENDROOT
BRANCH   1   9
ATOM      8  C   UNL     1       1.337   3.609  18.186  0.00  0.00    +0.000 C 
ATOM      9  C   UNL     1       2.440   4.515  18.726  0.00  0.00    +0.000 C 
ENDBRANCH   1   9
BRANCH   1  10
ATOM     10  C   UNL     1       4.023   2.498  18.768  0.00  0.00    +0.000 C 
BRANCH  10  11
ATOM     11  O   UNL     1       5.011   2.250  19.771  0.00  0.00    +0.000 OA
ATOM     12  H   UNL     1       5.292   1.323  19.682  0.00  0.00    +0.000 HD
ENDBRANCH  10  11
ENDBRANCH   1  10
BRANCH   4  13
ATOM     13  C   UNL     1       6.339   6.497  17.380  0.00  0.00    +0.000 C 
BRANCH  13  14
ATOM     14  C   UNL     1       7.583   7.229  17.790  0.00  0.00    +0.000 C 
ATOM     15  O   UNL     1       8.004   8.228  17.228  0.00  0.00    +0.000 OA
BRANCH  14  16
ATOM     16  O   UNL     1       8.184   6.698  18.880  0.00  0.00    +0.000 OA
ATOM     17  H   UNL     1       9.158   6.809  18.886  0.00  0.00    +0.000 HD
ENDBRANCH  14  16
ENDBRANCH  13  14
ENDBRANCH   4  13
TORSDOF 6
ENDMDL
MODEL 3
REMARK VINA RESULT:      -5.8      2.193      2.815
REMARK  Name = 
REMARK  7 active torsions:
REMARK  status: ('A' for Active; 'I' for Inactive)
REMARK    1  A    between atoms: C_1  and  C_2
REMARK    2  A    between atoms: C_2  and  C_3
REMARK    3  A    between atoms: C_3  and  C_4
REMARK    4  A    between atoms: C_4  and  O_5
REMARK    5  A    between atoms: C_8  and  C_9
REMARK    6  A    between atoms: C_9  and  C_10
REMARK    7  A    between atoms: C_10  and  O_12
REMARK                            x       y       z     vdW  Elec       q    Type
REMARK                         _______ _______ _______ _____ _____    ______ ____
ROOT
ATOM      1  C   UNL     1       2.241   3.796  19.396  0.00  0.00    +0.000 C 
ATOM      2  C   UNL     1       3.620   3.110  19.600  0.00  0.00    +0.000 C 
ATOM      3  O   UNL     1       4.488   3.234  18.463  0.00  0.00    +0.000 OA
ATOM      4  C   UNL     1       4.685   4.605  18.057  0.00  0.00    +0.000 C 
ATOM      5  C   UNL     1       3.318   5.244  17.742  0.00  0.00    +0.000 C 
ATOM      6  N   UNL     1       2.406   5.207  18.901  0.00  0.00    +0.000 NA
ATOM      7  H   UNL     1       1.478   5.498  18.565  0.00  0.00    +0.000 HD
ENDROOT
BRANCH   1   9
ATOM      8  C   UNL     1       1.504   2.697  21.642  0.00  0.00    +0.000 C 
ATOM      9  C   UNL     1       1.500   3.940  20.757  0.00  0.00    +0.000 C 
ENDBRANCH   1   9
BRANCH   1  10
ATOM     10  C   UNL     1       1.396   2.952  18.393  0.00  0.00    +0.000 C 
BRANCH  10  11
ATOM     11  O   UNL     1       2.038   1.709  18.098  0.00  0.00    +0.000 OA
ATOM     12  H   UNL     1       1.427   1.188  17.549  0.00  0.00    +0.000 HD
ENDBRANCH  10  11
ENDBRANCH   1  10
BRANCH   4  13
ATOM     13  C   UNL     1       5.519   5.362  19.090  0.00  0.00    +0.000 C 
BRANCH  13  14
ATOM     14  C   UNL     1       6.981   5.315  18.757  0.00  0.00    +0.000 C 
ATOM     15  O   UNL     1       7.783   6.177  19.079  0.00  0.00    +0.000 OA
BRANCH  14  16
ATOM     16  O   UNL     1       7.343   4.194  18.092  0.00  0.00    +0.000 OA
ATOM     17  H   UNL     1       7.451   3.410  18.670  0.00  0.00    +0.000 HD
ENDBRANCH  14  16
ENDBRANCH  13  14
ENDBRANCH   4  13
TORSDOF 6
ENDMDL
MODEL 4
REMARK VINA RESULT:      -5.8      2.074      5.314
REMARK  Name = 
REMARK  7 active torsions:
REMARK  status: ('A' for Active; 'I' for Inactive)
REMARK    1  A    between atoms: C_1  and  C_2
REMARK    2  A    between atoms: C_2  and  C_3
REMARK    3  A    between atoms: C_3  and  C_4
REMARK    4  A    between atoms: C_4  and  O_5
REMARK    5  A    between atoms: C_8  and  C_9
REMARK    6  A    between atoms: C_9  and  C_10
REMARK    7  A    between atoms: C_10  and  O_12
REMARK                            x       y       z     vdW  Elec       q    Type
REMARK                         _______ _______ _______ _____ _____    ______ ____
ROOT
ATOM      1  C   UNL     1       5.600   4.821  18.423  0.00  0.00    +0.000 C 
ATOM      2  C   UNL     1       4.374   5.775  18.456  0.00  0.00    +0.000 C 
ATOM      3  O   UNL     1       3.134   5.113  18.163  0.00  0.00    +0.000 OA
ATOM      4  C   UNL     1       2.889   3.978  19.021  0.00  0.00    +0.000 C 
ATOM      5  C   UNL     1       4.056   2.980  18.891  0.00  0.00    +0.000 C 
ATOM      6  N   UNL     1       5.351   3.589  19.249  0.00  0.00    +0.000 NA
ATOM      7  H   UNL     1       6.084   2.918  18.983  0.00  0.00    +0.000 HD
ENDROOT
BRANCH   1   9
ATOM      8  C   UNL     1       7.590   6.492  18.211  0.00  0.00    +0.000 C 
ATOM      9  C   UNL     1       6.833   5.500  19.089  0.00  0.00    +0.000 C 
ENDBRANCH   1   9
BRANCH   1  10
ATOM     10  C   UNL     1       5.910   4.442  16.942  0.00  0.00    +0.000 C 
BRANCH  10  11
ATOM     11  O   UNL     1       5.064   5.159  16.040  0.00  0.00    +0.000 OA
ATOM     12  H   UNL     1       4.275   4.612  15.883  0.00  0.00    +0.000 HD
ENDBRANCH  10  11
ENDBRANCH   1  10
BRANCH   4  13
ATOM     13  C   UNL     1       2.595   4.433  20.450  0.00  0.00    +0.000 C 
BRANCH  13  14
ATOM     14  C   UNL     1       1.948   3.342  21.251  0.00  0.00    +0.000 C 
ATOM     15  O   UNL     1       2.474   2.793  22.207  0.00  0.00    +0.000 OA
BRANCH  14  16
ATOM     16  O   UNL     1       0.695   3.044  20.838  0.00  0.00    +0.000 OA
ATOM     17  H   UNL     1       0.160   3.831  20.602  0.00  0.00    +0.000 HD
ENDBRANCH  14  16
ENDBRANCH  13  14
ENDBRANCH   4  13
TORSDOF 6
ENDMDL
MODEL 5
REMARK VINA RESULT:      -5.7      2.374      2.964
REMARK  Name = 
REMARK  7 active torsions:
REMARK  status: ('A' for Active; 'I' for Inactive)
REMARK    1  A    between atoms: C_1  and  C_2
REMARK    2  A    between atoms: C_2  and  C_3
REMARK    3  A    between atoms: C_3  and  C_4
REMARK    4  A    between atoms: C_4  and  O_5
REMARK    5  A    between atoms: C_8  and  C_9
REMARK    6  A    between atoms: C_9  and  C_10
REMARK    7  A    between atoms: C_10  and  O_12
REMARK                            x       y       z     vdW  Elec       q    Type
REMARK                         _______ _______ _______ _____ _____    ______ ____
ROOT
ATOM      1  C   UNL     1       2.707   3.457  19.072  0.00  0.00    +0.000 C 
ATOM      2  C   UNL     1       3.980   3.082  19.880  0.00  0.00    +0.000 C 
ATOM      3  O   UNL     1       5.169   3.040  19.076  0.00  0.00    +0.000 OA
ATOM      4  C   UNL     1       5.399   4.267  18.352  0.00  0.00    +0.000 C 
ATOM      5  C   UNL     1       4.177   4.569  17.461  0.00  0.00    +0.000 C 
ATOM      6  N   UNL     1       2.934   4.693  18.245  0.00  0.00    +0.000 NA
ATOM      7  H   UNL     1       2.156   4.730  17.573  0.00  0.00    +0.000 HD
ENDROOT
BRANCH   1   9
ATOM      8  C   UNL     1       1.733   3.414  21.489  0.00  0.00    +0.000 C 
ATOM      9  C   UNL     1       1.545   3.835  20.035  0.00  0.00    +0.000 C 
ENDBRANCH   1   9
BRANCH   1  10
ATOM     10  C   UNL     1       2.306   2.252  18.167  0.00  0.00    +0.000 C 
BRANCH  10  11
ATOM     11  O   UNL     1       3.230   1.170  18.311  0.00  0.00    +0.000 OA
ATOM     12  H   UNL     1       2.978   0.676  19.110  0.00  0.00    +0.000 HD
ENDBRANCH  10  11
ENDBRANCH   1  10
BRANCH   4  13
ATOM     13  C   UNL     1       5.785   5.396  19.307  0.00  0.00    +0.000 C 
BRANCH  13  14
ATOM     14  C   UNL     1       7.254   5.695  19.237  0.00  0.00    +0.000 C 
ATOM     15  O   UNL     1       7.809   6.165  18.257  0.00  0.00    +0.000 OA
BRANCH  14  16
ATOM     16  O   UNL     1       7.910   5.429  20.389  0.00  0.00    +0.000 OA
ATOM     17  H   UNL     1       7.342   5.036  21.085  0.00  0.00    +0.000 HD
ENDBRANCH  14  16
ENDBRANCH  13  14
ENDBRANCH   4  13
TORSDOF 6
ENDMDL
MODEL 6
REMARK VINA RESULT:      -5.7      1.833      2.210
REMARK  Name = 
REMARK  7 active torsions:
REMARK  status: ('A' for Active; 'I' for Inactive)
REMARK    1  A    between atoms: C_1  and  C_2
REMARK    2  A    between atoms: C_2  and  C_3
REMARK    3  A    between atoms: C_3  and  C_4
REMARK    4  A    between atoms: C_4  and  O_5
REMARK    5  A    between atoms: C_8  and  C_9
REMARK    6  A    between atoms: C_9  and  C_10
REMARK    7  A    between atoms: C_10  and  O_12
REMARK                            x       y       z     vdW  Elec       q    Type
REMARK                         _______ _______ _______ _____ _____    ______ ____
ROOT
ATOM      1  C   UNL     1       2.924   3.832  19.504  0.00  0.00    +0.000 C 
ATOM      2  C   UNL     1       3.886   3.179  18.473  0.00  0.00    +0.000 C 
ATOM      3  O   UNL     1       4.293   4.077  17.430  0.00  0.00    +0.000 OA
ATOM      4  C   UNL     1       4.879   5.295  17.937  0.00  0.00    +0.000 C 
ATOM      5  C   UNL     1       3.871   5.997  18.867  0.00  0.00    +0.000 C 
ATOM      6  N   UNL     1       3.470   5.142  20.000  0.00  0.00    +0.000 NA
ATOM      7  H   UNL     1       2.686   5.613  20.472  0.00  0.00    +0.000 HD
ENDROOT
BRANCH   1   9
ATOM      8  C   UNL     1       1.407   2.804  21.358  0.00  0.00    +0.000 C 
ATOM      9  C   UNL     1       2.811   2.944  20.777  0.00  0.00    +0.000 C 
ENDBRANCH   1   9
BRANCH   1  10
ATOM     10  C   UNL     1       1.526   4.029  18.841  0.00  0.00    +0.000 C 
BRANCH  10  11
ATOM     11  O   UNL     1       1.499   3.473  17.524  0.00  0.00    +0.000 OA
ATOM     12  H   UNL     1       2.418   3.282  17.269  0.00  0.00    +0.000 HD
ENDBRANCH  10  11
ENDBRANCH   1  10
BRANCH   4  13
ATOM     13  C   UNL     1       6.243   5.017  18.570  0.00  0.00    +0.000 C 
BRANCH  13  14
ATOM     14  C   UNL     1       7.335   5.018  17.542  0.00  0.00    +0.000 C 
ATOM     15  O   UNL     1       7.436   5.850  16.653  0.00  0.00    +0.000 OA
BRANCH  14  16
ATOM     16  O   UNL     1       8.235   4.023  17.714  0.00  0.00    +0.000 OA
ATOM     17  H   UNL     1       8.198   3.608  18.602  0.00  0.00    +0.000 HD
ENDBRANCH  14  16
ENDBRANCH  13  14
ENDBRANCH   4  13
TORSDOF 6
ENDMDL
MODEL 7
REMARK VINA RESULT:      -5.7      2.348      5.228
REMARK  Name = 
REMARK  7 active torsions:
REMARK  status: ('A' for Active; 'I' for Inactive)
REMARK    1  A    between atoms: C_1  and  C_2
REMARK    2  A    between atoms: C_2  and  C_3
REMARK    3  A    between atoms: C_3  and  C_4
REMARK    4  A    between atoms: C_4  and  O_5
REMARK    5  A    between atoms: C_8  and  C_9
REMARK    6  A    between atoms: C_9  and  C_10
REMARK    7  A    between atoms: C_10  and  O_12
REMARK                            x       y       z     vdW  Elec       q    Type
REMARK                         _______ _______ _______ _____ _____    ______ ____
ROOT
ATOM      1  C   UNL     1       5.065   5.071  18.577  0.00  0.00    +0.000 C 
ATOM      2  C   UNL     1       3.887   5.397  19.535  0.00  0.00    +0.000 C 
ATOM      3  O   UNL     1       2.631   4.865  19.090  0.00  0.00    +0.000 OA
ATOM      4  C   UNL     1       2.680   3.443  18.849  0.00  0.00    +0.000 C 
ATOM      5  C   UNL     1       3.774   3.140  17.806  0.00  0.00    +0.000 C 
ATOM      6  N   UNL     1       5.103   3.605  18.244  0.00  0.00    +0.000 NA
ATOM      7  H   UNL     1       5.735   3.515  17.437  0.00  0.00    +0.000 HD
ENDROOT
BRANCH   1   9
ATOM      8  C   UNL     1       7.459   6.092  18.431  0.00  0.00    +0.000 C 
ATOM      9  C   UNL     1       6.427   5.352  19.276  0.00  0.00    +0.000 C 
ENDBRANCH   1   9
BRANCH   1  10
ATOM     10  C   UNL     1       4.921   5.930  17.283  0.00  0.00    +0.000 C 
BRANCH  10  11
ATOM     11  O   UNL     1       3.886   6.906  17.426  0.00  0.00    +0.000 OA
ATOM     12  H   UNL     1       3.447   6.743  18.278  0.00  0.00    +0.000 HD
ENDBRANCH  10  11
ENDBRANCH   1  10
BRANCH   4  13
ATOM     13  C   UNL     1       2.822   2.675  20.162  0.00  0.00    +0.000 C 
BRANCH  13  14
ATOM     14  C   UNL     1       1.581   2.782  20.999  0.00  0.00    +0.000 C 
ATOM     15  O   UNL     1       1.543   2.549  22.197  0.00  0.00    +0.000 OA
BRANCH  14  16
ATOM     16  O   UNL     1       0.501   3.206  20.304  0.00  0.00    +0.000 OA
ATOM     17  H   UNL     1      -0.301   3.322  20.855  0.00  0.00    +0.000 HD
ENDBRANCH  14  16
ENDBRANCH  13  14
ENDBRANCH   4  13
TORSDOF 6
ENDMDL
MODEL 8
REMARK VINA RESULT:      -5.6      2.375      4.955
REMARK  Name = 
REMARK  7 active torsions:
REMARK  status: ('A' for Active; 'I' for Inactive)
REMARK    1  A    between atoms: C_1  and  C_2
REMARK    2  A    between atoms: C_2  and  C_3
REMARK    3  A    between atoms: C_3  and  C_4
REMARK    4  A    between atoms: C_4  and  O_5
REMARK    5  A    between atoms: C_8  and  C_9
REMARK    6  A    between atoms: C_9  and  C_10
REMARK    7  A    between atoms: C_10  and  O_12
REMARK                            x       y       z     vdW  Elec       q    Type
REMARK                         _______ _______ _______ _____ _____    ______ ____
ROOT
ATOM      1  C   UNL     1       5.316   5.274  16.951  0.00  0.00    +0.000 C 
ATOM      2  C   UNL     1       4.895   3.785  17.089  0.00  0.00    +0.000 C 
ATOM      3  O   UNL     1       4.425   3.449  18.403  0.00  0.00    +0.000 OA
ATOM      4  C   UNL     1       3.348   4.301  18.847  0.00  0.00    +0.000 C 
ATOM      5  C   UNL     1       3.815   5.770  18.820  0.00  0.00    +0.000 C 
ATOM      6  N   UNL     1       4.245   6.191  17.473  0.00  0.00    +0.000 NA
ATOM      7  H   UNL     1       4.688   7.114  17.573  0.00  0.00    +0.000 HD
ENDROOT
BRANCH   1   9
ATOM      8  C   UNL     1       5.826   4.511  14.511  0.00  0.00    +0.000 C 
ATOM      9  C   UNL     1       5.467   5.659  15.450  0.00  0.00    +0.000 C 
ENDBRANCH   1   9
BRANCH   1  10
ATOM     10  C   UNL     1       6.657   5.497  17.716  0.00  0.00    +0.000 C 
BRANCH  10  11
ATOM     11  O   UNL     1       7.239   4.251  18.107  0.00  0.00    +0.000 OA
ATOM     12  H   UNL     1       7.701   4.396  18.951  0.00  0.00    +0.000 HD
ENDBRANCH  10  11
ENDBRANCH   1  10
BRANCH   4  13
ATOM     13  C   UNL     1       2.074   4.023  18.050  0.00  0.00    +0.000 C 
BRANCH  13  14
ATOM     14  C   UNL     1       1.504   2.674  18.378  0.00  0.00    +0.000 C 
ATOM     15  O   UNL     1       0.473   2.504  19.010  0.00  0.00    +0.000 OA
BRANCH  14  16
ATOM     16  O   UNL     1       2.225   1.649  17.871  0.00  0.00    +0.000 OA
ATOM     17  H   UNL     1       3.189   1.724  18.038  0.00  0.00    +0.000 HD
ENDBRANCH  14  16
ENDBRANCH  13  14
ENDBRANCH   4  13
TORSDOF 6
ENDMDL
MODEL 9
REMARK VINA RESULT:      -5.6      2.030      2.544
REMARK  Name = 
REMARK  7 active torsions:
REMARK  status: ('A' for Active; 'I' for Inactive)
REMARK    1  A    between atoms: C_1  and  C_2
REMARK    2  A    between atoms: C_2  and  C_3
REMARK    3  A    between atoms: C_3  and  C_4
REMARK    4  A    between atoms: C_4  and  O_5
REMARK    5  A    between atoms: C_8  and  C_9
REMARK    6  A    between atoms: C_9  and  C_10
REMARK    7  A    between atoms: C_10  and  O_12
REMARK                            x       y       z     vdW  Elec       q    Type
REMARK                         _______ _______ _______ _____ _____    ______ ____
ROOT
ATOM      1  C   UNL     1       3.683   3.930  19.364  0.00  0.00    +0.000 C 
ATOM      2  C   UNL     1       5.103   4.553  19.454  0.00  0.00    +0.000 C 
ATOM      3  O   UNL     1       5.947   4.200  18.348  0.00  0.00    +0.000 OA
ATOM      4  C   UNL     1       5.358   4.519  17.070  0.00  0.00    +0.000 C 
ATOM      5  C   UNL     1       4.001   3.800  16.940  0.00  0.00    +0.000 C 
ATOM      6  N   UNL     1       3.066   4.180  18.016  0.00  0.00    +0.000 NA
ATOM      7  H   UNL     1       2.259   3.545  17.952  0.00  0.00    +0.000 HD
ENDROOT
BRANCH   1   9
ATOM      8  C   UNL     1       1.875   3.684  21.226  0.00  0.00    +0.000 C 
ATOM      9  C   UNL     1       2.721   4.623  20.372  0.00  0.00    +0.000 C 
ENDBRANCH   1   9
BRANCH   1  10
ATOM     10  C   UNL     1       3.779   2.400  19.653  0.00  0.00    +0.000 C 
BRANCH  10  11
ATOM     11  O   UNL     1       5.122   2.019  19.962  0.00  0.00    +0.000 OA
ATOM     12  H   UNL     1       5.246   1.107  19.647  0.00  0.00    +0.000 HD
ENDBRANCH  10  11
ENDBRANCH   1  10
BRANCH   4  13
ATOM     13  C   UNL     1       5.299   6.033  16.863  0.00  0.00    +0.000 C 
BRANCH  13  14
ATOM     14  C   UNL     1       6.672   6.621  16.722  0.00  0.00    +0.000 C 
ATOM     15  O   UNL     1       6.999   7.707  17.174  0.00  0.00    +0.000 OA
BRANCH  14  16
ATOM     16  O   UNL     1       7.539   5.810  16.074  0.00  0.00    +0.000 OA
ATOM     17  H   UNL     1       7.107   5.187  15.452  0.00  0.00    +0.000 HD
ENDBRANCH  14  16
ENDBRANCH  13  14
ENDBRANCH   4  13
TORSDOF 6
ENDMDL
