MODEL 1
REMARK VINA RESULT:      -7.6      0.000      0.000
REMARK  Name = 
REMARK  6 active torsions:
REMARK  status: ('A' for Active; 'I' for Inactive)
REMARK    1  A    between atoms: C_1  and  O_2
REMARK    2  A    between atoms: O_2  and  C_3
REMARK    3  A    between atoms: C_6  and  N_7
REMARK    4  A    between atoms: C_14  and  C_16
REMARK    5  A    between atoms: C_20  and  O_21
REMARK    6  A    between atoms: O_21  and  C_22
REMARK                            x       y       z     vdW  Elec       q    Type
REMARK                         _______ _______ _______ _____ _____    ______ ____
ROOT
ATOM      1  N   UNL     1      -0.723  12.521  20.059  0.00  0.00    +0.000 N 
ATOM      2  N   UNL     1      -0.256  11.219  19.911  0.00  0.00    +0.000 NA
ATOM      3  C   UNL     1       0.769  10.985  19.130  0.00  0.00    +0.000 A 
ATOM      4  N   UNL     1       1.194   9.684  18.896  0.00  0.00    +0.000 N 
ATOM      5  C   UNL     1       1.817   9.241  17.630  0.00  0.00    +0.000 C 
ATOM      6  C   UNL     1       3.017   8.321  17.917  0.00  0.00    +0.000 C 
ATOM      7  N   UNL     1       2.635   7.224  18.813  0.00  0.00    +0.000 N 
ATOM      8  C   UNL     1       3.068   5.936  18.503  0.00  0.00    +0.000 C 
ATOM      9  O   UNL     1       3.821   5.704  17.560  0.00  0.00    +0.000 OA
ATOM     10  C   UNL     1       1.997   7.688  20.061  0.00  0.00    +0.000 C 
ATOM     11  C   UNL     1       0.765   8.561  19.746  0.00  0.00    +0.000 C 
ATOM     12  C   UNL     1       1.533  12.097  18.517  0.00  0.00    +0.000 A 
ATOM     13  C   UNL     1       1.072  13.335  18.633  0.00  0.00    +0.000 A 
ATOM     14  C   UNL     1      -0.155  13.615  19.397  0.00  0.00    +0.000 A 
ATOM     15  O   UNL     1      -0.510  14.790  19.422  0.00  0.00    +0.000 OA
ENDROOT
BRANCH   1  19
ATOM     16  C   UNL     1      -4.075  12.744  22.706  0.00  0.00    +0.000 A 
ATOM     17  C   UNL     1      -2.786  12.615  23.209  0.00  0.00    +0.000 A 
ATOM     18  C   UNL     1      -1.685  12.587  22.348  0.00  0.00    +0.000 A 
ATOM     19  C   UNL     1      -1.838  12.664  20.955  0.00  0.00    +0.000 A 
ATOM     20  C   UNL     1      -3.146  12.838  20.465  0.00  0.00    +0.000 A 
ATOM     21  C   UNL     1      -4.254  12.861  21.329  0.00  0.00    +0.000 A 
BRANCH  16  23
ATOM     22  C   UNL     1      -4.660  12.325  24.958  0.00  0.00    +0.000 C 
ATOM     23  O   UNL     1      -5.063  12.696  23.648  0.00  0.00    +0.000 OA
ENDBRANCH  16  23
ENDBRANCH   1  19
BRANCH   8  24
ATOM     24  C   UNL     1       2.604   4.775  19.306  0.00  0.00    +0.000 A 
ATOM     25  C   UNL     1       1.238   4.473  19.325  0.00  0.00    +0.000 A 
ATOM     26  C   UNL     1       0.778   3.380  20.057  0.00  0.00    +0.000 A 
ATOM     27  C   UNL     1       1.687   2.581  20.755  0.00  0.00    +0.000 A 
ATOM     28  C   UNL     1       3.047   2.897  20.771  0.00  0.00    +0.000 A 
ATOM     29  C   UNL     1       3.491   4.029  20.090  0.00  0.00    +0.000 A 
BRANCH  28  30
ATOM     30  O   UNL     1       3.842   2.037  21.477  0.00  0.00    +0.000 OA
ATOM     31  C   UNL     1       5.005   1.551  20.815  0.00  0.00    +0.000 C 
ENDBRANCH  28  30
ENDBRANCH   8  24
TORSDOF 4
ENDMDL
MODEL 2
REMARK VINA RESULT:      -7.6      2.642      5.167
REMARK  Name = 
REMARK  6 active torsions:
REMARK  status: ('A' for Active; 'I' for Inactive)
REMARK    1  A    between atoms: C_1  and  O_2
REMARK    2  A    between atoms: O_2  and  C_3
REMARK    3  A    between atoms: C_6  and  N_7
REMARK    4  A    between atoms: C_14  and  C_16
REMARK    5  A    between atoms: C_20  and  O_21
REMARK    6  A    between atoms: O_21  and  C_22
REMARK                            x       y       z     vdW  Elec       q    Type
REMARK                         _______ _______ _______ _____ _____    ______ ____
ROOT
ATOM      1  N   UNL     1       0.302  11.097  20.832  0.00  0.00    +0.000 N 
ATOM      2  N   UNL     1       1.096  10.086  20.302  0.00  0.00    +0.000 NA
ATOM      3  C   UNL     1       0.910   8.848  20.688  0.00  0.00    +0.000 A 
ATOM      4  N   UNL     1       1.751   7.837  20.242  0.00  0.00    +0.000 N 
ATOM      5  C   UNL     1       2.085   6.637  21.039  0.00  0.00    +0.000 C 
ATOM      6  C   UNL     1       2.051   5.378  20.154  0.00  0.00    +0.000 C 
ATOM      7  N   UNL     1       2.885   5.555  18.959  0.00  0.00    +0.000 N 
ATOM      8  C   UNL     1       3.730   4.513  18.583  0.00  0.00    +0.000 C 
ATOM      9  O   UNL     1       3.739   3.430  19.165  0.00  0.00    +0.000 OA
ATOM     10  C   UNL     1       2.547   6.768  18.189  0.00  0.00    +0.000 C 
ATOM     11  C   UNL     1       2.643   8.021  19.085  0.00  0.00    +0.000 C 
ATOM     12  C   UNL     1      -0.225   8.484  21.568  0.00  0.00    +0.000 A 
ATOM     13  C   UNL     1      -0.964   9.449  22.097  0.00  0.00    +0.000 A 
ATOM     14  C   UNL     1      -0.697  10.862  21.784  0.00  0.00    +0.000 A 
ATOM     15  O   UNL     1      -1.421  11.679  22.346  0.00  0.00    +0.000 OA
ENDROOT
BRANCH   1  19
ATOM     16  C   UNL     1       1.248  14.923  19.171  0.00  0.00    +0.000 A 
ATOM     17  C   UNL     1       0.095  14.251  18.785  0.00  0.00    +0.000 A 
ATOM     18  C   UNL     1      -0.240  13.021  19.359  0.00  0.00    +0.000 A 
ATOM     19  C   UNL     1       0.579  12.412  20.322  0.00  0.00    +0.000 A 
ATOM     20  C   UNL     1       1.720  13.125  20.734  0.00  0.00    +0.000 A 
ATOM     21  C   UNL     1       2.060  14.360  20.153  0.00  0.00    +0.000 A 
BRANCH  16  23
ATOM     22  C   UNL     1       2.790  16.223  17.938  0.00  0.00    +0.000 C 
ATOM     23  O   UNL     1       1.489  16.082  18.491  0.00  0.00    +0.000 OA
ENDBRANCH  16  23
ENDBRANCH   1  19
BRANCH   8  24
ATOM     24  C   UNL     1       4.684   4.690  17.459  0.00  0.00    +0.000 A 
ATOM     25  C   UNL     1       4.524   3.906  16.311  0.00  0.00    +0.000 A 
ATOM     26  C   UNL     1       5.397   4.063  15.236  0.00  0.00    +0.000 A 
ATOM     27  C   UNL     1       6.417   5.015  15.303  0.00  0.00    +0.000 A 
ATOM     28  C   UNL     1       6.606   5.776  16.459  0.00  0.00    +0.000 A 
ATOM     29  C   UNL     1       5.770   5.567  17.554  0.00  0.00    +0.000 A 
BRANCH  28  30
ATOM     30  O   UNL     1       7.627   6.683  16.405  0.00  0.00    +0.000 OA
ATOM     31  C   UNL     1       7.688   7.641  17.456  0.00  0.00    +0.000 C 
ENDBRANCH  28  30
ENDBRANCH   8  24
TORSDOF 4
ENDMDL
MODEL 3
REMARK VINA RESULT:      -7.6      2.974      5.469
REMARK  Name = 
REMARK  6 active torsions:
REMARK  status: ('A' for Active; 'I' for Inactive)
REMARK    1  A    between atoms: C_1  and  O_2
REMARK    2  A    between atoms: O_2  and  C_3
REMARK    3  A    between atoms: C_6  and  N_7
REMARK    4  A    between atoms: C_14  and  C_16
REMARK    5  A    between atoms: C_20  and  O_21
REMARK    6  A    between atoms: O_21  and  C_22
REMARK                            x       y       z     vdW  Elec       q    Type
REMARK                         _______ _______ _______ _____ _____    ______ ____
ROOT
ATOM      1  N   UNL     1       0.569  10.569  20.665  0.00  0.00    +0.000 N 
ATOM      2  N   UNL     1       1.372   9.568  20.129  0.00  0.00    +0.000 NA
ATOM      3  C   UNL     1       1.198   8.326  20.509  0.00  0.00    +0.000 A 
ATOM      4  N   UNL     1       2.048   7.325  20.057  0.00  0.00    +0.000 N 
ATOM      5  C   UNL     1       2.393   6.124  20.848  0.00  0.00    +0.000 C 
ATOM      6  C   UNL     1       2.371   4.870  19.956  0.00  0.00    +0.000 C 
ATOM      7  N   UNL     1       3.202   5.061  18.762  0.00  0.00    +0.000 N 
ATOM      8  C   UNL     1       4.058   4.029  18.381  0.00  0.00    +0.000 C 
ATOM      9  O   UNL     1       4.077   2.943  18.957  0.00  0.00    +0.000 OA
ATOM     10  C   UNL     1       2.854   6.275  17.999  0.00  0.00    +0.000 C 
ATOM     11  C   UNL     1       2.938   7.524  18.901  0.00  0.00    +0.000 C 
ATOM     12  C   UNL     1       0.066   7.947  21.386  0.00  0.00    +0.000 A 
ATOM     13  C   UNL     1      -0.682   8.902  21.921  0.00  0.00    +0.000 A 
ATOM     14  C   UNL     1      -0.428  10.320  21.616  0.00  0.00    +0.000 A 
ATOM     15  O   UNL     1      -1.159  11.126  22.182  0.00  0.00    +0.000 OA
ENDROOT
BRANCH   1  19
ATOM     16  C   UNL     1       1.509  14.417  19.054  0.00  0.00    +0.000 A 
ATOM     17  C   UNL     1       0.502  13.643  18.491  0.00  0.00    +0.000 A 
ATOM     18  C   UNL     1       0.161  12.404  19.043  0.00  0.00    +0.000 A 
ATOM     19  C   UNL     1       0.833  11.889  20.162  0.00  0.00    +0.000 A 
ATOM     20  C   UNL     1       1.821  12.704  20.746  0.00  0.00    +0.000 A 
ATOM     21  C   UNL     1       2.167  13.947  20.188  0.00  0.00    +0.000 A 
BRANCH  16  23
ATOM     22  C   UNL     1       3.144  15.977  18.359  0.00  0.00    +0.000 C 
ATOM     23  O   UNL     1       1.782  15.575  18.383  0.00  0.00    +0.000 OA
ENDBRANCH  16  23
ENDBRANCH   1  19
BRANCH   8  24
ATOM     24  C   UNL     1       5.010   4.220  17.258  0.00  0.00    +0.000 A 
ATOM     25  C   UNL     1       6.330   4.583  17.548  0.00  0.00    +0.000 A 
ATOM     26  C   UNL     1       7.247   4.754  16.514  0.00  0.00    +0.000 A 
ATOM     27  C   UNL     1       6.848   4.545  15.191  0.00  0.00    +0.000 A 
ATOM     28  C   UNL     1       5.525   4.219  14.890  0.00  0.00    +0.000 A 
ATOM     29  C   UNL     1       4.598   4.114  15.925  0.00  0.00    +0.000 A 
BRANCH  28  30
ATOM     30  O   UNL     1       5.254   4.027  13.563  0.00  0.00    +0.000 OA
ATOM     31  C   UNL     1       6.337   3.599  12.744  0.00  0.00    +0.000 C 
ENDBRANCH  28  30
ENDBRANCH   8  24
TORSDOF 4
ENDMDL
MODEL 4
REMARK VINA RESULT:      -7.4      0.639      1.076
REMARK  Name = 
REMARK  6 active torsions:
REMARK  status: ('A' for Active; 'I' for Inactive)
REMARK    1  A    between atoms: C_1  and  O_2
REMARK    2  A    between atoms: O_2  and  C_3
REMARK    3  A    between atoms: C_6  and  N_7
REMARK    4  A    between atoms: C_14  and  C_16
REMARK    5  A    between atoms: C_20  and  O_21
REMARK    6  A    between atoms: O_21  and  C_22
REMARK                            x       y       z     vdW  Elec       q    Type
REMARK                         _______ _______ _______ _____ _____    ______ ____
ROOT
ATOM      1  N   UNL     1      -0.053  12.538  20.299  0.00  0.00    +0.000 N 
ATOM      2  N   UNL     1       0.293  11.207  20.094  0.00  0.00    +0.000 NA
ATOM      3  C   UNL     1       1.206  10.906  19.204  0.00  0.00    +0.000 A 
ATOM      4  N   UNL     1       1.500   9.579  18.918  0.00  0.00    +0.000 N 
ATOM      5  C   UNL     1       1.945   9.107  17.589  0.00  0.00    +0.000 C 
ATOM      6  C   UNL     1       3.095   8.095  17.737  0.00  0.00    +0.000 C 
ATOM      7  N   UNL     1       2.729   7.017  18.665  0.00  0.00    +0.000 N 
ATOM      8  C   UNL     1       3.025   5.705  18.303  0.00  0.00    +0.000 C 
ATOM      9  O   UNL     1       3.651   5.429  17.281  0.00  0.00    +0.000 OA
ATOM     10  C   UNL     1       2.270   7.512  19.978  0.00  0.00    +0.000 C 
ATOM     11  C   UNL     1       1.081   8.481  19.804  0.00  0.00    +0.000 C 
ATOM     12  C   UNL     1       1.981  11.964  18.516  0.00  0.00    +0.000 A 
ATOM     13  C   UNL     1       1.633  13.232  18.689  0.00  0.00    +0.000 A 
ATOM     14  C   UNL     1       0.523  13.595  19.584  0.00  0.00    +0.000 A 
ATOM     15  O   UNL     1       0.264  14.792  19.654  0.00  0.00    +0.000 OA
ENDROOT
BRANCH   1  19
ATOM     16  C   UNL     1      -3.017  13.380  23.265  0.00  0.00    +0.000 A 
ATOM     17  C   UNL     1      -3.388  12.919  22.008  0.00  0.00    +0.000 A 
ATOM     18  C   UNL     1      -2.419  12.600  21.052  0.00  0.00    +0.000 A 
ATOM     19  C   UNL     1      -1.049  12.754  21.313  0.00  0.00    +0.000 A 
ATOM     20  C   UNL     1      -0.689  13.181  22.605  0.00  0.00    +0.000 A 
ATOM     21  C   UNL     1      -1.662  13.507  23.566  0.00  0.00    +0.000 A 
BRANCH  16  23
ATOM     22  C   UNL     1      -4.814  12.629  24.605  0.00  0.00    +0.000 C 
ATOM     23  O   UNL     1      -4.060  13.713  24.083  0.00  0.00    +0.000 OA
ENDBRANCH  16  23
ENDBRANCH   1  19
BRANCH   8  24
ATOM     24  C   UNL     1       2.563   4.572  19.145  0.00  0.00    +0.000 A 
ATOM     25  C   UNL     1       1.200   4.257  19.160  0.00  0.00    +0.000 A 
ATOM     26  C   UNL     1       0.742   3.189  19.930  0.00  0.00    +0.000 A 
ATOM     27  C   UNL     1       1.651   2.428  20.669  0.00  0.00    +0.000 A 
ATOM     28  C   UNL     1       3.007   2.758  20.688  0.00  0.00    +0.000 A 
ATOM     29  C   UNL     1       3.448   3.867  19.968  0.00  0.00    +0.000 A 
BRANCH  28  30
ATOM     30  O   UNL     1       3.802   1.935  21.437  0.00  0.00    +0.000 OA
ATOM     31  C   UNL     1       5.007   1.481  20.828  0.00  0.00    +0.000 C 
ENDBRANCH  28  30
ENDBRANCH   8  24
TORSDOF 4
ENDMDL
MODEL 5
REMARK VINA RESULT:      -7.4      2.666      4.924
REMARK  Name = 
REMARK  6 active torsions:
REMARK  status: ('A' for Active; 'I' for Inactive)
REMARK    1  A    between atoms: C_1  and  O_2
REMARK    2  A    between atoms: O_2  and  C_3
REMARK    3  A    between atoms: C_6  and  N_7
REMARK    4  A    between atoms: C_14  and  C_16
REMARK    5  A    between atoms: C_20  and  O_21
REMARK    6  A    between atoms: O_21  and  C_22
REMARK                            x       y       z     vdW  Elec       q    Type
REMARK                         _______ _______ _______ _____ _____    ______ ____
ROOT
ATOM      1  N   UNL     1       0.310  11.052  20.740  0.00  0.00    +0.000 N 
ATOM      2  N   UNL     1       1.109  10.037  20.227  0.00  0.00    +0.000 NA
ATOM      3  C   UNL     1       0.930   8.805  20.634  0.00  0.00    +0.000 A 
ATOM      4  N   UNL     1       1.776   7.791  20.205  0.00  0.00    +0.000 N 
ATOM      5  C   UNL     1       2.116   6.606  21.023  0.00  0.00    +0.000 C 
ATOM      6  C   UNL     1       2.089   5.333  20.159  0.00  0.00    +0.000 C 
ATOM      7  N   UNL     1       2.923   5.493  18.962  0.00  0.00    +0.000 N 
ATOM      8  C   UNL     1       3.775   4.450  18.605  0.00  0.00    +0.000 C 
ATOM      9  O   UNL     1       3.789   3.377  19.205  0.00  0.00    +0.000 OA
ATOM     10  C   UNL     1       2.580   6.692  18.172  0.00  0.00    +0.000 C 
ATOM     11  C   UNL     1       2.668   7.960  19.047  0.00  0.00    +0.000 C 
ATOM     12  C   UNL     1      -0.204   8.449  21.518  0.00  0.00    +0.000 A 
ATOM     13  C   UNL     1      -0.950   9.419  22.031  0.00  0.00    +0.000 A 
ATOM     14  C   UNL     1      -0.689  10.828  21.695  0.00  0.00    +0.000 A 
ATOM     15  O   UNL     1      -1.418  11.650  22.242  0.00  0.00    +0.000 OA
ENDROOT
BRANCH   1  19
ATOM     16  C   UNL     1       0.959  15.017  19.274  0.00  0.00    +0.000 A 
ATOM     17  C   UNL     1       1.716  14.522  20.328  0.00  0.00    +0.000 A 
ATOM     18  C   UNL     1       1.537  13.210  20.780  0.00  0.00    +0.000 A 
ATOM     19  C   UNL     1       0.579  12.360  20.208  0.00  0.00    +0.000 A 
ATOM     20  C   UNL     1      -0.150  12.863  19.114  0.00  0.00    +0.000 A 
ATOM     21  C   UNL     1       0.026  14.183  18.662  0.00  0.00    +0.000 A 
BRANCH  16  23
ATOM     22  C   UNL     1       0.667  17.282  19.886  0.00  0.00    +0.000 C 
ATOM     23  O   UNL     1       1.189  16.329  18.972  0.00  0.00    +0.000 OA
ENDBRANCH  16  23
ENDBRANCH   1  19
BRANCH   8  24
ATOM     24  C   UNL     1       4.729   4.613  17.479  0.00  0.00    +0.000 A 
ATOM     25  C   UNL     1       4.607   3.773  16.366  0.00  0.00    +0.000 A 
ATOM     26  C   UNL     1       5.480   3.915  15.290  0.00  0.00    +0.000 A 
ATOM     27  C   UNL     1       6.462   4.908  15.319  0.00  0.00    +0.000 A 
ATOM     28  C   UNL     1       6.614   5.726  16.440  0.00  0.00    +0.000 A 
ATOM     29  C   UNL     1       5.780   5.535  17.540  0.00  0.00    +0.000 A 
BRANCH  28  30
ATOM     30  O   UNL     1       7.600   6.670  16.351  0.00  0.00    +0.000 OA
ATOM     31  C   UNL     1       7.707   7.588  17.433  0.00  0.00    +0.000 C 
ENDBRANCH  28  30
ENDBRANCH   8  24
TORSDOF 4
ENDMDL
MODEL 6
REMARK VINA RESULT:      -7.3      1.440      2.003
REMARK  Name = 
REMARK  6 active torsions:
REMARK  status: ('A' for Active; 'I' for Inactive)
REMARK    1  A    between atoms: C_1  and  O_2
REMARK    2  A    between atoms: O_2  and  C_3
REMARK    3  A    between atoms: C_6  and  N_7
REMARK    4  A    between atoms: C_14  and  C_16
REMARK    5  A    between atoms: C_20  and  O_21
REMARK    6  A    between atoms: O_21  and  C_22
REMARK                            x       y       z     vdW  Elec       q    Type
REMARK                         _______ _______ _______ _____ _____    ______ ____
ROOT
ATOM      1  N   UNL     1      -1.778  13.056  21.160  0.00  0.00    +0.000 N 
ATOM      2  N   UNL     1      -1.191  11.874  20.720  0.00  0.00    +0.000 NA
ATOM      3  C   UNL     1      -0.110  11.923  19.982  0.00  0.00    +0.000 A 
ATOM      4  N   UNL     1       0.438  10.761  19.456  0.00  0.00    +0.000 N 
ATOM      5  C   UNL     1       1.163  10.707  18.168  0.00  0.00    +0.000 C 
ATOM      6  C   UNL     1       2.422   9.832  18.299  0.00  0.00    +0.000 C 
ATOM      7  N   UNL     1       2.091   8.515  18.856  0.00  0.00    +0.000 N 
ATOM      8  C   UNL     1       2.650   7.386  18.262  0.00  0.00    +0.000 C 
ATOM      9  O   UNL     1       3.470   7.461  17.348  0.00  0.00    +0.000 OA
ATOM     10  C   UNL     1       1.351   8.593  20.131  0.00  0.00    +0.000 C 
ATOM     11  C   UNL     1       0.065   9.429  19.960  0.00  0.00    +0.000 C 
ATOM     12  C   UNL     1       0.584  13.207  19.729  0.00  0.00    +0.000 A 
ATOM     13  C   UNL     1       0.012  14.337  20.122  0.00  0.00    +0.000 A 
ATOM     14  C   UNL     1      -1.273  14.322  20.841  0.00  0.00    +0.000 A 
ATOM     15  O   UNL     1      -1.731  15.421  21.138  0.00  0.00    +0.000 OA
ENDROOT
BRANCH   1  19
ATOM     16  C   UNL     1      -5.244  12.740  23.646  0.00  0.00    +0.000 A 
ATOM     17  C   UNL     1      -5.373  12.928  22.275  0.00  0.00    +0.000 A 
ATOM     18  C   UNL     1      -4.242  12.986  21.454  0.00  0.00    +0.000 A 
ATOM     19  C   UNL     1      -2.946  12.882  21.979  0.00  0.00    +0.000 A 
ATOM     20  C   UNL     1      -2.833  12.649  23.363  0.00  0.00    +0.000 A 
ATOM     21  C   UNL     1      -3.969  12.595  24.190  0.00  0.00    +0.000 A 
BRANCH  16  23
ATOM     22  C   UNL     1      -7.582  12.394  23.611  0.00  0.00    +0.000 C 
ATOM     23  O   UNL     1      -6.420  12.763  24.339  0.00  0.00    +0.000 OA
ENDBRANCH  16  23
ENDBRANCH   1  19
BRANCH   8  24
ATOM     24  C   UNL     1       2.249   6.027  18.706  0.00  0.00    +0.000 A 
ATOM     25  C   UNL     1       1.728   5.137  17.761  0.00  0.00    +0.000 A 
ATOM     26  C   UNL     1       1.357   3.850  18.149  0.00  0.00    +0.000 A 
ATOM     27  C   UNL     1       1.525   3.451  19.477  0.00  0.00    +0.000 A 
ATOM     28  C   UNL     1       2.010   4.345  20.434  0.00  0.00    +0.000 A 
ATOM     29  C   UNL     1       2.317   5.650  20.052  0.00  0.00    +0.000 A 
BRANCH  28  30
ATOM     30  O   UNL     1       2.143   3.839  21.697  0.00  0.00    +0.000 OA
ATOM     31  C   UNL     1       2.410   2.445  21.804  0.00  0.00    +0.000 C 
ENDBRANCH  28  30
ENDBRANCH   8  24
TORSDOF 4
ENDMDL
MODEL 7
REMARK VINA RESULT:      -7.3      1.218      1.272
REMARK  Name = 
REMARK  6 active torsions:
REMARK  status: ('A' for Active; 'I' for Inactive)
REMARK    1  A    between atoms: C_1  and  O_2
REMARK    2  A    between atoms: O_2  and  C_3
REMARK    3  A    between atoms: C_6  and  N_7
REMARK    4  A    between atoms: C_14  and  C_16
REMARK    5  A    between atoms: C_20  and  O_21
REMARK    6  A    between atoms: O_21  and  C_22
REMARK                            x       y       z     vdW  Elec       q    Type
REMARK                         _______ _______ _______ _____ _____    ______ ____
ROOT
ATOM      1  N   UNL     1      -1.324  12.797  20.605  0.00  0.00    +0.000 N 
ATOM      2  N   UNL     1      -0.776  11.547  20.336  0.00  0.00    +0.000 NA
ATOM      3  C   UNL     1       0.226  11.446  19.499  0.00  0.00    +0.000 A 
ATOM      4  N   UNL     1       0.727  10.201  19.146  0.00  0.00    +0.000 N 
ATOM      5  C   UNL     1       1.320   9.900  17.825  0.00  0.00    +0.000 C 
ATOM      6  C   UNL     1       2.593   9.050  17.990  0.00  0.00    +0.000 C 
ATOM      7  N   UNL     1       2.328   7.863  18.811  0.00  0.00    +0.000 N 
ATOM      8  C   UNL     1       2.833   6.637  18.384  0.00  0.00    +0.000 C 
ATOM      9  O   UNL     1       3.556   6.531  17.396  0.00  0.00    +0.000 OA
ATOM     10  C   UNL     1       1.717   8.184  20.117  0.00  0.00    +0.000 C 
ATOM     11  C   UNL     1       0.415   8.989  19.921  0.00  0.00    +0.000 C 
ATOM     12  C   UNL     1       0.883  12.653  18.945  0.00  0.00    +0.000 A 
ATOM     13  C   UNL     1       0.345  13.843  19.176  0.00  0.00    +0.000 A 
ATOM     14  C   UNL     1      -0.862  13.976  20.009  0.00  0.00    +0.000 A 
ATOM     15  O   UNL     1      -1.296  15.117  20.140  0.00  0.00    +0.000 OA
ENDROOT
BRANCH   1  19
ATOM     16  C   UNL     1      -4.571  12.582  23.381  0.00  0.00    +0.000 A 
ATOM     17  C   UNL     1      -3.262  12.402  23.810  0.00  0.00    +0.000 A 
ATOM     18  C   UNL     1      -2.195  12.517  22.913  0.00  0.00    +0.000 A 
ATOM     19  C   UNL     1      -2.404  12.792  21.554  0.00  0.00    +0.000 A 
ATOM     20  C   UNL     1      -3.732  13.013  21.143  0.00  0.00    +0.000 A 
ATOM     21  C   UNL     1      -4.805  12.893  22.043  0.00  0.00    +0.000 A 
BRANCH  16  23
ATOM     22  C   UNL     1      -6.865  12.616  23.950  0.00  0.00    +0.000 C 
ATOM     23  O   UNL     1      -5.520  12.384  24.342  0.00  0.00    +0.000 OA
ENDBRANCH  16  23
ENDBRANCH   1  19
BRANCH   8  24
ATOM     24  C   UNL     1       2.486   5.389  19.110  0.00  0.00    +0.000 A 
ATOM     25  C   UNL     1       1.958   5.486  20.402  0.00  0.00    +0.000 A 
ATOM     26  C   UNL     1       1.611   4.330  21.100  0.00  0.00    +0.000 A 
ATOM     27  C   UNL     1       1.775   3.081  20.497  0.00  0.00    +0.000 A 
ATOM     28  C   UNL     1       2.334   2.973  19.222  0.00  0.00    +0.000 A 
ATOM     29  C   UNL     1       2.740   4.128  18.558  0.00  0.00    +0.000 A 
BRANCH  28  30
ATOM     30  O   UNL     1       2.434   1.701  18.730  0.00  0.00    +0.000 OA
ATOM     31  C   UNL     1       3.749   1.189  18.543  0.00  0.00    +0.000 C 
ENDBRANCH  28  30
ENDBRANCH   8  24
TORSDOF 4
ENDMDL
MODEL 8
REMARK VINA RESULT:      -7.3      1.039      1.157
REMARK  Name = 
REMARK  6 active torsions:
REMARK  status: ('A' for Active; 'I' for Inactive)
REMARK    1  A    between atoms: C_1  and  O_2
REMARK    2  A    between atoms: O_2  and  C_3
REMARK    3  A    between atoms: C_6  and  N_7
REMARK    4  A    between atoms: C_14  and  C_16
REMARK    5  A    between atoms: C_20  and  O_21
REMARK    6  A    between atoms: O_21  and  C_22
REMARK                            x       y       z     vdW  Elec       q    Type
REMARK                         _______ _______ _______ _____ _____    ______ ____
ROOT
ATOM      1  N   UNL     1      -0.735  12.731  20.502  0.00  0.00    +0.000 N 
ATOM      2  N   UNL     1      -0.301  11.449  20.181  0.00  0.00    +0.000 NA
ATOM      3  C   UNL     1       0.752  11.296  19.417  0.00  0.00    +0.000 A 
ATOM      4  N   UNL     1       1.148  10.029  19.009  0.00  0.00    +0.000 N 
ATOM      5  C   UNL     1       1.816   9.756  17.718  0.00  0.00    +0.000 C 
ATOM      6  C   UNL     1       2.974   8.761  17.914  0.00  0.00    +0.000 C 
ATOM      7  N   UNL     1       2.518   7.557  18.620  0.00  0.00    +0.000 N 
ATOM      8  C   UNL     1       2.926   6.315  18.139  0.00  0.00    +0.000 C 
ATOM      9  O   UNL     1       3.715   6.198  17.204  0.00  0.00    +0.000 OA
ATOM     10  C   UNL     1       1.837   7.855  19.896  0.00  0.00    +0.000 C 
ATOM     11  C   UNL     1       0.647   8.810  19.663  0.00  0.00    +0.000 C 
ATOM     12  C   UNL     1       1.576  12.458  19.008  0.00  0.00    +0.000 A 
ATOM     13  C   UNL     1       1.148  13.681  19.289  0.00  0.00    +0.000 A 
ATOM     14  C   UNL     1      -0.104  13.890  20.035  0.00  0.00    +0.000 A 
ATOM     15  O   UNL     1      -0.426  15.060  20.219  0.00  0.00    +0.000 OA
ENDROOT
BRANCH   1  19
ATOM     16  C   UNL     1      -4.202  12.684  23.006  0.00  0.00    +0.000 A 
ATOM     17  C   UNL     1      -2.948  12.400  23.532  0.00  0.00    +0.000 A 
ATOM     18  C   UNL     1      -1.807  12.459  22.725  0.00  0.00    +0.000 A 
ATOM     19  C   UNL     1      -1.886  12.781  21.362  0.00  0.00    +0.000 A 
ATOM     20  C   UNL     1      -3.158  13.107  20.855  0.00  0.00    +0.000 A 
ATOM     21  C   UNL     1      -4.306  13.043  21.664  0.00  0.00    +0.000 A 
BRANCH  16  23
ATOM     22  C   UNL     1      -6.523  12.894  23.402  0.00  0.00    +0.000 C 
ATOM     23  O   UNL     1      -5.237  12.531  23.884  0.00  0.00    +0.000 OA
ENDBRANCH  16  23
ENDBRANCH   1  19
BRANCH   8  24
ATOM     24  C   UNL     1       2.391   5.066  18.739  0.00  0.00    +0.000 A 
ATOM     25  C   UNL     1       1.673   4.183  17.926  0.00  0.00    +0.000 A 
ATOM     26  C   UNL     1       1.173   2.997  18.461  0.00  0.00    +0.000 A 
ATOM     27  C   UNL     1       1.408   2.688  19.803  0.00  0.00    +0.000 A 
ATOM     28  C   UNL     1       2.092   3.581  20.630  0.00  0.00    +0.000 A 
ATOM     29  C   UNL     1       2.531   4.794  20.105  0.00  0.00    +0.000 A 
BRANCH  28  30
ATOM     30  O   UNL     1       2.271   3.166  21.921  0.00  0.00    +0.000 OA
ATOM     31  C   UNL     1       1.337   2.217  22.425  0.00  0.00    +0.000 C 
ENDBRANCH  28  30
ENDBRANCH   8  24
TORSDOF 4
ENDMDL
MODEL 9
REMARK VINA RESULT:      -7.0      1.380      1.674
REMARK  Name = 
REMARK  6 active torsions:
REMARK  status: ('A' for Active; 'I' for Inactive)
REMARK    1  A    between atoms: C_1  and  O_2
REMARK    2  A    between atoms: O_2  and  C_3
REMARK    3  A    between atoms: C_6  and  N_7
REMARK    4  A    between atoms: C_14  and  C_16
REMARK    5  A    between atoms: C_20  and  O_21
REMARK    6  A    between atoms: O_21  and  C_22
REMARK                            x       y       z     vdW  Elec       q    Type
REMARK                         _______ _______ _______ _____ _____    ______ ____
ROOT
ATOM      1  N   UNL     1      -1.691  13.166  20.290  0.00  0.00    +0.000 N 
ATOM      2  N   UNL     1      -1.103  11.945  19.978  0.00  0.00    +0.000 NA
ATOM      3  C   UNL     1       0.056  11.922  19.369  0.00  0.00    +0.000 A 
ATOM      4  N   UNL     1       0.618  10.718  18.967  0.00  0.00    +0.000 N 
ATOM      5  C   UNL     1       1.482  10.574  17.775  0.00  0.00    +0.000 C 
ATOM      6  C   UNL     1       2.685   9.668  18.092  0.00  0.00    +0.000 C 
ATOM      7  N   UNL     1       2.245   8.393  18.670  0.00  0.00    +0.000 N 
ATOM      8  C   UNL     1       2.826   7.218  18.199  0.00  0.00    +0.000 C 
ATOM      9  O   UNL     1       3.746   7.219  17.384  0.00  0.00    +0.000 OA
ATOM     10  C   UNL     1       1.367   8.561  19.846  0.00  0.00    +0.000 C 
ATOM     11  C   UNL     1       0.141   9.426  19.487  0.00  0.00    +0.000 C 
ATOM     12  C   UNL     1       0.822  13.169  19.136  0.00  0.00    +0.000 A 
ATOM     13  C   UNL     1       0.251  14.336  19.406  0.00  0.00    +0.000 A 
ATOM     14  C   UNL     1      -1.107  14.397  19.971  0.00  0.00    +0.000 A 
ATOM     15  O   UNL     1      -1.555  15.524  20.159  0.00  0.00    +0.000 OA
ENDROOT
BRANCH   1  19
ATOM     16  C   UNL     1      -5.419  12.679  22.329  0.00  0.00    +0.000 A 
ATOM     17  C   UNL     1      -4.252  12.928  23.041  0.00  0.00    +0.000 A 
ATOM     18  C   UNL     1      -3.040  13.133  22.374  0.00  0.00    +0.000 A 
ATOM     19  C   UNL     1      -2.951  13.072  20.976  0.00  0.00    +0.000 A 
ATOM     20  C   UNL     1      -4.149  12.861  20.267  0.00  0.00    +0.000 A 
ATOM     21  C   UNL     1      -5.367  12.651  20.937  0.00  0.00    +0.000 A 
BRANCH  16  23
ATOM     22  C   UNL     1      -7.700  12.064  22.407  0.00  0.00    +0.000 C 
ATOM     23  O   UNL     1      -6.519  12.438  23.102  0.00  0.00    +0.000 OA
ENDBRANCH  16  23
ENDBRANCH   1  19
BRANCH   8  24
ATOM     24  C   UNL     1       2.326   5.897  18.659  0.00  0.00    +0.000 A 
ATOM     25  C   UNL     1       1.759   5.028  17.721  0.00  0.00    +0.000 A 
ATOM     26  C   UNL     1       1.295   3.777  18.124  0.00  0.00    +0.000 A 
ATOM     27  C   UNL     1       1.417   3.390  19.460  0.00  0.00    +0.000 A 
ATOM     28  C   UNL     1       1.949   4.265  20.410  0.00  0.00    +0.000 A 
ATOM     29  C   UNL     1       2.349   5.539  20.012  0.00  0.00    +0.000 A 
BRANCH  28  30
ATOM     30  O   UNL     1       2.029   3.773  21.683  0.00  0.00    +0.000 OA
ATOM     31  C   UNL     1       2.531   2.448  21.827  0.00  0.00    +0.000 C 
ENDBRANCH  28  30
ENDBRANCH   8  24
TORSDOF 4
ENDMDL
