MODEL 1
REMARK VINA RESULT:      -9.3      0.000      0.000
REMARK  Name = 
REMARK  6 active torsions:
REMARK  status: ('A' for Active; 'I' for Inactive)
REMARK    1  A    between atoms: C_1  and  C_2
REMARK    2  A    between atoms: N_7  and  C_8
REMARK    3  A    between atoms: C_12  and  C_13
REMARK    4  A    between atoms: C_15  and  C_16
REMARK    5  A    between atoms: C_28  and  C_29
REMARK    6  A    between atoms: C_28  and  C_30
REMARK                            x       y       z     vdW  Elec       q    Type
REMARK                         _______ _______ _______ _____ _____    ______ ____
ROOT
ATOM      1  C   UNL     1       1.232   9.971  19.827  0.00  0.00    +0.000 A 
ATOM      2  C   UNL     1       1.358  10.327  18.475  0.00  0.00    +0.000 A 
ATOM      3  C   UNL     1       1.800   9.410  17.528  0.00  0.00    +0.000 A 
ATOM      4  C   UNL     1       2.115   8.115  17.920  0.00  0.00    +0.000 A 
ATOM      5  C   UNL     1       2.002   7.721  19.262  0.00  0.00    +0.000 A 
ATOM      6  C   UNL     1       1.569   8.663  20.205  0.00  0.00    +0.000 A 
ENDROOT
BRANCH   1  13
ATOM      7  C   UNL     1       0.060  15.591  22.704  0.00  0.00    +0.000 C 
ATOM      8  C   UNL     1      -0.598  14.250  22.938  0.00  0.00    +0.000 C 
ATOM      9  O   UNL     1      -1.329  14.115  23.915  0.00  0.00    +0.000 OA
ATOM     10  N   UNL     1      -0.329  13.248  22.011  0.00  0.00    +0.000 N 
ATOM     11  C   UNL     1       0.694  13.416  20.974  0.00  0.00    +0.000 C 
ATOM     12  C   UNL     1       1.611  12.203  20.905  0.00  0.00    +0.000 C 
ATOM     13  N   UNL     1       0.857  10.965  20.778  0.00  0.00    +0.000 N 
ATOM     14  C   UNL     1      -0.185  10.740  21.697  0.00  0.00    +0.000 C 
ATOM     15  O   UNL     1      -0.496   9.615  22.096  0.00  0.00    +0.000 OA
ATOM     16  C   UNL     1      -1.122  11.973  21.915  0.00  0.00    +0.000 C 
ATOM     17  C   UNL     1      -2.060  11.654  23.097  0.00  0.00    +0.000 C 
ATOM     18  C   UNL     1      -2.016  12.028  20.649  0.00  0.00    +0.000 C 
ENDBRANCH   1  13
BRANCH   5  19
ATOM     19  C   UNL     1       2.379   6.351  19.635  0.00  0.00    +0.000 A 
ATOM     20  C   UNL     1       1.704   5.501  20.502  0.00  0.00    +0.000 A 
ATOM     21  C   UNL     1       2.458   4.318  20.633  0.00  0.00    +0.000 A 
ATOM     22  C   UNL     1       3.565   4.446  19.828  0.00  0.00    +0.000 A 
ATOM     23  C   UNL     1       4.677   3.595  19.548  0.00  0.00    +0.000 A 
ATOM     24  N   UNL     1       4.847   2.347  20.070  0.00  0.00    +0.000 N 
ATOM     25  N   UNL     1       5.590   4.034  18.734  0.00  0.00    +0.000 NA
ATOM     26  C   UNL     1       5.438   5.276  18.172  0.00  0.00    +0.000 A 
ATOM     27  N   UNL     1       4.463   6.107  18.362  0.00  0.00    +0.000 NA
ATOM     28  N   UNL     1       3.515   5.669  19.217  0.00  0.00    +0.000 N 
ATOM     29  H   UNL     1       4.380   2.082  20.930  0.00  0.00    +0.000 HD
ATOM     30  H   UNL     1       5.782   1.969  19.970  0.00  0.00    +0.000 HD
BRANCH  21  31
ATOM     31  C   UNL     1       2.150   3.209  21.465  0.00  0.00    +0.000 C 
ATOM     32  N   UNL     1       1.864   2.341  22.185  0.00  0.00    +0.000 NA
ENDBRANCH  21  31
ENDBRANCH   5  19
TORSDOF 3
ENDMDL
MODEL 2
REMARK VINA RESULT:      -9.2      3.449      8.904
REMARK  Name = 
REMARK  6 active torsions:
REMARK  status: ('A' for Active; 'I' for Inactive)
REMARK    1  A    between atoms: C_1  and  C_2
REMARK    2  A    between atoms: N_7  and  C_8
REMARK    3  A    between atoms: C_12  and  C_13
REMARK    4  A    between atoms: C_15  and  C_16
REMARK    5  A    between atoms: C_28  and  C_29
REMARK    6  A    between atoms: C_28  and  C_30
REMARK                            x       y       z     vdW  Elec       q    Type
REMARK                         _______ _______ _______ _____ _____    ______ ____
ROOT
ATOM      1  C   UNL     1       3.288   4.931  19.060  0.00  0.00    +0.000 A 
ATOM      2  C   UNL     1       2.857   3.857  19.855  0.00  0.00    +0.000 A 
ATOM      3  C   UNL     1       1.948   4.047  20.890  0.00  0.00    +0.000 A 
ATOM      4  C   UNL     1       1.447   5.318  21.139  0.00  0.00    +0.000 A 
ATOM      5  C   UNL     1       1.852   6.417  20.366  0.00  0.00    +0.000 A 
ATOM      6  C   UNL     1       2.781   6.209  19.338  0.00  0.00    +0.000 A 
ENDROOT
BRANCH   1  13
ATOM      7  C   UNL     1       6.254   3.775  13.484  0.00  0.00    +0.000 C 
ATOM      8  C   UNL     1       6.758   4.542  14.685  0.00  0.00    +0.000 C 
ATOM      9  O   UNL     1       7.946   4.852  14.732  0.00  0.00    +0.000 OA
ATOM     10  N   UNL     1       5.825   4.853  15.669  0.00  0.00    +0.000 N 
ATOM     11  C   UNL     1       4.469   4.297  15.643  0.00  0.00    +0.000 C 
ATOM     12  C   UNL     1       4.079   3.735  17.003  0.00  0.00    +0.000 C 
ATOM     13  N   UNL     1       4.285   4.707  18.066  0.00  0.00    +0.000 N 
ATOM     14  C   UNL     1       5.542   5.337  18.138  0.00  0.00    +0.000 C 
ATOM     15  O   UNL     1       6.058   5.685  19.203  0.00  0.00    +0.000 OA
ATOM     16  C   UNL     1       6.075   5.856  16.763  0.00  0.00    +0.000 C 
ATOM     17  C   UNL     1       7.536   6.309  16.961  0.00  0.00    +0.000 C 
ATOM     18  C   UNL     1       5.255   7.139  16.470  0.00  0.00    +0.000 C 
ENDBRANCH   1  13
BRANCH   5  19
ATOM     19  C   UNL     1       1.321   7.748  20.689  0.00  0.00    +0.000 A 
ATOM     20  C   UNL     1       0.670   8.134  21.854  0.00  0.00    +0.000 A 
ATOM     21  C   UNL     1       0.260   9.473  21.706  0.00  0.00    +0.000 A 
ATOM     22  C   UNL     1       0.686   9.899  20.470  0.00  0.00    +0.000 A 
ATOM     23  C   UNL     1       0.570  11.134  19.765  0.00  0.00    +0.000 A 
ATOM     24  N   UNL     1      -0.033  12.253  20.259  0.00  0.00    +0.000 N 
ATOM     25  N   UNL     1       1.078  11.205  18.571  0.00  0.00    +0.000 NA
ATOM     26  C   UNL     1       1.714  10.105  18.053  0.00  0.00    +0.000 A 
ATOM     27  N   UNL     1       1.872   8.952  18.623  0.00  0.00    +0.000 NA
ATOM     28  N   UNL     1       1.335   8.862  19.857  0.00  0.00    +0.000 N 
ATOM     29  H   UNL     1      -0.716  12.181  21.005  0.00  0.00    +0.000 HD
ATOM     30  H   UNL     1      -0.246  12.962  19.566  0.00  0.00    +0.000 HD
BRANCH  21  31
ATOM     31  C   UNL     1      -0.483  10.237  22.645  0.00  0.00    +0.000 C 
ATOM     32  N   UNL     1      -1.090  10.913  23.371  0.00  0.00    +0.000 NA
ENDBRANCH  21  31
ENDBRANCH   5  19
TORSDOF 3
ENDMDL
MODEL 3
REMARK VINA RESULT:      -9.0      1.183      1.461
REMARK  Name = 
REMARK  6 active torsions:
REMARK  status: ('A' for Active; 'I' for Inactive)
REMARK    1  A    between atoms: C_1  and  C_2
REMARK    2  A    between atoms: N_7  and  C_8
REMARK    3  A    between atoms: C_12  and  C_13
REMARK    4  A    between atoms: C_15  and  C_16
REMARK    5  A    between atoms: C_28  and  C_29
REMARK    6  A    between atoms: C_28  and  C_30
REMARK                            x       y       z     vdW  Elec       q    Type
REMARK                         _______ _______ _______ _____ _____    ______ ____
ROOT
ATOM      1  C   UNL     1       0.998   9.675  19.356  0.00  0.00    +0.000 A 
ATOM      2  C   UNL     1       1.627  10.159  18.199  0.00  0.00    +0.000 A 
ATOM      3  C   UNL     1       2.519   9.371  17.481  0.00  0.00    +0.000 A 
ATOM      4  C   UNL     1       2.789   8.076  17.909  0.00  0.00    +0.000 A 
ATOM      5  C   UNL     1       2.181   7.556  19.061  0.00  0.00    +0.000 A 
ATOM      6  C   UNL     1       1.296   8.371  19.780  0.00  0.00    +0.000 A 
ENDROOT
BRANCH   1  13
ATOM      7  C   UNL     1      -1.130  14.375  23.180  0.00  0.00    +0.000 C 
ATOM      8  C   UNL     1      -1.837  13.694  22.030  0.00  0.00    +0.000 C 
ATOM      9  O   UNL     1      -3.039  13.894  21.875  0.00  0.00    +0.000 OA
ATOM     10  N   UNL     1      -1.063  12.878  21.212  0.00  0.00    +0.000 N 
ATOM     11  C   UNL     1       0.319  12.533  21.557  0.00  0.00    +0.000 C 
ATOM     12  C   UNL     1       0.565  11.038  21.416  0.00  0.00    +0.000 C 
ATOM     13  N   UNL     1       0.156  10.546  20.109  0.00  0.00    +0.000 N 
ATOM     14  C   UNL     1      -1.138  10.874  19.666  0.00  0.00    +0.000 C 
ATOM     15  O   UNL     1      -1.812  10.127  18.951  0.00  0.00    +0.000 OA
ATOM     16  C   UNL     1      -1.522  12.376  19.869  0.00  0.00    +0.000 C 
ATOM     17  C   UNL     1      -3.023  12.530  19.552  0.00  0.00    +0.000 C 
ATOM     18  C   UNL     1      -0.759  13.141  18.756  0.00  0.00    +0.000 C 
ENDBRANCH   1  13
BRANCH   5  19
ATOM     19  C   UNL     1       2.523   6.195  19.494  0.00  0.00    +0.000 A 
ATOM     20  C   UNL     1       1.823   5.397  20.391  0.00  0.00    +0.000 A 
ATOM     21  C   UNL     1       2.548   4.204  20.576  0.00  0.00    +0.000 A 
ATOM     22  C   UNL     1       3.663   4.272  19.775  0.00  0.00    +0.000 A 
ATOM     23  C   UNL     1       4.757   3.386  19.538  0.00  0.00    +0.000 A 
ATOM     24  N   UNL     1       4.894   2.156  20.113  0.00  0.00    +0.000 N 
ATOM     25  N   UNL     1       5.685   3.769  18.715  0.00  0.00    +0.000 NA
ATOM     26  C   UNL     1       5.566   4.990  18.100  0.00  0.00    +0.000 A 
ATOM     27  N   UNL     1       4.609   5.850  18.248  0.00  0.00    +0.000 NA
ATOM     28  N   UNL     1       3.646   5.470  19.113  0.00  0.00    +0.000 N 
ATOM     29  H   UNL     1       4.415   1.939  20.980  0.00  0.00    +0.000 HD
ATOM     30  H   UNL     1       5.821   1.753  20.037  0.00  0.00    +0.000 HD
BRANCH  21  31
ATOM     31  C   UNL     1       2.209   3.138  21.451  0.00  0.00    +0.000 C 
ATOM     32  N   UNL     1       1.868   2.284  22.164  0.00  0.00    +0.000 NA
ENDBRANCH  21  31
ENDBRANCH   5  19
TORSDOF 3
ENDMDL
MODEL 4
REMARK VINA RESULT:      -8.5      2.770      8.860
REMARK  Name = 
REMARK  6 active torsions:
REMARK  status: ('A' for Active; 'I' for Inactive)
REMARK    1  A    between atoms: C_1  and  C_2
REMARK    2  A    between atoms: N_7  and  C_8
REMARK    3  A    between atoms: C_12  and  C_13
REMARK    4  A    between atoms: C_15  and  C_16
REMARK    5  A    between atoms: C_28  and  C_29
REMARK    6  A    between atoms: C_28  and  C_30
REMARK                            x       y       z     vdW  Elec       q    Type
REMARK                         _______ _______ _______ _____ _____    ______ ____
ROOT
ATOM      1  C   UNL     1       1.861   8.147  19.403  0.00  0.00    +0.000 A 
ATOM      2  C   UNL     1       1.960   8.633  18.091  0.00  0.00    +0.000 A 
ATOM      3  C   UNL     1       1.439   9.874  17.741  0.00  0.00    +0.000 A 
ATOM      4  C   UNL     1       0.817  10.654  18.708  0.00  0.00    +0.000 A 
ATOM      5  C   UNL     1       0.698  10.203  20.031  0.00  0.00    +0.000 A 
ATOM      6  C   UNL     1       1.215   8.943  20.361  0.00  0.00    +0.000 A 
ENDROOT
BRANCH   1  13
ATOM      7  C   UNL     1       2.260   2.088  21.493  0.00  0.00    +0.000 C 
ATOM      8  C   UNL     1       2.973   2.739  20.330  0.00  0.00    +0.000 C 
ATOM      9  O   UNL     1       3.896   2.134  19.790  0.00  0.00    +0.000 OA
ATOM     10  N   UNL     1       2.524   3.997  19.942  0.00  0.00    +0.000 N 
ATOM     11  C   UNL     1       1.546   4.743  20.740  0.00  0.00    +0.000 C 
ATOM     12  C   UNL     1       1.994   6.182  20.955  0.00  0.00    +0.000 C 
ATOM     13  N   UNL     1       2.331   6.833  19.699  0.00  0.00    +0.000 N 
ATOM     14  C   UNL     1       3.222   6.166  18.838  0.00  0.00    +0.000 C 
ATOM     15  O   UNL     1       4.017   6.760  18.104  0.00  0.00    +0.000 OA
ATOM     16  C   UNL     1       2.903   4.648  18.639  0.00  0.00    +0.000 C 
ATOM     17  C   UNL     1       4.077   4.013  17.867  0.00  0.00    +0.000 C 
ATOM     18  C   UNL     1       1.682   4.615  17.684  0.00  0.00    +0.000 C 
ENDBRANCH   1  13
BRANCH   5  19
ATOM     19  C   UNL     1       0.002  11.048  21.011  0.00  0.00    +0.000 A 
ATOM     20  C   UNL     1      -1.166  10.748  21.700  0.00  0.00    +0.000 A 
ATOM     21  C   UNL     1      -1.522  11.871  22.472  0.00  0.00    +0.000 A 
ATOM     22  C   UNL     1      -0.558  12.831  22.270  0.00  0.00    +0.000 A 
ATOM     23  C   UNL     1      -0.375  14.156  22.766  0.00  0.00    +0.000 A 
ATOM     24  N   UNL     1      -1.207  14.772  23.655  0.00  0.00    +0.000 N 
ATOM     25  N   UNL     1       0.659  14.826  22.350  0.00  0.00    +0.000 NA
ATOM     26  C   UNL     1       1.529  14.228  21.475  0.00  0.00    +0.000 A 
ATOM     27  N   UNL     1       1.446  13.033  20.982  0.00  0.00    +0.000 NA
ATOM     28  N   UNL     1       0.368  12.333  21.395  0.00  0.00    +0.000 N 
ATOM     29  H   UNL     1      -2.166  14.461  23.759  0.00  0.00    +0.000 HD
ATOM     30  H   UNL     1      -1.083  15.775  23.727  0.00  0.00    +0.000 HD
BRANCH  21  31
ATOM     31  C   UNL     1      -2.677  12.003  23.287  0.00  0.00    +0.000 C 
ATOM     32  N   UNL     1      -3.659  12.122  23.900  0.00  0.00    +0.000 NA
ENDBRANCH  21  31
ENDBRANCH   5  19
TORSDOF 3
ENDMDL
MODEL 5
REMARK VINA RESULT:      -8.4      3.254      9.218
REMARK  Name = 
REMARK  6 active torsions:
REMARK  status: ('A' for Active; 'I' for Inactive)
REMARK    1  A    between atoms: C_1  and  C_2
REMARK    2  A    between atoms: N_7  and  C_8
REMARK    3  A    between atoms: C_12  and  C_13
REMARK    4  A    between atoms: C_15  and  C_16
REMARK    5  A    between atoms: C_28  and  C_29
REMARK    6  A    between atoms: C_28  and  C_30
REMARK                            x       y       z     vdW  Elec       q    Type
REMARK                         _______ _______ _______ _____ _____    ______ ____
ROOT
ATOM      1  C   UNL     1       3.003   5.648  19.182  0.00  0.00    +0.000 A 
ATOM      2  C   UNL     1       2.475   4.767  20.139  0.00  0.00    +0.000 A 
ATOM      3  C   UNL     1       1.535   5.194  21.069  0.00  0.00    +0.000 A 
ATOM      4  C   UNL     1       1.098   6.513  21.049  0.00  0.00    +0.000 A 
ATOM      5  C   UNL     1       1.601   7.424  20.107  0.00  0.00    +0.000 A 
ATOM      6  C   UNL     1       2.561   6.979  19.188  0.00  0.00    +0.000 A 
ENDROOT
BRANCH   1  13
ATOM      7  C   UNL     1       6.278   3.915  13.937  0.00  0.00    +0.000 C 
ATOM      8  C   UNL     1       6.802   4.464  15.245  0.00  0.00    +0.000 C 
ATOM      9  O   UNL     1       8.011   4.426  15.458  0.00  0.00    +0.000 OA
ATOM     10  N   UNL     1       5.863   4.988  16.128  0.00  0.00    +0.000 N 
ATOM     11  C   UNL     1       4.423   4.836  15.896  0.00  0.00    +0.000 C 
ATOM     12  C   UNL     1       3.712   4.356  17.153  0.00  0.00    +0.000 C 
ATOM     13  N   UNL     1       4.028   5.191  18.302  0.00  0.00    +0.000 N 
ATOM     14  C   UNL     1       5.386   5.439  18.573  0.00  0.00    +0.000 C 
ATOM     15  O   UNL     1       5.826   5.588  19.716  0.00  0.00    +0.000 OA
ATOM     16  C   UNL     1       6.225   5.838  17.315  0.00  0.00    +0.000 C 
ATOM     17  C   UNL     1       7.713   5.855  17.723  0.00  0.00    +0.000 C 
ATOM     18  C   UNL     1       5.835   7.310  17.021  0.00  0.00    +0.000 C 
ENDBRANCH   1  13
BRANCH   5  19
ATOM     19  C   UNL     1       1.136   8.817  20.146  0.00  0.00    +0.000 A 
ATOM     20  C   UNL     1       1.229   9.763  19.132  0.00  0.00    +0.000 A 
ATOM     21  C   UNL     1       0.733  10.985  19.624  0.00  0.00    +0.000 A 
ATOM     22  C   UNL     1       0.318  10.770  20.917  0.00  0.00    +0.000 A 
ATOM     23  C   UNL     1      -0.260  11.611  21.915  0.00  0.00    +0.000 A 
ATOM     24  N   UNL     1      -0.563  12.928  21.735  0.00  0.00    +0.000 N 
ATOM     25  N   UNL     1      -0.523  11.088  23.075  0.00  0.00    +0.000 NA
ATOM     26  C   UNL     1      -0.253   9.759  23.282  0.00  0.00    +0.000 A 
ATOM     27  N   UNL     1       0.260   8.924  22.435  0.00  0.00    +0.000 NA
ATOM     28  N   UNL     1       0.552   9.459  21.231  0.00  0.00    +0.000 N 
ATOM     29  H   UNL     1      -0.100  13.467  21.012  0.00  0.00    +0.000 HD
ATOM     30  H   UNL     1      -0.740  13.443  22.590  0.00  0.00    +0.000 HD
BRANCH  21  31
ATOM     31  C   UNL     1       0.694  12.222  18.927  0.00  0.00    +0.000 C 
ATOM     32  N   UNL     1       0.634  13.262  18.410  0.00  0.00    +0.000 NA
ENDBRANCH  21  31
ENDBRANCH   5  19
TORSDOF 3
ENDMDL
MODEL 6
REMARK VINA RESULT:      -8.0      1.303      1.852
REMARK  Name = 
REMARK  6 active torsions:
REMARK  status: ('A' for Active; 'I' for Inactive)
REMARK    1  A    between atoms: C_1  and  C_2
REMARK    2  A    between atoms: N_7  and  C_8
REMARK    3  A    between atoms: C_12  and  C_13
REMARK    4  A    between atoms: C_15  and  C_16
REMARK    5  A    between atoms: C_28  and  C_29
REMARK    6  A    between atoms: C_28  and  C_30
REMARK                            x       y       z     vdW  Elec       q    Type
REMARK                         _______ _______ _______ _____ _____    ______ ____
ROOT
ATOM      1  C   UNL     1       0.922   9.811  19.324  0.00  0.00    +0.000 A 
ATOM      2  C   UNL     1       1.611  10.302  18.204  0.00  0.00    +0.000 A 
ATOM      3  C   UNL     1       2.543   9.519  17.532  0.00  0.00    +0.000 A 
ATOM      4  C   UNL     1       2.794   8.224  17.967  0.00  0.00    +0.000 A 
ATOM      5  C   UNL     1       2.126   7.697  19.083  0.00  0.00    +0.000 A 
ATOM      6  C   UNL     1       1.201   8.506  19.757  0.00  0.00    +0.000 A 
ENDROOT
BRANCH   1  13
ATOM      7  C   UNL     1      -2.203  12.903  24.004  0.00  0.00    +0.000 C 
ATOM      8  C   UNL     1      -1.910  13.364  22.594  0.00  0.00    +0.000 C 
ATOM      9  O   UNL     1      -2.471  14.372  22.174  0.00  0.00    +0.000 OA
ATOM     10  N   UNL     1      -1.005  12.603  21.861  0.00  0.00    +0.000 N 
ATOM     11  C   UNL     1      -0.512  11.313  22.351  0.00  0.00    +0.000 C 
ATOM     12  C   UNL     1      -0.599  10.245  21.269  0.00  0.00    +0.000 C 
ATOM     13  N   UNL     1       0.039  10.676  20.035  0.00  0.00    +0.000 N 
ATOM     14  C   UNL     1      -0.330  11.931  19.515  0.00  0.00    +0.000 C 
ATOM     15  O   UNL     1      -0.362  12.172  18.306  0.00  0.00    +0.000 OA
ATOM     16  C   UNL     1      -0.372  13.075  20.579  0.00  0.00    +0.000 C 
ATOM     17  C   UNL     1      -1.002  14.317  19.916  0.00  0.00    +0.000 C 
ATOM     18  C   UNL     1       1.114  13.429  20.850  0.00  0.00    +0.000 C 
ENDBRANCH   1  13
BRANCH   5  19
ATOM     19  C   UNL     1       2.449   6.334  19.527  0.00  0.00    +0.000 A 
ATOM     20  C   UNL     1       1.737   5.553  20.430  0.00  0.00    +0.000 A 
ATOM     21  C   UNL     1       2.445   4.352  20.626  0.00  0.00    +0.000 A 
ATOM     22  C   UNL     1       3.562   4.398  19.825  0.00  0.00    +0.000 A 
ATOM     23  C   UNL     1       4.643   3.495  19.596  0.00  0.00    +0.000 A 
ATOM     24  N   UNL     1       4.763   2.268  20.181  0.00  0.00    +0.000 N 
ATOM     25  N   UNL     1       5.578   3.858  18.770  0.00  0.00    +0.000 NA
ATOM     26  C   UNL     1       5.476   5.076  18.146  0.00  0.00    +0.000 A 
ATOM     27  N   UNL     1       4.531   5.950  18.286  0.00  0.00    +0.000 NA
ATOM     28  N   UNL     1       3.562   5.590  19.153  0.00  0.00    +0.000 N 
ATOM     29  H   UNL     1       4.280   2.064  21.049  0.00  0.00    +0.000 HD
ATOM     30  H   UNL     1       5.684   1.852  20.109  0.00  0.00    +0.000 HD
BRANCH  21  31
ATOM     31  C   UNL     1       2.091   3.298  21.509  0.00  0.00    +0.000 C 
ATOM     32  N   UNL     1       1.854   2.402  22.212  0.00  0.00    +0.000 NA
ENDBRANCH  21  31
ENDBRANCH   5  19
TORSDOF 3
ENDMDL
MODEL 7
REMARK VINA RESULT:      -8.0      3.278      9.483
REMARK  Name = 
REMARK  6 active torsions:
REMARK  status: ('A' for Active; 'I' for Inactive)
REMARK    1  A    between atoms: C_1  and  C_2
REMARK    2  A    between atoms: N_7  and  C_8
REMARK    3  A    between atoms: C_12  and  C_13
REMARK    4  A    between atoms: C_15  and  C_16
REMARK    5  A    between atoms: C_28  and  C_29
REMARK    6  A    between atoms: C_28  and  C_30
REMARK                            x       y       z     vdW  Elec       q    Type
REMARK                         _______ _______ _______ _____ _____    ______ ____
ROOT
ATOM      1  C   UNL     1       2.302   7.562  18.976  0.00  0.00    +0.000 A 
ATOM      2  C   UNL     1       1.861   7.018  20.192  0.00  0.00    +0.000 A 
ATOM      3  C   UNL     1       1.180   7.793  21.123  0.00  0.00    +0.000 A 
ATOM      4  C   UNL     1       0.921   9.130  20.845  0.00  0.00    +0.000 A 
ATOM      5  C   UNL     1       1.345   9.711  19.641  0.00  0.00    +0.000 A 
ATOM      6  C   UNL     1       2.044   8.918  18.721  0.00  0.00    +0.000 A 
ENDROOT
BRANCH   1  13
ATOM      7  C   UNL     1       7.130   5.102  15.529  0.00  0.00    +0.000 C 
ATOM      8  C   UNL     1       5.895   4.411  16.061  0.00  0.00    +0.000 C 
ATOM      9  O   UNL     1       5.636   3.278  15.663  0.00  0.00    +0.000 OA
ATOM     10  N   UNL     1       5.129   5.115  16.984  0.00  0.00    +0.000 N 
ATOM     11  C   UNL     1       5.388   6.527  17.278  0.00  0.00    +0.000 C 
ATOM     12  C   UNL     1       4.101   7.341  17.243  0.00  0.00    +0.000 C 
ATOM     13  N   UNL     1       3.071   6.755  18.087  0.00  0.00    +0.000 N 
ATOM     14  C   UNL     1       2.790   5.386  17.916  0.00  0.00    +0.000 C 
ATOM     15  O   UNL     1       1.665   4.907  18.078  0.00  0.00    +0.000 OA
ATOM     16  C   UNL     1       4.061   4.479  17.833  0.00  0.00    +0.000 C 
ATOM     17  C   UNL     1       3.608   3.063  17.424  0.00  0.00    +0.000 C 
ATOM     18  C   UNL     1       4.574   4.369  19.293  0.00  0.00    +0.000 C 
ENDBRANCH   1  13
BRANCH   5  19
ATOM     19  C   UNL     1       1.079  11.137  19.406  0.00  0.00    +0.000 A 
ATOM     20  C   UNL     1       1.956  12.082  18.888  0.00  0.00    +0.000 A 
ATOM     21  C   UNL     1       1.315  13.335  18.911  0.00  0.00    +0.000 A 
ATOM     22  C   UNL     1       0.050  13.141  19.414  0.00  0.00    +0.000 A 
ATOM     23  C   UNL     1      -1.047  14.016  19.675  0.00  0.00    +0.000 A 
ATOM     24  N   UNL     1      -1.046  15.356  19.418  0.00  0.00    +0.000 N 
ATOM     25  N   UNL     1      -2.126  13.505  20.188  0.00  0.00    +0.000 NA
ATOM     26  C   UNL     1      -2.170  12.157  20.436  0.00  0.00    +0.000 A 
ATOM     27  N   UNL     1      -1.230  11.291  20.224  0.00  0.00    +0.000 NA
ATOM     28  N   UNL     1      -0.098  11.812  19.706  0.00  0.00    +0.000 N 
ATOM     29  H   UNL     1      -0.171  15.863  19.341  0.00  0.00    +0.000 HD
ATOM     30  H   UNL     1      -1.790  15.875  19.869  0.00  0.00    +0.000 HD
BRANCH  21  31
ATOM     31  C   UNL     1       1.877  14.578  18.516  0.00  0.00    +0.000 C 
ATOM     32  N   UNL     1       2.286  15.626  18.221  0.00  0.00    +0.000 NA
ENDBRANCH  21  31
ENDBRANCH   5  19
TORSDOF 3
ENDMDL
MODEL 8
REMARK VINA RESULT:      -7.9      2.887      8.929
REMARK  Name = 
REMARK  6 active torsions:
REMARK  status: ('A' for Active; 'I' for Inactive)
REMARK    1  A    between atoms: C_1  and  C_2
REMARK    2  A    between atoms: N_7  and  C_8
REMARK    3  A    between atoms: C_12  and  C_13
REMARK    4  A    between atoms: C_15  and  C_16
REMARK    5  A    between atoms: C_28  and  C_29
REMARK    6  A    between atoms: C_28  and  C_30
REMARK                            x       y       z     vdW  Elec       q    Type
REMARK                         _______ _______ _______ _____ _____    ______ ____
ROOT
ATOM      1  C   UNL     1       2.008   8.195  19.210  0.00  0.00    +0.000 A 
ATOM      2  C   UNL     1       2.472   8.648  17.966  0.00  0.00    +0.000 A 
ATOM      3  C   UNL     1       2.100   9.891  17.468  0.00  0.00    +0.000 A 
ATOM      4  C   UNL     1       1.261  10.708  18.216  0.00  0.00    +0.000 A 
ATOM      5  C   UNL     1       0.775  10.291  19.465  0.00  0.00    +0.000 A 
ATOM      6  C   UNL     1       1.148   9.028  19.943  0.00  0.00    +0.000 A 
ENDROOT
BRANCH   1  13
ATOM      7  C   UNL     1       1.719   2.287  21.709  0.00  0.00    +0.000 C 
ATOM      8  C   UNL     1       2.613   2.808  20.607  0.00  0.00    +0.000 C 
ATOM      9  O   UNL     1       3.549   2.109  20.226  0.00  0.00    +0.000 OA
ATOM     10  N   UNL     1       2.304   4.061  20.088  0.00  0.00    +0.000 N 
ATOM     11  C   UNL     1       1.293   4.921  20.708  0.00  0.00    +0.000 C 
ATOM     12  C   UNL     1       1.812   6.341  20.887  0.00  0.00    +0.000 C 
ATOM     13  N   UNL     1       2.344   6.879  19.645  0.00  0.00    +0.000 N 
ATOM     14  C   UNL     1       3.284   6.098  18.946  0.00  0.00    +0.000 C 
ATOM     15  O   UNL     1       4.202   6.587  18.282  0.00  0.00    +0.000 OA
ATOM     16  C   UNL     1       2.884   4.593  18.805  0.00  0.00    +0.000 C 
ATOM     17  C   UNL     1       4.095   3.832  18.228  0.00  0.00    +0.000 C 
ATOM     18  C   UNL     1       1.788   4.569  17.707  0.00  0.00    +0.000 C 
ENDBRANCH   1  13
BRANCH   5  19
ATOM     19  C   UNL     1      -0.137  11.173  20.204  0.00  0.00    +0.000 A 
ATOM     20  C   UNL     1       0.097  11.789  21.428  0.00  0.00    +0.000 A 
ATOM     21  C   UNL     1      -1.073  12.476  21.805  0.00  0.00    +0.000 A 
ATOM     22  C   UNL     1      -1.996  12.298  20.802  0.00  0.00    +0.000 A 
ATOM     23  C   UNL     1      -3.340  12.740  20.615  0.00  0.00    +0.000 A 
ATOM     24  N   UNL     1      -4.021  13.534  21.491  0.00  0.00    +0.000 N 
ATOM     25  N   UNL     1      -3.960  12.369  19.536  0.00  0.00    +0.000 NA
ATOM     26  C   UNL     1      -3.296  11.590  18.622  0.00  0.00    +0.000 A 
ATOM     27  N   UNL     1      -2.080  11.152  18.705  0.00  0.00    +0.000 NA
ATOM     28  N   UNL     1      -1.430  11.519  19.829  0.00  0.00    +0.000 N 
ATOM     29  H   UNL     1      -3.742  13.582  22.464  0.00  0.00    +0.000 HD
ATOM     30  H   UNL     1      -5.024  13.565  21.343  0.00  0.00    +0.000 HD
BRANCH  21  31
ATOM     31  C   UNL     1      -1.276  13.197  23.012  0.00  0.00    +0.000 C 
ATOM     32  N   UNL     1      -1.455  13.841  23.964  0.00  0.00    +0.000 NA
ENDBRANCH  21  31
ENDBRANCH   5  19
TORSDOF 3
ENDMDL
MODEL 9
REMARK VINA RESULT:      -7.9      0.924      2.268
REMARK  Name = 
REMARK  6 active torsions:
REMARK  status: ('A' for Active; 'I' for Inactive)
REMARK    1  A    between atoms: C_1  and  C_2
REMARK    2  A    between atoms: N_7  and  C_8
REMARK    3  A    between atoms: C_12  and  C_13
REMARK    4  A    between atoms: C_15  and  C_16
REMARK    5  A    between atoms: C_28  and  C_29
REMARK    6  A    between atoms: C_28  and  C_30
REMARK                            x       y       z     vdW  Elec       q    Type
REMARK                         _______ _______ _______ _____ _____    ______ ____
ROOT
ATOM      1  C   UNL     1       0.917   9.838  19.580  0.00  0.00    +0.000 A 
ATOM      2  C   UNL     1       0.282   9.944  18.333  0.00  0.00    +0.000 A 
ATOM      3  C   UNL     1       0.529   9.026  17.319  0.00  0.00    +0.000 A 
ATOM      4  C   UNL     1       1.412   7.976  17.543  0.00  0.00    +0.000 A 
ATOM      5  C   UNL     1       2.066   7.836  18.776  0.00  0.00    +0.000 A 
ATOM      6  C   UNL     1       1.817   8.781  19.781  0.00  0.00    +0.000 A 
ENDROOT
BRANCH   1  13
ATOM      7  C   UNL     1       0.378  15.509  22.544  0.00  0.00    +0.000 C 
ATOM      8  C   UNL     1      -0.329  14.209  22.849  0.00  0.00    +0.000 C 
ATOM      9  O   UNL     1      -0.962  14.113  23.898  0.00  0.00    +0.000 OA
ATOM     10  N   UNL     1      -0.216  13.195  21.903  0.00  0.00    +0.000 N 
ATOM     11  C   UNL     1       0.702  13.306  20.765  0.00  0.00    +0.000 C 
ATOM     12  C   UNL     1       1.535  12.041  20.606  0.00  0.00    +0.000 C 
ATOM     13  N   UNL     1       0.701  10.850  20.562  0.00  0.00    +0.000 N 
ATOM     14  C   UNL     1      -0.252  10.684  21.584  0.00  0.00    +0.000 C 
ATOM     15  O   UNL     1      -0.585   9.577  22.017  0.00  0.00    +0.000 OA
ATOM     16  C   UNL     1      -1.088  11.968  21.894  0.00  0.00    +0.000 C 
ATOM     17  C   UNL     1      -1.915  11.701  23.168  0.00  0.00    +0.000 C 
ATOM     18  C   UNL     1      -2.104  12.079  20.727  0.00  0.00    +0.000 C 
ENDBRANCH   1  13
BRANCH   5  19
ATOM     19  C   UNL     1       3.017   6.731  18.956  0.00  0.00    +0.000 A 
ATOM     20  C   UNL     1       4.335   6.676  18.518  0.00  0.00    +0.000 A 
ATOM     21  C   UNL     1       4.850   5.403  18.831  0.00  0.00    +0.000 A 
ATOM     22  C   UNL     1       3.857   4.707  19.479  0.00  0.00    +0.000 A 
ATOM     23  C   UNL     1       3.779   3.391  20.027  0.00  0.00    +0.000 A 
ATOM     24  N   UNL     1       4.806   2.493  20.030  0.00  0.00    +0.000 N 
ATOM     25  N   UNL     1       2.657   3.021  20.567  0.00  0.00    +0.000 NA
ATOM     26  C   UNL     1       1.612   3.908  20.604  0.00  0.00    +0.000 A 
ATOM     27  N   UNL     1       1.597   5.118  20.141  0.00  0.00    +0.000 NA
ATOM     28  N   UNL     1       2.752   5.509  19.563  0.00  0.00    +0.000 N 
ATOM     29  H   UNL     1       5.563   2.577  19.361  0.00  0.00    +0.000 HD
ATOM     30  H   UNL     1       4.533   1.538  20.233  0.00  0.00    +0.000 HD
BRANCH  21  31
ATOM     31  C   UNL     1       6.145   4.915  18.513  0.00  0.00    +0.000 C 
ATOM     32  N   UNL     1       7.213   4.498  18.316  0.00  0.00    +0.000 NA
ENDBRANCH  21  31
ENDBRANCH   5  19
TORSDOF 3
ENDMDL
