MODEL 1
REMARK VINA RESULT:      -6.9      0.000      0.000
REMARK  Name = 
REMARK  4 active torsions:
REMARK  status: ('A' for Active; 'I' for Inactive)
REMARK    1  A    between atoms: N_1  and  C_2
REMARK    2  A    between atoms: C_2  and  N_4
REMARK    3  A    between atoms: N_5  and  C_6
REMARK    4  A    between atoms: C_7  and  O_8
REMARK                            x       y       z     vdW  Elec       q    Type
REMARK                         _______ _______ _______ _____ _____    ______ ____
ROOT
ATOM      1  C   UNL     1       4.239   2.991  19.139  0.00  0.00    +0.000 A 
ATOM      2  C   UNL     1       3.759   1.750  18.779  0.00  0.00    +0.000 A 
ATOM      3  N   UNL     1       2.422   1.736  19.061  0.00  0.00    +0.000 N 
ATOM      4  C   UNL     1       2.021   2.949  19.576  0.00  0.00    +0.000 A 
ATOM      5  C   UNL     1       0.753   3.376  19.993  0.00  0.00    +0.000 A 
ATOM      6  C   UNL     1       0.640   4.683  20.473  0.00  0.00    +0.000 A 
ATOM      7  C   UNL     1       1.751   5.514  20.528  0.00  0.00    +0.000 A 
ATOM      8  F   UNL     1       1.608   6.763  20.992  0.00  0.00    +0.000 F 
ATOM      9  C   UNL     1       3.013   5.084  20.116  0.00  0.00    +0.000 A 
ATOM     10  C   UNL     1       3.154   3.769  19.629  0.00  0.00    +0.000 A 
ATOM     11  H   UNL     1       1.821   0.941  18.901  0.00  0.00    +0.000 HD
ENDROOT
BRANCH   1  13
ATOM     12  N   UNL     1       5.727   4.242  18.063  0.00  0.00    +0.000 NA
ATOM     13  N   UNL     1       5.553   3.474  19.036  0.00  0.00    +0.000 NA
BRANCH  12  14
ATOM     14  C   UNL     1       7.010   4.730  17.960  0.00  0.00    +0.000 C 
ATOM     15  S   UNL     1       7.669   5.857  19.010  0.00  0.00    +0.000 S 
BRANCH  14  16
ATOM     16  N   UNL     1       7.783   4.295  16.921  0.00  0.00    +0.000 N 
ATOM     17  H   UNL     1       8.180   4.957  16.269  0.00  0.00    +0.000 HD
ATOM     18  H   UNL     1       8.005   3.312  16.841  0.00  0.00    +0.000 HD
ENDBRANCH  14  16
ENDBRANCH  12  14
ENDBRANCH   1  13
BRANCH   2  19
ATOM     19  O   UNL     1       4.334   0.674  18.256  0.00  0.00    +0.000 OA
ATOM     20  H   UNL     1       4.924   1.001  17.548  0.00  0.00    +0.000 HD
ENDBRANCH   2  19
TORSDOF 4
ENDMDL
MODEL 2
REMARK VINA RESULT:      -6.8      1.746      1.851
REMARK  Name = 
REMARK  4 active torsions:
REMARK  status: ('A' for Active; 'I' for Inactive)
REMARK    1  A    between atoms: N_1  and  C_2
REMARK    2  A    between atoms: C_2  and  N_4
REMARK    3  A    between atoms: N_5  and  C_6
REMARK    4  A    between atoms: C_7  and  O_8
REMARK                            x       y       z     vdW  Elec       q    Type
REMARK                         _______ _______ _______ _____ _____    ______ ____
ROOT
ATOM      1  C   UNL     1       4.782   3.801  19.210  0.00  0.00    +0.000 A 
ATOM      2  C   UNL     1       4.467   2.598  19.805  0.00  0.00    +0.000 A 
ATOM      3  N   UNL     1       3.300   2.782  20.494  0.00  0.00    +0.000 N 
ATOM      4  C   UNL     1       2.844   4.073  20.342  0.00  0.00    +0.000 A 
ATOM      5  C   UNL     1       1.698   4.690  20.861  0.00  0.00    +0.000 A 
ATOM      6  C   UNL     1       1.482   6.029  20.528  0.00  0.00    +0.000 A 
ATOM      7  C   UNL     1       2.378   6.708  19.713  0.00  0.00    +0.000 A 
ATOM      8  F   UNL     1       2.141   7.992  19.411  0.00  0.00    +0.000 F 
ATOM      9  C   UNL     1       3.520   6.091  19.201  0.00  0.00    +0.000 A 
ATOM     10  C   UNL     1       3.762   4.741  19.523  0.00  0.00    +0.000 A 
ATOM     11  H   UNL     1       2.844   2.059  21.031  0.00  0.00    +0.000 HD
ENDROOT
BRANCH   1  13
ATOM     12  N   UNL     1       5.623   4.113  17.177  0.00  0.00    +0.000 NA
ATOM     13  N   UNL     1       5.889   4.101  18.400  0.00  0.00    +0.000 NA
BRANCH  12  14
ATOM     14  C   UNL     1       6.699   4.417  16.375  0.00  0.00    +0.000 C 
ATOM     15  S   UNL     1       6.598   4.640  14.718  0.00  0.00    +0.000 S 
BRANCH  14  16
ATOM     16  N   UNL     1       7.932   4.512  16.959  0.00  0.00    +0.000 N 
ATOM     17  H   UNL     1       8.678   3.894  16.675  0.00  0.00    +0.000 HD
ATOM     18  H   UNL     1       8.109   5.243  17.635  0.00  0.00    +0.000 HD
ENDBRANCH  14  16
ENDBRANCH  12  14
ENDBRANCH   1  13
BRANCH   2  19
ATOM     19  O   UNL     1       5.057   1.410  19.813  0.00  0.00    +0.000 OA
ATOM     20  H   UNL     1       5.914   1.537  20.266  0.00  0.00    +0.000 HD
ENDBRANCH   2  19
TORSDOF 4
ENDMDL
MODEL 3
REMARK VINA RESULT:      -6.8      4.467      5.867
REMARK  Name = 
REMARK  4 active torsions:
REMARK  status: ('A' for Active; 'I' for Inactive)
REMARK    1  A    between atoms: N_1  and  C_2
REMARK    2  A    between atoms: C_2  and  N_4
REMARK    3  A    between atoms: N_5  and  C_6
REMARK    4  A    between atoms: C_7  and  O_8
REMARK                            x       y       z     vdW  Elec       q    Type
REMARK                         _______ _______ _______ _____ _____    ______ ____
ROOT
ATOM      1  C   UNL     1       6.027   4.473  14.851  0.00  0.00    +0.000 A 
ATOM      2  C   UNL     1       7.171   5.237  14.771  0.00  0.00    +0.000 A 
ATOM      3  N   UNL     1       7.433   5.706  16.029  0.00  0.00    +0.000 N 
ATOM      4  C   UNL     1       6.493   5.245  16.924  0.00  0.00    +0.000 A 
ATOM      5  C   UNL     1       6.379   5.468  18.303  0.00  0.00    +0.000 A 
ATOM      6  C   UNL     1       5.312   4.856  18.967  0.00  0.00    +0.000 A 
ATOM      7  C   UNL     1       4.410   4.061  18.272  0.00  0.00    +0.000 A 
ATOM      8  F   UNL     1       3.399   3.487  18.939  0.00  0.00    +0.000 F 
ATOM      9  C   UNL     1       4.526   3.845  16.899  0.00  0.00    +0.000 A 
ATOM     10  C   UNL     1       5.592   4.452  16.205  0.00  0.00    +0.000 A 
ATOM     11  H   UNL     1       8.216   6.302  16.256  0.00  0.00    +0.000 HD
ENDROOT
BRANCH   1  13
ATOM     12  N   UNL     1       6.135   3.438  12.888  0.00  0.00    +0.000 NA
ATOM     13  N   UNL     1       5.371   3.785  13.817  0.00  0.00    +0.000 NA
BRANCH  12  14
ATOM     14  C   UNL     1       5.503   2.753  11.875  0.00  0.00    +0.000 C 
ATOM     15  S   UNL     1       4.073   3.253  11.158  0.00  0.00    +0.000 S 
BRANCH  14  16
ATOM     16  N   UNL     1       6.056   1.579  11.448  0.00  0.00    +0.000 N 
ATOM     17  H   UNL     1       5.502   0.917  10.923  0.00  0.00    +0.000 HD
ATOM     18  H   UNL     1       7.038   1.401  11.610  0.00  0.00    +0.000 HD
ENDBRANCH  14  16
ENDBRANCH  12  14
ENDBRANCH   1  13
BRANCH   2  19
ATOM     19  O   UNL     1       7.978   5.557  13.767  0.00  0.00    +0.000 OA
ATOM     20  H   UNL     1       7.890   4.838  13.110  0.00  0.00    +0.000 HD
ENDBRANCH   2  19
TORSDOF 4
ENDMDL
MODEL 4
REMARK VINA RESULT:      -6.7      3.080      3.770
REMARK  Name = 
REMARK  4 active torsions:
REMARK  status: ('A' for Active; 'I' for Inactive)
REMARK    1  A    between atoms: N_1  and  C_2
REMARK    2  A    between atoms: C_2  and  N_4
REMARK    3  A    between atoms: N_5  and  C_6
REMARK    4  A    between atoms: C_7  and  O_8
REMARK                            x       y       z     vdW  Elec       q    Type
REMARK                         _______ _______ _______ _____ _____    ______ ____
ROOT
ATOM      1  C   UNL     1       5.648   4.287  17.056  0.00  0.00    +0.000 A 
ATOM      2  C   UNL     1       6.575   4.357  18.073  0.00  0.00    +0.000 A 
ATOM      3  N   UNL     1       5.881   4.443  19.248  0.00  0.00    +0.000 N 
ATOM      4  C   UNL     1       4.524   4.410  19.013  0.00  0.00    +0.000 A 
ATOM      5  C   UNL     1       3.453   4.465  19.915  0.00  0.00    +0.000 A 
ATOM      6  C   UNL     1       2.162   4.402  19.385  0.00  0.00    +0.000 A 
ATOM      7  C   UNL     1       1.966   4.290  18.015  0.00  0.00    +0.000 A 
ATOM      8  F   UNL     1       0.714   4.229  17.539  0.00  0.00    +0.000 F 
ATOM      9  C   UNL     1       3.035   4.239  17.120  0.00  0.00    +0.000 A 
ATOM     10  C   UNL     1       4.347   4.303  17.629  0.00  0.00    +0.000 A 
ATOM     11  H   UNL     1       6.317   4.514  20.155  0.00  0.00    +0.000 HD
ENDROOT
BRANCH   1  13
ATOM     12  N   UNL     1       6.844   4.887  15.282  0.00  0.00    +0.000 NA
ATOM     13  N   UNL     1       5.885   4.186  15.675  0.00  0.00    +0.000 NA
BRANCH  12  14
ATOM     14  C   UNL     1       7.091   4.787  13.932  0.00  0.00    +0.000 C 
ATOM     15  S   UNL     1       6.296   3.721  12.912  0.00  0.00    +0.000 S 
BRANCH  14  16
ATOM     16  N   UNL     1       8.065   5.581  13.394  0.00  0.00    +0.000 N 
ATOM     17  H   UNL     1       8.449   6.347  13.927  0.00  0.00    +0.000 HD
ATOM     18  H   UNL     1       8.441   5.360  12.481  0.00  0.00    +0.000 HD
ENDBRANCH  14  16
ENDBRANCH  12  14
ENDBRANCH   1  13
BRANCH   2  19
ATOM     19  O   UNL     1       7.903   4.355  18.090  0.00  0.00    +0.000 OA
ATOM     20  H   UNL     1       8.185   4.618  17.192  0.00  0.00    +0.000 HD
ENDBRANCH   2  19
TORSDOF 4
ENDMDL
MODEL 5
REMARK VINA RESULT:      -6.7      1.761      1.833
REMARK  Name = 
REMARK  4 active torsions:
REMARK  status: ('A' for Active; 'I' for Inactive)
REMARK    1  A    between atoms: N_1  and  C_2
REMARK    2  A    between atoms: C_2  and  N_4
REMARK    3  A    between atoms: N_5  and  C_6
REMARK    4  A    between atoms: C_7  and  O_8
REMARK                            x       y       z     vdW  Elec       q    Type
REMARK                         _______ _______ _______ _____ _____    ______ ____
ROOT
ATOM      1  C   UNL     1       3.837   3.232  18.055  0.00  0.00    +0.000 A 
ATOM      2  C   UNL     1       3.570   2.009  18.632  0.00  0.00    +0.000 A 
ATOM      3  N   UNL     1       2.792   2.242  19.733  0.00  0.00    +0.000 N 
ATOM      4  C   UNL     1       2.534   3.588  19.869  0.00  0.00    +0.000 A 
ATOM      5  C   UNL     1       1.784   4.268  20.838  0.00  0.00    +0.000 A 
ATOM      6  C   UNL     1       1.687   5.657  20.719  0.00  0.00    +0.000 A 
ATOM      7  C   UNL     1       2.315   6.322  19.674  0.00  0.00    +0.000 A 
ATOM      8  F   UNL     1       2.200   7.654  19.587  0.00  0.00    +0.000 F 
ATOM      9  C   UNL     1       3.064   5.642  18.713  0.00  0.00    +0.000 A 
ATOM     10  C   UNL     1       3.180   4.241  18.811  0.00  0.00    +0.000 A 
ATOM     11  H   UNL     1       2.455   1.516  20.348  0.00  0.00    +0.000 HD
ENDROOT
BRANCH   1  13
ATOM     12  N   UNL     1       5.683   4.070  17.146  0.00  0.00    +0.000 NA
ATOM     13  N   UNL     1       4.596   3.498  16.905  0.00  0.00    +0.000 NA
BRANCH  12  14
ATOM     14  C   UNL     1       6.440   4.325  16.025  0.00  0.00    +0.000 C 
ATOM     15  S   UNL     1       5.843   4.265  14.461  0.00  0.00    +0.000 S 
BRANCH  14  16
ATOM     16  N   UNL     1       7.765   4.614  16.194  0.00  0.00    +0.000 N 
ATOM     17  H   UNL     1       8.337   4.043  16.800  0.00  0.00    +0.000 HD
ATOM     18  H   UNL     1       8.183   5.366  15.663  0.00  0.00    +0.000 HD
ENDBRANCH  14  16
ENDBRANCH  12  14
ENDBRANCH   1  13
BRANCH   2  19
ATOM     19  O   UNL     1       3.913   0.766  18.319  0.00  0.00    +0.000 OA
ATOM     20  H   UNL     1       4.852   0.805  18.047  0.00  0.00    +0.000 HD
ENDBRANCH   2  19
TORSDOF 4
ENDMDL
MODEL 6
REMARK VINA RESULT:      -6.6      3.587      4.389
REMARK  Name = 
REMARK  4 active torsions:
REMARK  status: ('A' for Active; 'I' for Inactive)
REMARK    1  A    between atoms: N_1  and  C_2
REMARK    2  A    between atoms: C_2  and  N_4
REMARK    3  A    between atoms: N_5  and  C_6
REMARK    4  A    between atoms: C_7  and  O_8
REMARK                            x       y       z     vdW  Elec       q    Type
REMARK                         _______ _______ _______ _____ _____    ______ ____
ROOT
ATOM      1  C   UNL     1       5.558   4.136  16.273  0.00  0.00    +0.000 A 
ATOM      2  C   UNL     1       6.709   4.281  17.017  0.00  0.00    +0.000 A 
ATOM      3  N   UNL     1       6.357   4.178  18.334  0.00  0.00    +0.000 N 
ATOM      4  C   UNL     1       5.003   3.950  18.457  0.00  0.00    +0.000 A 
ATOM      5  C   UNL     1       4.221   3.777  19.607  0.00  0.00    +0.000 A 
ATOM      6  C   UNL     1       2.854   3.550  19.427  0.00  0.00    +0.000 A 
ATOM      7  C   UNL     1       2.309   3.502  18.150  0.00  0.00    +0.000 A 
ATOM      8  F   UNL     1       0.994   3.280  18.012  0.00  0.00    +0.000 F 
ATOM      9  C   UNL     1       3.090   3.679  17.009  0.00  0.00    +0.000 A 
ATOM     10  C   UNL     1       4.472   3.911  17.163  0.00  0.00    +0.000 A 
ATOM     11  H   UNL     1       7.010   4.254  19.099  0.00  0.00    +0.000 HD
ENDROOT
BRANCH   1  13
ATOM     12  N   UNL     1       6.462   3.837  14.266  0.00  0.00    +0.000 NA
ATOM     13  N   UNL     1       5.420   4.168  14.876  0.00  0.00    +0.000 NA
BRANCH  12  14
ATOM     14  C   UNL     1       6.333   3.854  12.896  0.00  0.00    +0.000 C 
ATOM     15  S   UNL     1       5.038   3.186  12.069  0.00  0.00    +0.000 S 
BRANCH  14  16
ATOM     16  N   UNL     1       7.337   4.420  12.161  0.00  0.00    +0.000 N 
ATOM     17  H   UNL     1       8.289   4.097  12.266  0.00  0.00    +0.000 HD
ATOM     18  H   UNL     1       7.114   5.123  11.469  0.00  0.00    +0.000 HD
ENDBRANCH  14  16
ENDBRANCH  12  14
ENDBRANCH   1  13
BRANCH   2  19
ATOM     19  O   UNL     1       7.980   4.484  16.689  0.00  0.00    +0.000 OA
ATOM     20  H   UNL     1       8.408   4.854  17.485  0.00  0.00    +0.000 HD
ENDBRANCH   2  19
TORSDOF 4
ENDMDL
MODEL 7
REMARK VINA RESULT:      -6.6      3.515      4.410
REMARK  Name = 
REMARK  4 active torsions:
REMARK  status: ('A' for Active; 'I' for Inactive)
REMARK    1  A    between atoms: N_1  and  C_2
REMARK    2  A    between atoms: C_2  and  N_4
REMARK    3  A    between atoms: N_5  and  C_6
REMARK    4  A    between atoms: C_7  and  O_8
REMARK                            x       y       z     vdW  Elec       q    Type
REMARK                         _______ _______ _______ _____ _____    ______ ____
ROOT
ATOM      1  C   UNL     1       6.675   5.362  16.837  0.00  0.00    +0.000 A 
ATOM      2  C   UNL     1       7.345   4.595  17.766  0.00  0.00    +0.000 A 
ATOM      3  N   UNL     1       6.577   4.565  18.896  0.00  0.00    +0.000 N 
ATOM      4  C   UNL     1       5.413   5.281  18.711  0.00  0.00    +0.000 A 
ATOM      5  C   UNL     1       4.347   5.508  19.592  0.00  0.00    +0.000 A 
ATOM      6  C   UNL     1       3.279   6.277  19.122  0.00  0.00    +0.000 A 
ATOM      7  C   UNL     1       3.290   6.787  17.831  0.00  0.00    +0.000 A 
ATOM      8  F   UNL     1       2.248   7.519  17.411  0.00  0.00    +0.000 F 
ATOM      9  C   UNL     1       4.355   6.562  16.959  0.00  0.00    +0.000 A 
ATOM     10  C   UNL     1       5.446   5.791  17.408  0.00  0.00    +0.000 A 
ATOM     11  H   UNL     1       6.835   4.077  19.740  0.00  0.00    +0.000 HD
ENDROOT
BRANCH   1  13
ATOM     12  N   UNL     1       7.292   4.671  14.818  0.00  0.00    +0.000 NA
ATOM     13  N   UNL     1       7.072   5.678  15.528  0.00  0.00    +0.000 NA
BRANCH  12  14
ATOM     14  C   UNL     1       7.671   4.970  13.529  0.00  0.00    +0.000 C 
ATOM     15  S   UNL     1       7.013   4.245  12.169  0.00  0.00    +0.000 S 
BRANCH  14  16
ATOM     16  N   UNL     1       8.666   5.888  13.346  0.00  0.00    +0.000 N 
ATOM     17  H   UNL     1       9.599   5.703  13.686  0.00  0.00    +0.000 HD
ATOM     18  H   UNL     1       8.478   6.729  12.817  0.00  0.00    +0.000 HD
ENDBRANCH  14  16
ENDBRANCH  12  14
ENDBRANCH   1  13
BRANCH   2  19
ATOM     19  O   UNL     1       8.503   3.947  17.739  0.00  0.00    +0.000 OA
ATOM     20  H   UNL     1       8.672   3.734  16.800  0.00  0.00    +0.000 HD
ENDBRANCH   2  19
TORSDOF 4
ENDMDL
MODEL 8
REMARK VINA RESULT:      -6.6      4.779      7.017
REMARK  Name = 
REMARK  4 active torsions:
REMARK  status: ('A' for Active; 'I' for Inactive)
REMARK    1  A    between atoms: N_1  and  C_2
REMARK    2  A    between atoms: C_2  and  N_4
REMARK    3  A    between atoms: N_5  and  C_6
REMARK    4  A    between atoms: C_7  and  O_8
REMARK                            x       y       z     vdW  Elec       q    Type
REMARK                         _______ _______ _______ _____ _____    ______ ____
ROOT
ATOM      1  C   UNL     1       6.085   4.485  15.826  0.00  0.00    +0.000 A 
ATOM      2  C   UNL     1       7.084   5.392  16.106  0.00  0.00    +0.000 A 
ATOM      3  N   UNL     1       7.764   5.617  14.941  0.00  0.00    +0.000 N 
ATOM      4  C   UNL     1       7.213   4.889  13.909  0.00  0.00    +0.000 A 
ATOM      5  C   UNL     1       7.582   4.821  12.559  0.00  0.00    +0.000 A 
ATOM      6  C   UNL     1       6.826   3.992  11.727  0.00  0.00    +0.000 A 
ATOM      7  C   UNL     1       5.752   3.271  12.235  0.00  0.00    +0.000 A 
ATOM      8  F   UNL     1       5.046   2.487  11.409  0.00  0.00    +0.000 F 
ATOM      9  C   UNL     1       5.391   3.339  13.580  0.00  0.00    +0.000 A 
ATOM     10  C   UNL     1       6.139   4.167  14.441  0.00  0.00    +0.000 A 
ATOM     11  H   UNL     1       8.555   6.239  14.862  0.00  0.00    +0.000 HD
ENDROOT
BRANCH   1  13
ATOM     12  N   UNL     1       5.430   4.094  17.913  0.00  0.00    +0.000 NA
ATOM     13  N   UNL     1       5.130   3.951  16.706  0.00  0.00    +0.000 NA
BRANCH  12  14
ATOM     14  C   UNL     1       4.494   3.583  18.783  0.00  0.00    +0.000 C 
ATOM     15  S   UNL     1       2.921   4.148  18.902  0.00  0.00    +0.000 S 
BRANCH  14  16
ATOM     16  N   UNL     1       4.878   2.578  19.626  0.00  0.00    +0.000 N 
ATOM     17  H   UNL     1       5.661   1.986  19.387  0.00  0.00    +0.000 HD
ATOM     18  H   UNL     1       4.412   2.467  20.516  0.00  0.00    +0.000 HD
ENDBRANCH  14  16
ENDBRANCH  12  14
ENDBRANCH   1  13
BRANCH   2  19
ATOM     19  O   UNL     1       7.453   6.019  17.216  0.00  0.00    +0.000 OA
ATOM     20  H   UNL     1       7.094   6.925  17.146  0.00  0.00    +0.000 HD
ENDBRANCH   2  19
TORSDOF 4
ENDMDL
MODEL 9
REMARK VINA RESULT:      -6.5      3.106      3.619
REMARK  Name = 
REMARK  4 active torsions:
REMARK  status: ('A' for Active; 'I' for Inactive)
REMARK    1  A    between atoms: N_1  and  C_2
REMARK    2  A    between atoms: C_2  and  N_4
REMARK    3  A    between atoms: N_5  and  C_6
REMARK    4  A    between atoms: C_7  and  O_8
REMARK                            x       y       z     vdW  Elec       q    Type
REMARK                         _______ _______ _______ _____ _____    ______ ____
ROOT
ATOM      1  C   UNL     1       4.805   5.558  17.617  0.00  0.00    +0.000 A 
ATOM      2  C   UNL     1       4.869   4.584  18.589  0.00  0.00    +0.000 A 
ATOM      3  N   UNL     1       3.973   4.926  19.564  0.00  0.00    +0.000 N 
ATOM      4  C   UNL     1       3.317   6.092  19.232  0.00  0.00    +0.000 A 
ATOM      5  C   UNL     1       2.324   6.795  19.929  0.00  0.00    +0.000 A 
ATOM      6  C   UNL     1       1.828   7.960  19.338  0.00  0.00    +0.000 A 
ATOM      7  C   UNL     1       2.311   8.390  18.109  0.00  0.00    +0.000 A 
ATOM      8  F   UNL     1       1.812   9.511  17.569  0.00  0.00    +0.000 F 
ATOM      9  C   UNL     1       3.301   7.688  17.421  0.00  0.00    +0.000 A 
ATOM     10  C   UNL     1       3.820   6.511  17.995  0.00  0.00    +0.000 A 
ATOM     11  H   UNL     1       3.819   4.386  20.402  0.00  0.00    +0.000 HD
ENDROOT
BRANCH   1  13
ATOM     12  N   UNL     1       5.843   4.519  15.949  0.00  0.00    +0.000 NA
ATOM     13  N   UNL     1       5.539   5.638  16.422  0.00  0.00    +0.000 NA
BRANCH  12  14
ATOM     14  C   UNL     1       6.553   4.586  14.772  0.00  0.00    +0.000 C 
ATOM     15  S   UNL     1       6.136   3.753  13.379  0.00  0.00    +0.000 S 
BRANCH  14  16
ATOM     16  N   UNL     1       7.684   5.352  14.745  0.00  0.00    +0.000 N 
ATOM     17  H   UNL     1       8.545   4.976  14.373  0.00  0.00    +0.000 HD
ATOM     18  H   UNL     1       7.641   6.317  15.044  0.00  0.00    +0.000 HD
ENDBRANCH  14  16
ENDBRANCH  12  14
ENDBRANCH   1  13
BRANCH   2  19
ATOM     19  O   UNL     1       5.590   3.477  18.717  0.00  0.00    +0.000 OA
ATOM     20  H   UNL     1       6.429   3.646  18.243  0.00  0.00    +0.000 HD
ENDBRANCH   2  19
TORSDOF 4
ENDMDL
