MODEL 1
REMARK VINA RESULT:      -7.8      0.000      0.000
REMARK  Name = 
REMARK  7 active torsions:
REMARK  status: ('A' for Active; 'I' for Inactive)
REMARK    1  A    between atoms: C_1  and  C_2
REMARK    2  A    between atoms: C_2  and  C_3
REMARK    3  A    between atoms: C_2  and  N_4
REMARK    4  A    between atoms: C_6  and  C_7
REMARK    5  A    between atoms: C_10  and  N_11
REMARK    6  A    between atoms: C_16  and  C_17
REMARK    7  A    between atoms: N_22  and  C_23
REMARK                            x       y       z     vdW  Elec       q    Type
REMARK                         _______ _______ _______ _____ _____    ______ ____
ROOT
ATOM      1  N   UNL     1       2.846   5.536  19.003  0.00  0.00    +0.000 N 
ATOM      2  N   UNL     1       1.975   6.252  19.749  0.00  0.00    +0.000 NA
ATOM      3  C   UNL     1       2.141   7.520  19.367  0.00  0.00    +0.000 A 
ATOM      4  C   UNL     1       3.190   7.618  18.430  0.00  0.00    +0.000 A 
ATOM      5  C   UNL     1       3.639   6.336  18.203  0.00  0.00    +0.000 A 
ENDROOT
BRANCH   3   6
ATOM      6  C   UNL     1       1.344   8.609  19.901  0.00  0.00    +0.000 A 
ATOM      7  C   UNL     1       0.904   9.653  19.097  0.00  0.00    +0.000 A 
ATOM      8  N   UNL     1       0.108  10.666  19.530  0.00  0.00    +0.000 NA
ATOM      9  C   UNL     1      -0.260  10.653  20.827  0.00  0.00    +0.000 A 
ATOM     10  C   UNL     1       0.154   9.654  21.714  0.00  0.00    +0.000 A 
ATOM     11 CL   UNL     1      -0.299   9.661  23.379  0.00  0.00    +0.000 Cl
ATOM     12  C   UNL     1       0.965   8.626  21.244  0.00  0.00    +0.000 A 
BRANCH   9  13
ATOM     13  N   UNL     1      -1.137  11.669  21.210  0.00  0.00    +0.000 N 
ATOM     14  H   UNL     1      -1.245  12.301  20.422  0.00  0.00    +0.000 HD
ATOM     15  H   UNL     1      -0.832  12.131  22.059  0.00  0.00    +0.000 HD
ENDBRANCH   9  13
ENDBRANCH   3   6
BRANCH   5  16
ATOM     16  C   UNL     1       4.842   5.933  17.321  0.00  0.00    +0.000 C 
ATOM     17  C   UNL     1       6.255   6.507  17.705  0.00  0.00    +0.000 C 
ATOM     18  C   UNL     1       6.423   5.346  18.705  0.00  0.00    +0.000 C 
ATOM     19  C   UNL     1       5.544   4.560  17.697  0.00  0.00    +0.000 C 
ATOM     20  C   UNL     1       6.497   3.988  16.634  0.00  0.00    +0.000 C 
ATOM     21  N   UNL     1       7.184   5.044  15.853  0.00  0.00    +0.000 NA
ATOM     22  C   UNL     1       7.283   6.338  16.570  0.00  0.00    +0.000 C 
BRANCH  21  23
ATOM     23  C   UNL     1       6.555   5.138  14.522  0.00  0.00    +0.000 C 
ATOM     24  C   UNL     1       7.514   4.925  13.338  0.00  0.00    +0.000 C 
ATOM     25  O   UNL     1       6.592   3.947  12.764  0.00  0.00    +0.000 OA
ATOM     26  C   UNL     1       6.058   3.732  14.107  0.00  0.00    +0.000 C 
ENDBRANCH  21  23
ENDBRANCH   5  16
BRANCH   1  28
ATOM     27  C   UNL     1       2.298   3.676  20.529  0.00  0.00    +0.000 C 
ATOM     28  C   UNL     1       2.831   4.080  19.155  0.00  0.00    +0.000 C 
ATOM     29  C   UNL     1       1.996   3.387  18.061  0.00  0.00    +0.000 C 
ENDBRANCH   1  28
TORSDOF 5
ENDMDL
MODEL 2
REMARK VINA RESULT:      -7.5      1.159      1.357
REMARK  Name = 
REMARK  7 active torsions:
REMARK  status: ('A' for Active; 'I' for Inactive)
REMARK    1  A    between atoms: C_1  and  C_2
REMARK    2  A    between atoms: C_2  and  C_3
REMARK    3  A    between atoms: C_2  and  N_4
REMARK    4  A    between atoms: C_6  and  C_7
REMARK    5  A    between atoms: C_10  and  N_11
REMARK    6  A    between atoms: C_16  and  C_17
REMARK    7  A    between atoms: N_22  and  C_23
REMARK                            x       y       z     vdW  Elec       q    Type
REMARK                         _______ _______ _______ _____ _____    ______ ____
ROOT
ATOM      1  N   UNL     1       2.737   5.485  19.266  0.00  0.00    +0.000 N 
ATOM      2  N   UNL     1       1.891   6.174  20.066  0.00  0.00    +0.000 NA
ATOM      3  C   UNL     1       2.104   7.460  19.781  0.00  0.00    +0.000 A 
ATOM      4  C   UNL     1       3.158   7.590  18.854  0.00  0.00    +0.000 A 
ATOM      5  C   UNL     1       3.560   6.314  18.529  0.00  0.00    +0.000 A 
ENDROOT
BRANCH   3   6
ATOM      6  C   UNL     1       1.347   8.534  20.398  0.00  0.00    +0.000 A 
ATOM      7  C   UNL     1       1.308   8.700  21.776  0.00  0.00    +0.000 A 
ATOM      8  N   UNL     1       0.667   9.721  22.404  0.00  0.00    +0.000 NA
ATOM      9  C   UNL     1       0.018  10.614  21.629  0.00  0.00    +0.000 A 
ATOM     10  C   UNL     1      -0.014  10.513  20.235  0.00  0.00    +0.000 A 
ATOM     11 CL   UNL     1      -0.870  11.645  19.252  0.00  0.00    +0.000 Cl
ATOM     12  C   UNL     1       0.655   9.461  19.617  0.00  0.00    +0.000 A 
BRANCH   9  13
ATOM     13  N   UNL     1      -0.563  11.685  22.310  0.00  0.00    +0.000 N 
ATOM     14  H   UNL     1      -0.366  11.569  23.299  0.00  0.00    +0.000 HD
ATOM     15  H   UNL     1      -1.551  11.771  22.103  0.00  0.00    +0.000 HD
ENDBRANCH   9  13
ENDBRANCH   3   6
BRANCH   5  16
ATOM     16  C   UNL     1       4.749   5.935  17.618  0.00  0.00    +0.000 C 
ATOM     17  C   UNL     1       6.151   6.566  17.948  0.00  0.00    +0.000 C 
ATOM     18  C   UNL     1       6.391   5.433  18.964  0.00  0.00    +0.000 C 
ATOM     19  C   UNL     1       5.511   4.596  18.000  0.00  0.00    +0.000 C 
ATOM     20  C   UNL     1       6.451   4.035  16.919  0.00  0.00    +0.000 C 
ATOM     21  N   UNL     1       7.076   5.098  16.097  0.00  0.00    +0.000 NA
ATOM     22  C   UNL     1       7.150   6.410  16.784  0.00  0.00    +0.000 C 
BRANCH  21  23
ATOM     23  C   UNL     1       6.404   5.142  14.784  0.00  0.00    +0.000 C 
ATOM     24  C   UNL     1       7.336   4.952  13.575  0.00  0.00    +0.000 C 
ATOM     25  O   UNL     1       6.442   3.925  13.044  0.00  0.00    +0.000 OA
ATOM     26  C   UNL     1       5.958   3.709  14.406  0.00  0.00    +0.000 C 
ENDBRANCH  21  23
ENDBRANCH   5  16
BRANCH   1  28
ATOM     27  C   UNL     1       2.128   3.535  20.651  0.00  0.00    +0.000 C 
ATOM     28  C   UNL     1       2.667   4.023  19.307  0.00  0.00    +0.000 C 
ATOM     29  C   UNL     1       1.799   3.447  18.171  0.00  0.00    +0.000 C 
ENDBRANCH   1  28
TORSDOF 5
ENDMDL
MODEL 3
REMARK VINA RESULT:      -7.3      1.530      1.750
REMARK  Name = 
REMARK  7 active torsions:
REMARK  status: ('A' for Active; 'I' for Inactive)
REMARK    1  A    between atoms: C_1  and  C_2
REMARK    2  A    between atoms: C_2  and  C_3
REMARK    3  A    between atoms: C_2  and  N_4
REMARK    4  A    between atoms: C_6  and  C_7
REMARK    5  A    between atoms: C_10  and  N_11
REMARK    6  A    between atoms: C_16  and  C_17
REMARK    7  A    between atoms: N_22  and  C_23
REMARK                            x       y       z     vdW  Elec       q    Type
REMARK                         _______ _______ _______ _____ _____    ______ ____
ROOT
ATOM      1  N   UNL     1       2.591   6.172  18.671  0.00  0.00    +0.000 N 
ATOM      2  N   UNL     1       1.755   7.040  19.285  0.00  0.00    +0.000 NA
ATOM      3  C   UNL     1       2.058   8.238  18.783  0.00  0.00    +0.000 A 
ATOM      4  C   UNL     1       3.158   8.140  17.907  0.00  0.00    +0.000 A 
ATOM      5  C   UNL     1       3.496   6.807  17.842  0.00  0.00    +0.000 A 
ENDROOT
BRANCH   3   6
ATOM      6  C   UNL     1       1.341   9.445  19.152  0.00  0.00    +0.000 A 
ATOM      7  C   UNL     1       0.380   9.444  20.155  0.00  0.00    +0.000 A 
ATOM      8  N   UNL     1      -0.278  10.554  20.582  0.00  0.00    +0.000 NA
ATOM      9  C   UNL     1       0.019  11.722  19.977  0.00  0.00    +0.000 A 
ATOM     10  C   UNL     1       0.958  11.813  18.944  0.00  0.00    +0.000 A 
ATOM     11 CL   UNL     1       1.313  13.306  18.156  0.00  0.00    +0.000 Cl
ATOM     12  C   UNL     1       1.621  10.662  18.529  0.00  0.00    +0.000 A 
BRANCH   9  13
ATOM     13  N   UNL     1      -0.624  12.846  20.497  0.00  0.00    +0.000 N 
ATOM     14  H   UNL     1      -0.245  13.665  20.031  0.00  0.00    +0.000 HD
ATOM     15  H   UNL     1      -0.552  12.887  21.507  0.00  0.00    +0.000 HD
ENDBRANCH   9  13
ENDBRANCH   3   6
BRANCH   5  16
ATOM     16  C   UNL     1       4.698   6.206  17.081  0.00  0.00    +0.000 C 
ATOM     17  C   UNL     1       6.140   6.543  17.611  0.00  0.00    +0.000 C 
ATOM     18  C   UNL     1       6.014   5.377  18.611  0.00  0.00    +0.000 C 
ATOM     19  C   UNL     1       5.124   4.739  17.512  0.00  0.00    +0.000 C 
ATOM     20  C   UNL     1       6.072   4.010  16.545  0.00  0.00    +0.000 C 
ATOM     21  N   UNL     1       6.998   4.934  15.848  0.00  0.00    +0.000 NA
ATOM     22  C   UNL     1       7.236   6.199  16.583  0.00  0.00    +0.000 C 
BRANCH  21  23
ATOM     23  C   UNL     1       6.530   5.120  14.461  0.00  0.00    +0.000 C 
ATOM     24  C   UNL     1       7.620   4.968  13.386  0.00  0.00    +0.000 C 
ATOM     25  O   UNL     1       6.765   4.042  12.646  0.00  0.00    +0.000 OA
ATOM     26  C   UNL     1       6.075   3.751  13.902  0.00  0.00    +0.000 C 
ENDBRANCH  21  23
ENDBRANCH   5  16
BRANCH   1  28
ATOM     27  C   UNL     1       1.868   4.544  20.379  0.00  0.00    +0.000 C 
ATOM     28  C   UNL     1       2.431   4.748  18.972  0.00  0.00    +0.000 C 
ATOM     29  C   UNL     1       1.524   4.033  17.953  0.00  0.00    +0.000 C 
ENDBRANCH   1  28
TORSDOF 5
ENDMDL
MODEL 4
REMARK VINA RESULT:      -7.2      1.578      1.840
REMARK  Name = 
REMARK  7 active torsions:
REMARK  status: ('A' for Active; 'I' for Inactive)
REMARK    1  A    between atoms: C_1  and  C_2
REMARK    2  A    between atoms: C_2  and  C_3
REMARK    3  A    between atoms: C_2  and  N_4
REMARK    4  A    between atoms: C_6  and  C_7
REMARK    5  A    between atoms: C_10  and  N_11
REMARK    6  A    between atoms: C_16  and  C_17
REMARK    7  A    between atoms: N_22  and  C_23
REMARK                            x       y       z     vdW  Elec       q    Type
REMARK                         _______ _______ _______ _____ _____    ______ ____
ROOT
ATOM      1  N   UNL     1       2.212   5.277  19.993  0.00  0.00    +0.000 N 
ATOM      2  N   UNL     1       1.464   6.126  20.734  0.00  0.00    +0.000 NA
ATOM      3  C   UNL     1       1.732   7.342  20.256  0.00  0.00    +0.000 A 
ATOM      4  C   UNL     1       2.728   7.271  19.260  0.00  0.00    +0.000 A 
ATOM      5  C   UNL     1       3.032   5.937  19.098  0.00  0.00    +0.000 A 
ENDROOT
BRANCH   3   6
ATOM      6  C   UNL     1       1.083   8.540  20.756  0.00  0.00    +0.000 A 
ATOM      7  C   UNL     1       1.119   8.881  22.102  0.00  0.00    +0.000 A 
ATOM      8  N   UNL     1       0.581  10.019  22.616  0.00  0.00    +0.000 NA
ATOM      9  C   UNL     1      -0.036  10.855  21.756  0.00  0.00    +0.000 A 
ATOM     10  C   UNL     1      -0.138  10.582  20.388  0.00  0.00    +0.000 A 
ATOM     11 CL   UNL     1      -0.953  11.644  19.299  0.00  0.00    +0.000 Cl
ATOM     12  C   UNL     1       0.426   9.413  19.887  0.00  0.00    +0.000 A 
BRANCH   9  13
ATOM     13  N   UNL     1      -0.507  12.044  22.313  0.00  0.00    +0.000 N 
ATOM     14  H   UNL     1      -0.572  11.914  23.319  0.00  0.00    +0.000 HD
ATOM     15  H   UNL     1      -1.378  12.340  21.888  0.00  0.00    +0.000 HD
ENDBRANCH   9  13
ENDBRANCH   3   6
BRANCH   5  16
ATOM     16  C   UNL     1       4.132   5.356  18.183  0.00  0.00    +0.000 C 
ATOM     17  C   UNL     1       5.517   5.003  18.840  0.00  0.00    +0.000 C 
ATOM     18  C   UNL     1       4.941   3.633  19.249  0.00  0.00    +0.000 C 
ATOM     19  C   UNL     1       4.088   3.785  17.963  0.00  0.00    +0.000 C 
ATOM     20  C   UNL     1       4.942   3.252  16.801  0.00  0.00    +0.000 C 
ATOM     21  N   UNL     1       6.171   4.050  16.582  0.00  0.00    +0.000 NA
ATOM     22  C   UNL     1       6.623   4.783  17.789  0.00  0.00    +0.000 C 
BRANCH  21  23
ATOM     23  C   UNL     1       5.980   4.904  15.394  0.00  0.00    +0.000 C 
ATOM     24  C   UNL     1       7.247   5.131  14.551  0.00  0.00    +0.000 C 
ATOM     25  O   UNL     1       6.514   4.754  13.344  0.00  0.00    +0.000 OA
ATOM     26  C   UNL     1       5.591   4.006  14.194  0.00  0.00    +0.000 C 
ENDBRANCH  21  23
ENDBRANCH   5  16
BRANCH   1  28
ATOM     27  C   UNL     1       2.205   3.529  21.735  0.00  0.00    +0.000 C 
ATOM     28  C   UNL     1       2.060   3.843  20.246  0.00  0.00    +0.000 C 
ATOM     29  C   UNL     1       0.708   3.300  19.742  0.00  0.00    +0.000 C 
ENDBRANCH   1  28
TORSDOF 5
ENDMDL
MODEL 5
REMARK VINA RESULT:      -7.2      1.859      1.975
REMARK  Name = 
REMARK  7 active torsions:
REMARK  status: ('A' for Active; 'I' for Inactive)
REMARK    1  A    between atoms: C_1  and  C_2
REMARK    2  A    between atoms: C_2  and  C_3
REMARK    3  A    between atoms: C_2  and  N_4
REMARK    4  A    between atoms: C_6  and  C_7
REMARK    5  A    between atoms: C_10  and  N_11
REMARK    6  A    between atoms: C_16  and  C_17
REMARK    7  A    between atoms: N_22  and  C_23
REMARK                            x       y       z     vdW  Elec       q    Type
REMARK                         _______ _______ _______ _____ _____    ______ ____
ROOT
ATOM      1  N   UNL     1       2.514   6.695  18.656  0.00  0.00    +0.000 N 
ATOM      2  N   UNL     1       1.677   7.657  19.108  0.00  0.00    +0.000 NA
ATOM      3  C   UNL     1       1.926   8.726  18.349  0.00  0.00    +0.000 A 
ATOM      4  C   UNL     1       2.993   8.464  17.465  0.00  0.00    +0.000 A 
ATOM      5  C   UNL     1       3.366   7.154  17.671  0.00  0.00    +0.000 A 
ENDROOT
BRANCH   3   6
ATOM      6  C   UNL     1       1.190   9.970  18.484  0.00  0.00    +0.000 A 
ATOM      7  C   UNL     1       1.841  11.191  18.611  0.00  0.00    +0.000 A 
ATOM      8  N   UNL     1       1.205  12.390  18.679  0.00  0.00    +0.000 NA
ATOM      9  C   UNL     1      -0.143  12.380  18.636  0.00  0.00    +0.000 A 
ATOM     10  C   UNL     1      -0.880  11.197  18.531  0.00  0.00    +0.000 A 
ATOM     11 CL   UNL     1      -2.606  11.191  18.503  0.00  0.00    +0.000 Cl
ATOM     12  C   UNL     1      -0.205   9.983  18.457  0.00  0.00    +0.000 A 
BRANCH   9  13
ATOM     13  N   UNL     1      -0.750  13.636  18.634  0.00  0.00    +0.000 N 
ATOM     14  H   UNL     1      -1.610  13.567  18.098  0.00  0.00    +0.000 HD
ATOM     15  H   UNL     1      -0.123  14.358  18.297  0.00  0.00    +0.000 HD
ENDBRANCH   9  13
ENDBRANCH   3   6
BRANCH   5  16
ATOM     16  C   UNL     1       4.554   6.428  17.002  0.00  0.00    +0.000 C 
ATOM     17  C   UNL     1       5.987   6.662  17.606  0.00  0.00    +0.000 C 
ATOM     18  C   UNL     1       5.705   5.548  18.634  0.00  0.00    +0.000 C 
ATOM     19  C   UNL     1       4.828   4.947  17.505  0.00  0.00    +0.000 C 
ATOM     20  C   UNL     1       5.763   4.107  16.619  0.00  0.00    +0.000 C 
ATOM     21  N   UNL     1       6.802   4.924  15.949  0.00  0.00    +0.000 NA
ATOM     22  C   UNL     1       7.106   6.191  16.657  0.00  0.00    +0.000 C 
BRANCH  21  23
ATOM     23  C   UNL     1       6.432   5.098  14.532  0.00  0.00    +0.000 C 
ATOM     24  C   UNL     1       7.590   4.921  13.535  0.00  0.00    +0.000 C 
ATOM     25  O   UNL     1       6.777   3.994  12.750  0.00  0.00    +0.000 OA
ATOM     26  C   UNL     1       6.001   3.726  13.959  0.00  0.00    +0.000 C 
ENDBRANCH  21  23
ENDBRANCH   5  16
BRANCH   1  28
ATOM     27  C   UNL     1       1.808   5.448  20.665  0.00  0.00    +0.000 C 
ATOM     28  C   UNL     1       2.407   5.366  19.261  0.00  0.00    +0.000 C 
ATOM     29  C   UNL     1       1.565   4.399  18.405  0.00  0.00    +0.000 C 
ENDBRANCH   1  28
TORSDOF 5
ENDMDL
MODEL 6
REMARK VINA RESULT:      -6.8      2.562      3.194
REMARK  Name = 
REMARK  7 active torsions:
REMARK  status: ('A' for Active; 'I' for Inactive)
REMARK    1  A    between atoms: C_1  and  C_2
REMARK    2  A    between atoms: C_2  and  C_3
REMARK    3  A    between atoms: C_2  and  N_4
REMARK    4  A    between atoms: C_6  and  C_7
REMARK    5  A    between atoms: C_10  and  N_11
REMARK    6  A    between atoms: C_16  and  C_17
REMARK    7  A    between atoms: N_22  and  C_23
REMARK                            x       y       z     vdW  Elec       q    Type
REMARK                         _______ _______ _______ _____ _____    ______ ____
ROOT
ATOM      1  N   UNL     1       2.395   6.370  18.744  0.00  0.00    +0.000 N 
ATOM      2  N   UNL     1       1.444   7.290  19.021  0.00  0.00    +0.000 NA
ATOM      3  C   UNL     1       1.855   8.413  18.430  0.00  0.00    +0.000 A 
ATOM      4  C   UNL     1       3.125   8.224  17.846  0.00  0.00    +0.000 A 
ATOM      5  C   UNL     1       3.465   6.906  18.055  0.00  0.00    +0.000 A 
ENDROOT
BRANCH   3   6
ATOM      6  C   UNL     1       1.077   9.638  18.448  0.00  0.00    +0.000 A 
ATOM      7  C   UNL     1       1.650  10.860  18.775  0.00  0.00    +0.000 A 
ATOM      8  N   UNL     1       0.985  12.045  18.750  0.00  0.00    +0.000 NA
ATOM      9  C   UNL     1      -0.317  12.018  18.398  0.00  0.00    +0.000 A 
ATOM     10  C   UNL     1      -0.980  10.830  18.074  0.00  0.00    +0.000 A 
ATOM     11 CL   UNL     1      -2.653  10.801  17.650  0.00  0.00    +0.000 Cl
ATOM     12  C   UNL     1      -0.275   9.631  18.102  0.00  0.00    +0.000 A 
BRANCH   9  13
ATOM     13  N   UNL     1      -0.940  13.264  18.313  0.00  0.00    +0.000 N 
ATOM     14  H   UNL     1      -1.558  13.358  19.113  0.00  0.00    +0.000 HD
ATOM     15  H   UNL     1      -1.409  13.390  17.424  0.00  0.00    +0.000 HD
ENDBRANCH   9  13
ENDBRANCH   3   6
BRANCH   5  16
ATOM     16  C   UNL     1       4.807   6.239  17.679  0.00  0.00    +0.000 C 
ATOM     17  C   UNL     1       4.832   5.316  16.406  0.00  0.00    +0.000 C 
ATOM     18  C   UNL     1       5.053   6.569  15.536  0.00  0.00    +0.000 C 
ATOM     19  C   UNL     1       5.787   7.115  16.789  0.00  0.00    +0.000 C 
ATOM     20  C   UNL     1       7.238   6.611  16.705  0.00  0.00    +0.000 C 
ATOM     21  N   UNL     1       7.335   5.134  16.776  0.00  0.00    +0.000 NA
ATOM     22  C   UNL     1       6.099   4.439  16.345  0.00  0.00    +0.000 C 
BRANCH  21  23
ATOM     23  C   UNL     1       7.805   4.751  18.121  0.00  0.00    +0.000 C 
ATOM     24  C   UNL     1       8.043   5.929  19.082  0.00  0.00    +0.000 C 
ATOM     25  O   UNL     1       7.240   5.261  20.104  0.00  0.00    +0.000 OA
ATOM     26  C   UNL     1       6.574   4.524  19.032  0.00  0.00    +0.000 C 
ENDBRANCH  21  23
ENDBRANCH   5  16
BRANCH   1  28
ATOM     27  C   UNL     1       1.333   4.984  20.488  0.00  0.00    +0.000 C 
ATOM     28  C   UNL     1       2.168   4.999  19.208  0.00  0.00    +0.000 C 
ATOM     29  C   UNL     1       1.478   4.128  18.141  0.00  0.00    +0.000 C 
ENDBRANCH   1  28
TORSDOF 5
ENDMDL
MODEL 7
REMARK VINA RESULT:      -6.7      2.020      2.523
REMARK  Name = 
REMARK  7 active torsions:
REMARK  status: ('A' for Active; 'I' for Inactive)
REMARK    1  A    between atoms: C_1  and  C_2
REMARK    2  A    between atoms: C_2  and  C_3
REMARK    3  A    between atoms: C_2  and  N_4
REMARK    4  A    between atoms: C_6  and  C_7
REMARK    5  A    between atoms: C_10  and  N_11
REMARK    6  A    between atoms: C_16  and  C_17
REMARK    7  A    between atoms: N_22  and  C_23
REMARK                            x       y       z     vdW  Elec       q    Type
REMARK                         _______ _______ _______ _____ _____    ______ ____
ROOT
ATOM      1  N   UNL     1       2.129   5.350  20.187  0.00  0.00    +0.000 N 
ATOM      2  N   UNL     1       1.340   6.152  20.937  0.00  0.00    +0.000 NA
ATOM      3  C   UNL     1       1.605   7.393  20.526  0.00  0.00    +0.000 A 
ATOM      4  C   UNL     1       2.638   7.382  19.566  0.00  0.00    +0.000 A 
ATOM      5  C   UNL     1       2.970   6.063  19.355  0.00  0.00    +0.000 A 
ENDROOT
BRANCH   3   6
ATOM      6  C   UNL     1       0.918   8.557  21.055  0.00  0.00    +0.000 A 
ATOM      7  C   UNL     1       1.020   8.918  22.392  0.00  0.00    +0.000 A 
ATOM      8  N   UNL     1       0.449  10.028  22.929  0.00  0.00    +0.000 NA
ATOM      9  C   UNL     1      -0.273  10.814  22.103  0.00  0.00    +0.000 A 
ATOM     10  C   UNL     1      -0.446  10.516  20.748  0.00  0.00    +0.000 A 
ATOM     11 CL   UNL     1      -1.394  11.512  19.704  0.00  0.00    +0.000 Cl
ATOM     12  C   UNL     1       0.154   9.376  20.223  0.00  0.00    +0.000 A 
BRANCH   9  13
ATOM     13  N   UNL     1      -0.778  11.980  22.678  0.00  0.00    +0.000 N 
ATOM     14  H   UNL     1      -0.114  12.728  22.501  0.00  0.00    +0.000 HD
ATOM     15  H   UNL     1      -0.990  11.854  23.661  0.00  0.00    +0.000 HD
ENDBRANCH   9  13
ENDBRANCH   3   6
BRANCH   5  16
ATOM     16  C   UNL     1       4.113   5.541  18.456  0.00  0.00    +0.000 C 
ATOM     17  C   UNL     1       5.076   4.453  19.057  0.00  0.00    +0.000 C 
ATOM     18  C   UNL     1       4.066   3.367  18.638  0.00  0.00    +0.000 C 
ATOM     19  C   UNL     1       3.734   4.346  17.482  0.00  0.00    +0.000 C 
ATOM     20  C   UNL     1       4.744   4.059  16.358  0.00  0.00    +0.000 C 
ATOM     21  N   UNL     1       6.141   4.346  16.758  0.00  0.00    +0.000 NA
ATOM     22  C   UNL     1       6.361   4.285  18.223  0.00  0.00    +0.000 C 
BRANCH  21  23
ATOM     23  C   UNL     1       6.565   5.615  16.136  0.00  0.00    +0.000 C 
ATOM     24  C   UNL     1       5.561   6.772  16.282  0.00  0.00    +0.000 C 
ATOM     25  O   UNL     1       6.630   7.641  16.769  0.00  0.00    +0.000 OA
ATOM     26  C   UNL     1       7.354   6.440  17.180  0.00  0.00    +0.000 C 
ENDBRANCH  21  23
ENDBRANCH   5  16
BRANCH   1  28
ATOM     27  C   UNL     1       2.167   3.514  21.836  0.00  0.00    +0.000 C 
ATOM     28  C   UNL     1       1.992   3.903  20.368  0.00  0.00    +0.000 C 
ATOM     29  C   UNL     1       0.635   3.376  19.861  0.00  0.00    +0.000 C 
ENDBRANCH   1  28
TORSDOF 5
ENDMDL
MODEL 8
REMARK VINA RESULT:      -6.7      2.571      3.194
REMARK  Name = 
REMARK  7 active torsions:
REMARK  status: ('A' for Active; 'I' for Inactive)
REMARK    1  A    between atoms: C_1  and  C_2
REMARK    2  A    between atoms: C_2  and  C_3
REMARK    3  A    between atoms: C_2  and  N_4
REMARK    4  A    between atoms: C_6  and  C_7
REMARK    5  A    between atoms: C_10  and  N_11
REMARK    6  A    between atoms: C_16  and  C_17
REMARK    7  A    between atoms: N_22  and  C_23
REMARK                            x       y       z     vdW  Elec       q    Type
REMARK                         _______ _______ _______ _____ _____    ______ ____
ROOT
ATOM      1  N   UNL     1       2.416   6.430  18.725  0.00  0.00    +0.000 N 
ATOM      2  N   UNL     1       1.482   7.373  18.982  0.00  0.00    +0.000 NA
ATOM      3  C   UNL     1       1.905   8.472  18.355  0.00  0.00    +0.000 A 
ATOM      4  C   UNL     1       3.167   8.246  17.766  0.00  0.00    +0.000 A 
ATOM      5  C   UNL     1       3.488   6.929  18.011  0.00  0.00    +0.000 A 
ENDROOT
BRANCH   3   6
ATOM      6  C   UNL     1       1.146   9.709  18.343  0.00  0.00    +0.000 A 
ATOM      7  C   UNL     1      -0.225   9.720  18.122  0.00  0.00    +0.000 A 
ATOM      8  N   UNL     1      -0.994  10.840  18.159  0.00  0.00    +0.000 NA
ATOM      9  C   UNL     1      -0.373  12.010  18.413  0.00  0.00    +0.000 A 
ATOM     10  C   UNL     1       1.006  12.095  18.626  0.00  0.00    +0.000 A 
ATOM     11 CL   UNL     1       1.797  13.600  18.923  0.00  0.00    +0.000 Cl
ATOM     12  C   UNL     1       1.770  10.933  18.587  0.00  0.00    +0.000 A 
BRANCH   9  13
ATOM     13  N   UNL     1      -1.211  13.121  18.516  0.00  0.00    +0.000 N 
ATOM     14  H   UNL     1      -1.695  13.066  19.407  0.00  0.00    +0.000 HD
ATOM     15  H   UNL     1      -1.836  13.197  17.721  0.00  0.00    +0.000 HD
ENDBRANCH   9  13
ENDBRANCH   3   6
BRANCH   5  16
ATOM     16  C   UNL     1       4.816   6.230  17.644  0.00  0.00    +0.000 C 
ATOM     17  C   UNL     1       4.816   5.269  16.398  0.00  0.00    +0.000 C 
ATOM     18  C   UNL     1       5.049   6.493  15.490  0.00  0.00    +0.000 C 
ATOM     19  C   UNL     1       5.802   7.064  16.720  0.00  0.00    +0.000 C 
ATOM     20  C   UNL     1       7.244   6.535  16.639  0.00  0.00    +0.000 C 
ATOM     21  N   UNL     1       7.318   5.059  16.753  0.00  0.00    +0.000 NA
ATOM     22  C   UNL     1       6.067   4.371  16.353  0.00  0.00    +0.000 C 
BRANCH  21  23
ATOM     23  C   UNL     1       7.794   4.709  18.104  0.00  0.00    +0.000 C 
ATOM     24  C   UNL     1       8.037   5.909  19.035  0.00  0.00    +0.000 C 
ATOM     25  O   UNL     1       7.238   5.266  20.077  0.00  0.00    +0.000 OA
ATOM     26  C   UNL     1       6.568   4.504  19.026  0.00  0.00    +0.000 C 
ENDBRANCH  21  23
ENDBRANCH   5  16
BRANCH   1  28
ATOM     27  C   UNL     1       1.315   5.111  20.497  0.00  0.00    +0.000 C 
ATOM     28  C   UNL     1       2.172   5.078  19.231  0.00  0.00    +0.000 C 
ATOM     29  C   UNL     1       1.494   4.175  18.182  0.00  0.00    +0.000 C 
ENDBRANCH   1  28
TORSDOF 5
ENDMDL
MODEL 9
REMARK VINA RESULT:      -6.7      1.376      1.678
REMARK  Name = 
REMARK  7 active torsions:
REMARK  status: ('A' for Active; 'I' for Inactive)
REMARK    1  A    between atoms: C_1  and  C_2
REMARK    2  A    between atoms: C_2  and  C_3
REMARK    3  A    between atoms: C_2  and  N_4
REMARK    4  A    between atoms: C_6  and  C_7
REMARK    5  A    between atoms: C_10  and  N_11
REMARK    6  A    between atoms: C_16  and  C_17
REMARK    7  A    between atoms: N_22  and  C_23
REMARK                            x       y       z     vdW  Elec       q    Type
REMARK                         _______ _______ _______ _____ _____    ______ ____
ROOT
ATOM      1  N   UNL     1       2.985   5.613  19.382  0.00  0.00    +0.000 N 
ATOM      2  N   UNL     1       2.132   6.412  20.062  0.00  0.00    +0.000 NA
ATOM      3  C   UNL     1       2.141   7.575  19.409  0.00  0.00    +0.000 A 
ATOM      4  C   UNL     1       3.077   7.539  18.354  0.00  0.00    +0.000 A 
ATOM      5  C   UNL     1       3.616   6.272  18.345  0.00  0.00    +0.000 A 
ENDROOT
BRANCH   3   6
ATOM      6  C   UNL     1       1.307   8.698  19.797  0.00  0.00    +0.000 A 
ATOM      7  C   UNL     1       0.528   8.664  20.946  0.00  0.00    +0.000 A 
ATOM      8  N   UNL     1      -0.224   9.706  21.390  0.00  0.00    +0.000 NA
ATOM      9  C   UNL     1      -0.217  10.833  20.650  0.00  0.00    +0.000 A 
ATOM     10  C   UNL     1       0.520  10.949  19.467  0.00  0.00    +0.000 A 
ATOM     11 CL   UNL     1       0.502  12.386  18.512  0.00  0.00    +0.000 Cl
ATOM     12  C   UNL     1       1.286   9.870  19.038  0.00  0.00    +0.000 A 
BRANCH   9  13
ATOM     13  N   UNL     1      -0.943  11.901  21.180  0.00  0.00    +0.000 N 
ATOM     14  H   UNL     1      -0.400  12.300  21.940  0.00  0.00    +0.000 HD
ATOM     15  H   UNL     1      -1.877  11.621  21.456  0.00  0.00    +0.000 HD
ENDBRANCH   9  13
ENDBRANCH   3   6
BRANCH   5  16
ATOM     16  C   UNL     1       4.754   5.771  17.429  0.00  0.00    +0.000 C 
ATOM     17  C   UNL     1       5.740   6.843  16.836  0.00  0.00    +0.000 C 
ATOM     18  C   UNL     1       6.565   6.762  18.136  0.00  0.00    +0.000 C 
ATOM     19  C   UNL     1       6.074   5.291  18.169  0.00  0.00    +0.000 C 
ATOM     20  C   UNL     1       7.059   4.479  17.311  0.00  0.00    +0.000 C 
ATOM     21  N   UNL     1       7.050   4.889  15.887  0.00  0.00    +0.000 NA
ATOM     22  C   UNL     1       6.585   6.281  15.676  0.00  0.00    +0.000 C 
BRANCH  21  23
ATOM     23  C   UNL     1       6.311   3.881  15.105  0.00  0.00    +0.000 C 
ATOM     24  C   UNL     1       4.995   4.382  14.485  0.00  0.00    +0.000 C 
ATOM     25  O   UNL     1       5.401   3.849  13.186  0.00  0.00    +0.000 OA
ATOM     26  C   UNL     1       6.789   3.944  13.634  0.00  0.00    +0.000 C 
ENDBRANCH  21  23
ENDBRANCH   5  16
BRANCH   1  28
ATOM     27  C   UNL     1       2.411   4.012  21.171  0.00  0.00    +0.000 C 
ATOM     28  C   UNL     1       3.119   4.226  19.833  0.00  0.00    +0.000 C 
ATOM     29  C   UNL     1       2.571   3.220  18.802  0.00  0.00    +0.000 C 
ENDBRANCH   1  28
TORSDOF 5
ENDMDL
