MODEL 1
REMARK VINA RESULT:      -6.3      0.000      0.000
REMARK  Name = 
REMARK  26 active torsions:
REMARK  status: ('A' for Active; 'I' for Inactive)
REMARK    1  A    between atoms: C_2  and  C_3
REMARK    2  A    between atoms: C_3  and  C_4
REMARK    3  A    between atoms: C_4  and  C_5
REMARK    4  A    between atoms: C_5  and  C_6
REMARK    5  A    between atoms: C_6  and  C_9
REMARK    6  A    between atoms: C_9  and  C_10
REMARK    7  A    between atoms: C_10  and  O_11
REMARK    8  A    between atoms: C_10  and  C_12
REMARK    9  A    between atoms: C_12  and  C_13
REMARK   10  A    between atoms: C_13  and  C_14
REMARK   11  A    between atoms: C_14  and  C_15
REMARK   12  A    between atoms: C_14  and  C_16
REMARK   13  A    between atoms: C_16  and  C_17
REMARK   14  A    between atoms: C_17  and  C_18
REMARK   15  A    between atoms: C_17  and  C_19
REMARK   16  A    between atoms: C_19  and  O_20
REMARK   17  A    between atoms: C_19  and  C_21
REMARK   18  A    between atoms: C_21  and  C_22
REMARK   19  A    between atoms: C_22  and  C_23
REMARK   20  A    between atoms: C_23  and  C_24
REMARK   21  A    between atoms: C_24  and  C_25
REMARK   22  A    between atoms: C_25  and  C_26
REMARK   23  A    between atoms: C_25  and  C_27
REMARK   24  A    between atoms: C_27  and  O_28
REMARK   25  A    between atoms: C_27  and  C_29
REMARK   26  A    between atoms: C_29  and  C_30
REMARK                            x       y       z     vdW  Elec       q    Type
REMARK                         _______ _______ _______ _____ _____    ______ ____
ROOT
ATOM      1  C   UNL     1       1.805   5.249  18.115  0.00  0.00    +0.000 C 
ENDROOT
BRANCH   1   2
ATOM      2  C   UNL     1       2.309   3.785  18.187  0.00  0.00    +0.000 C 
ATOM      3  C   UNL     1       1.760   3.007  19.385  0.00  0.00    +0.000 C 
BRANCH   2   4
ATOM      4  C   UNL     1       3.847   3.702  18.110  0.00  0.00    +0.000 C 
BRANCH   4   5
ATOM      5  O   UNL     1       4.230   2.430  17.582  0.00  0.00    +0.000 OA
ATOM      6  H   UNL     1       5.021   2.120  18.059  0.00  0.00    +0.000 HD
ENDBRANCH   4   5
BRANCH   4   7
ATOM      7  C   UNL     1       4.596   3.977  19.426  0.00  0.00    +0.000 C 
BRANCH   7   8
ATOM      8  C   UNL     1       6.018   4.502  19.191  0.00  0.00    +0.000 C 
BRANCH   8   9
ATOM      9  C   UNL     1       6.029   5.613  18.146  0.00  0.00    +0.000 C 
BRANCH   9  10
ATOM     10  C   UNL     1       6.920   5.277  16.959  0.00  0.00    +0.000 C 
BRANCH  10  11
ATOM     11  C   UNL     1       6.193   5.462  15.611  0.00  0.00    +0.000 C 
ATOM     12  C   UNL     1       5.005   6.409  15.811  0.00  0.00    +0.000 C 
BRANCH  11  13
ATOM     13  C   UNL     1       5.791   4.131  14.924  0.00  0.00    +0.000 C 
BRANCH  13  14
ATOM     14  O   UNL     1       6.257   3.044  15.735  0.00  0.00    +0.000 OA
ATOM     15  H   UNL     1       6.398   2.271  15.165  0.00  0.00    +0.000 HD
ENDBRANCH  13  14
BRANCH  13  16
ATOM     16  C   UNL     1       6.292   3.996  13.471  0.00  0.00    +0.000 C 
BRANCH  16  17
ATOM     17  C   UNL     1       5.263   3.364  12.572  0.00  0.00    +0.000 C 
ATOM     18  C   UNL     1       5.555   2.571  11.532  0.00  0.00    +0.000 C 
ENDBRANCH  16  17
ENDBRANCH  13  16
ENDBRANCH  11  13
ENDBRANCH  10  11
ENDBRANCH   9  10
ENDBRANCH   8   9
ENDBRANCH   7   8
ENDBRANCH   4   7
ENDBRANCH   2   4
ENDBRANCH   1   2
BRANCH   1  19
ATOM     19  C   UNL     1       2.471   6.229  19.112  0.00  0.00    +0.000 C 
ATOM     20  C   UNL     1       1.840   6.119  20.507  0.00  0.00    +0.000 C 
BRANCH  19  21
ATOM     21  C   UNL     1       2.411   7.678  18.568  0.00  0.00    +0.000 C 
BRANCH  21  22
ATOM     22  C   UNL     1       1.616   8.607  19.497  0.00  0.00    +0.000 C 
BRANCH  22  23
ATOM     23  C   UNL     1       1.146   9.912  18.832  0.00  0.00    +0.000 C 
BRANCH  23  24
ATOM     24  O   UNL     1       1.417   9.871  17.430  0.00  0.00    +0.000 OA
ATOM     25  H   UNL     1       0.806  10.473  16.971  0.00  0.00    +0.000 HD
ENDBRANCH  23  24
BRANCH  23  26
ATOM     26  C   UNL     1      -0.368  10.071  19.086  0.00  0.00    +0.000 C 
BRANCH  26  27
ATOM     27  C   UNL     1      -1.130  10.967  18.122  0.00  0.00    +0.000 C 
ATOM     28  C   UNL     1      -1.017  12.302  18.128  0.00  0.00    +0.000 C 
ATOM     29 CL   UNL     1       0.008  13.208  19.159  0.00  0.00    +0.000 Cl
BRANCH  27  30
ATOM     30  C   UNL     1      -2.087  10.300  17.145  0.00  0.00    +0.000 C 
BRANCH  30  31
ATOM     31  C   UNL     1      -3.491  10.000  17.682  0.00  0.00    +0.000 C 
BRANCH  31  32
ATOM     32  C   UNL     1      -4.265  11.253  18.090  0.00  0.00    +0.000 C 
BRANCH  32  34
ATOM     33  C   UNL     1      -6.811  10.657  18.572  0.00  0.00    +0.000 C 
ATOM     34  C   UNL     1      -5.665  10.924  18.368  0.00  0.00    +0.000 C 
ENDBRANCH  32  34
ENDBRANCH  31  32
ENDBRANCH  30  31
ENDBRANCH  27  30
ENDBRANCH  26  27
ENDBRANCH  23  26
ENDBRANCH  22  23
ENDBRANCH  21  22
ENDBRANCH  19  21
ENDBRANCH   1  19
TORSDOF 23
ENDMDL
MODEL 2
REMARK VINA RESULT:      -6.2      1.733      2.329
REMARK  Name = 
REMARK  26 active torsions:
REMARK  status: ('A' for Active; 'I' for Inactive)
REMARK    1  A    between atoms: C_2  and  C_3
REMARK    2  A    between atoms: C_3  and  C_4
REMARK    3  A    between atoms: C_4  and  C_5
REMARK    4  A    between atoms: C_5  and  C_6
REMARK    5  A    between atoms: C_6  and  C_9
REMARK    6  A    between atoms: C_9  and  C_10
REMARK    7  A    between atoms: C_10  and  O_11
REMARK    8  A    between atoms: C_10  and  C_12
REMARK    9  A    between atoms: C_12  and  C_13
REMARK   10  A    between atoms: C_13  and  C_14
REMARK   11  A    between atoms: C_14  and  C_15
REMARK   12  A    between atoms: C_14  and  C_16
REMARK   13  A    between atoms: C_16  and  C_17
REMARK   14  A    between atoms: C_17  and  C_18
REMARK   15  A    between atoms: C_17  and  C_19
REMARK   16  A    between atoms: C_19  and  O_20
REMARK   17  A    between atoms: C_19  and  C_21
REMARK   18  A    between atoms: C_21  and  C_22
REMARK   19  A    between atoms: C_22  and  C_23
REMARK   20  A    between atoms: C_23  and  C_24
REMARK   21  A    between atoms: C_24  and  C_25
REMARK   22  A    between atoms: C_25  and  C_26
REMARK   23  A    between atoms: C_25  and  C_27
REMARK   24  A    between atoms: C_27  and  O_28
REMARK   25  A    between atoms: C_27  and  C_29
REMARK   26  A    between atoms: C_29  and  C_30
REMARK                            x       y       z     vdW  Elec       q    Type
REMARK                         _______ _______ _______ _____ _____    ______ ____
ROOT
ATOM      1  C   UNL     1       1.102   4.870  17.800  0.00  0.00    +0.000 C 
ENDROOT
BRANCH   1   2
ATOM      2  C   UNL     1       1.285   3.427  18.336  0.00  0.00    +0.000 C 
ATOM      3  C   UNL     1       1.317   3.340  19.863  0.00  0.00    +0.000 C 
BRANCH   2   4
ATOM      4  C   UNL     1       2.503   2.729  17.700  0.00  0.00    +0.000 C 
BRANCH   4   5
ATOM      5  O   UNL     1       2.603   1.393  18.199  0.00  0.00    +0.000 OA
ATOM      6  H   UNL     1       3.390   1.331  18.769  0.00  0.00    +0.000 HD
ENDBRANCH   4   5
BRANCH   4   7
ATOM      7  C   UNL     1       3.849   3.457  17.862  0.00  0.00    +0.000 C 
BRANCH   7   8
ATOM      8  C   UNL     1       4.506   3.178  19.220  0.00  0.00    +0.000 C 
BRANCH   8   9
ATOM      9  C   UNL     1       5.479   4.289  19.600  0.00  0.00    +0.000 C 
BRANCH   9  10
ATOM     10  C   UNL     1       5.367   5.493  18.677  0.00  0.00    +0.000 C 
BRANCH  10  11
ATOM     11  C   UNL     1       6.657   5.730  17.864  0.00  0.00    +0.000 C 
ATOM     12  C   UNL     1       6.523   7.043  17.086  0.00  0.00    +0.000 C 
BRANCH  11  13
ATOM     13  C   UNL     1       7.062   4.535  16.962  0.00  0.00    +0.000 C 
BRANCH  13  14
ATOM     14  O   UNL     1       8.358   4.077  17.371  0.00  0.00    +0.000 OA
ATOM     15  H   UNL     1       8.928   4.023  16.587  0.00  0.00    +0.000 HD
ENDBRANCH  13  14
BRANCH  13  16
ATOM     16  C   UNL     1       7.032   4.848  15.452  0.00  0.00    +0.000 C 
BRANCH  16  17
ATOM     17  C   UNL     1       6.027   4.002  14.716  0.00  0.00    +0.000 C 
ATOM     18  C   UNL     1       6.012   3.833  13.387  0.00  0.00    +0.000 C 
ENDBRANCH  16  17
ENDBRANCH  13  16
ENDBRANCH  11  13
ENDBRANCH  10  11
ENDBRANCH   9  10
ENDBRANCH   8   9
ENDBRANCH   7   8
ENDBRANCH   4   7
ENDBRANCH   2   4
ENDBRANCH   1   2
BRANCH   1  19
ATOM     19  C   UNL     1       2.156   5.896  18.284  0.00  0.00    +0.000 C 
ATOM     20  C   UNL     1       2.035   6.151  19.793  0.00  0.00    +0.000 C 
BRANCH  19  21
ATOM     21  C   UNL     1       2.047   7.209  17.469  0.00  0.00    +0.000 C 
BRANCH  21  22
ATOM     22  C   UNL     1       2.832   8.355  18.122  0.00  0.00    +0.000 C 
BRANCH  22  23
ATOM     23  C   UNL     1       2.016   9.644  18.324  0.00  0.00    +0.000 C 
BRANCH  23  24
ATOM     24  O   UNL     1       2.339  10.591  17.304  0.00  0.00    +0.000 OA
ATOM     25  H   UNL     1       2.178  11.488  17.642  0.00  0.00    +0.000 HD
ENDBRANCH  23  24
BRANCH  23  26
ATOM     26  C   UNL     1       0.516   9.284  18.272  0.00  0.00    +0.000 C 
BRANCH  26  27
ATOM     27  C   UNL     1      -0.427  10.180  19.058  0.00  0.00    +0.000 C 
ATOM     28  C   UNL     1      -0.696   9.990  20.357  0.00  0.00    +0.000 C 
ATOM     29 CL   UNL     1      -0.012   8.769  21.345  0.00  0.00    +0.000 Cl
BRANCH  27  30
ATOM     30  C   UNL     1      -1.115  11.311  18.308  0.00  0.00    +0.000 C 
BRANCH  30  31
ATOM     31  C   UNL     1      -2.610  11.119  18.031  0.00  0.00    +0.000 C 
BRANCH  31  32
ATOM     32  C   UNL     1      -2.933   9.794  17.339  0.00  0.00    +0.000 C 
BRANCH  32  34
ATOM     33  C   UNL     1      -3.000  10.100  14.699  0.00  0.00    +0.000 C 
ATOM     34  C   UNL     1      -2.979   9.971  15.886  0.00  0.00    +0.000 C 
ENDBRANCH  32  34
ENDBRANCH  31  32
ENDBRANCH  30  31
ENDBRANCH  27  30
ENDBRANCH  26  27
ENDBRANCH  23  26
ENDBRANCH  22  23
ENDBRANCH  21  22
ENDBRANCH  19  21
ENDBRANCH   1  19
TORSDOF 23
ENDMDL
MODEL 3
REMARK VINA RESULT:      -6.1      2.006      3.244
REMARK  Name = 
REMARK  26 active torsions:
REMARK  status: ('A' for Active; 'I' for Inactive)
REMARK    1  A    between atoms: C_2  and  C_3
REMARK    2  A    between atoms: C_3  and  C_4
REMARK    3  A    between atoms: C_4  and  C_5
REMARK    4  A    between atoms: C_5  and  C_6
REMARK    5  A    between atoms: C_6  and  C_9
REMARK    6  A    between atoms: C_9  and  C_10
REMARK    7  A    between atoms: C_10  and  O_11
REMARK    8  A    between atoms: C_10  and  C_12
REMARK    9  A    between atoms: C_12  and  C_13
REMARK   10  A    between atoms: C_13  and  C_14
REMARK   11  A    between atoms: C_14  and  C_15
REMARK   12  A    between atoms: C_14  and  C_16
REMARK   13  A    between atoms: C_16  and  C_17
REMARK   14  A    between atoms: C_17  and  C_18
REMARK   15  A    between atoms: C_17  and  C_19
REMARK   16  A    between atoms: C_19  and  O_20
REMARK   17  A    between atoms: C_19  and  C_21
REMARK   18  A    between atoms: C_21  and  C_22
REMARK   19  A    between atoms: C_22  and  C_23
REMARK   20  A    between atoms: C_23  and  C_24
REMARK   21  A    between atoms: C_24  and  C_25
REMARK   22  A    between atoms: C_25  and  C_26
REMARK   23  A    between atoms: C_25  and  C_27
REMARK   24  A    between atoms: C_27  and  O_28
REMARK   25  A    between atoms: C_27  and  C_29
REMARK   26  A    between atoms: C_29  and  C_30
REMARK                            x       y       z     vdW  Elec       q    Type
REMARK                         _______ _______ _______ _____ _____    ______ ____
ROOT
ATOM      1  C   UNL     1       1.814   5.691  18.866  0.00  0.00    +0.000 C 
ENDROOT
BRANCH   1   2
ATOM      2  C   UNL     1       1.667   4.574  19.931  0.00  0.00    +0.000 C 
ATOM      3  C   UNL     1       2.909   4.393  20.805  0.00  0.00    +0.000 C 
BRANCH   2   4
ATOM      4  C   UNL     1       1.210   3.241  19.306  0.00  0.00    +0.000 C 
BRANCH   4   5
ATOM      5  O   UNL     1       1.732   2.151  20.071  0.00  0.00    +0.000 OA
ATOM      6  H   UNL     1       1.121   1.965  20.805  0.00  0.00    +0.000 HD
ENDBRANCH   4   5
BRANCH   4   7
ATOM      7  C   UNL     1       1.549   3.053  17.816  0.00  0.00    +0.000 C 
BRANCH   7   8
ATOM      8  C   UNL     1       3.026   2.709  17.591  0.00  0.00    +0.000 C 
BRANCH   8   9
ATOM      9  C   UNL     1       3.769   3.872  16.940  0.00  0.00    +0.000 C 
BRANCH   9  10
ATOM     10  C   UNL     1       5.198   3.506  16.568  0.00  0.00    +0.000 C 
BRANCH  10  11
ATOM     11  C   UNL     1       6.231   4.456  17.210  0.00  0.00    +0.000 C 
ATOM     12  C   UNL     1       5.882   4.646  18.689  0.00  0.00    +0.000 C 
BRANCH  11  13
ATOM     13  C   UNL     1       6.406   5.799  16.456  0.00  0.00    +0.000 C 
BRANCH  13  14
ATOM     14  O   UNL     1       7.666   5.774  15.771  0.00  0.00    +0.000 OA
ATOM     15  H   UNL     1       8.377   5.807  16.432  0.00  0.00    +0.000 HD
ENDBRANCH  13  14
BRANCH  13  16
ATOM     16  C   UNL     1       6.284   7.047  17.355  0.00  0.00    +0.000 C 
BRANCH  16  17
ATOM     17  C   UNL     1       7.630   7.574  17.779  0.00  0.00    +0.000 C 
ATOM     18  C   UNL     1       8.020   8.848  17.634  0.00  0.00    +0.000 C 
ENDBRANCH  16  17
ENDBRANCH  13  16
ENDBRANCH  11  13
ENDBRANCH  10  11
ENDBRANCH   9  10
ENDBRANCH   8   9
ENDBRANCH   7   8
ENDBRANCH   4   7
ENDBRANCH   2   4
ENDBRANCH   1   2
BRANCH   1  19
ATOM     19  C   UNL     1       2.450   7.009  19.372  0.00  0.00    +0.000 C 
ATOM     20  C   UNL     1       1.600   7.650  20.478  0.00  0.00    +0.000 C 
BRANCH  19  21
ATOM     21  C   UNL     1       2.685   7.984  18.191  0.00  0.00    +0.000 C 
BRANCH  21  22
ATOM     22  C   UNL     1       1.574   9.038  18.089  0.00  0.00    +0.000 C 
BRANCH  22  23
ATOM     23  C   UNL     1       1.994  10.445  18.550  0.00  0.00    +0.000 C 
BRANCH  23  24
ATOM     24  O   UNL     1       2.265  11.269  17.416  0.00  0.00    +0.000 OA
ATOM     25  H   UNL     1       3.024  11.843  17.615  0.00  0.00    +0.000 HD
ENDBRANCH  23  24
BRANCH  23  26
ATOM     26  C   UNL     1       0.848  11.044  19.392  0.00  0.00    +0.000 C 
BRANCH  26  27
ATOM     27  C   UNL     1      -0.324  11.634  18.625  0.00  0.00    +0.000 C 
ATOM     28  C   UNL     1      -0.438  12.944  18.367  0.00  0.00    +0.000 C 
ATOM     29 CL   UNL     1       0.704  14.145  18.801  0.00  0.00    +0.000 Cl
BRANCH  27  30
ATOM     30  C   UNL     1      -1.425  10.684  18.176  0.00  0.00    +0.000 C 
BRANCH  30  31
ATOM     31  C   UNL     1      -2.826  11.293  18.052  0.00  0.00    +0.000 C 
BRANCH  31  32
ATOM     32  C   UNL     1      -3.792  10.430  17.240  0.00  0.00    +0.000 C 
BRANCH  32  34
ATOM     33  C   UNL     1      -2.900  10.089  14.759  0.00  0.00    +0.000 C 
ATOM     34  C   UNL     1      -3.300  10.255  15.872  0.00  0.00    +0.000 C 
ENDBRANCH  32  34
ENDBRANCH  31  32
ENDBRANCH  30  31
ENDBRANCH  27  30
ENDBRANCH  26  27
ENDBRANCH  23  26
ENDBRANCH  22  23
ENDBRANCH  21  22
ENDBRANCH  19  21
ENDBRANCH   1  19
TORSDOF 23
ENDMDL
MODEL 4
REMARK VINA RESULT:      -6.1      2.440      3.588
REMARK  Name = 
REMARK  26 active torsions:
REMARK  status: ('A' for Active; 'I' for Inactive)
REMARK    1  A    between atoms: C_2  and  C_3
REMARK    2  A    between atoms: C_3  and  C_4
REMARK    3  A    between atoms: C_4  and  C_5
REMARK    4  A    between atoms: C_5  and  C_6
REMARK    5  A    between atoms: C_6  and  C_9
REMARK    6  A    between atoms: C_9  and  C_10
REMARK    7  A    between atoms: C_10  and  O_11
REMARK    8  A    between atoms: C_10  and  C_12
REMARK    9  A    between atoms: C_12  and  C_13
REMARK   10  A    between atoms: C_13  and  C_14
REMARK   11  A    between atoms: C_14  and  C_15
REMARK   12  A    between atoms: C_14  and  C_16
REMARK   13  A    between atoms: C_16  and  C_17
REMARK   14  A    between atoms: C_17  and  C_18
REMARK   15  A    between atoms: C_17  and  C_19
REMARK   16  A    between atoms: C_19  and  O_20
REMARK   17  A    between atoms: C_19  and  C_21
REMARK   18  A    between atoms: C_21  and  C_22
REMARK   19  A    between atoms: C_22  and  C_23
REMARK   20  A    between atoms: C_23  and  C_24
REMARK   21  A    between atoms: C_24  and  C_25
REMARK   22  A    between atoms: C_25  and  C_26
REMARK   23  A    between atoms: C_25  and  C_27
REMARK   24  A    between atoms: C_27  and  O_28
REMARK   25  A    between atoms: C_27  and  C_29
REMARK   26  A    between atoms: C_29  and  C_30
REMARK                            x       y       z     vdW  Elec       q    Type
REMARK                         _______ _______ _______ _____ _____    ______ ____
ROOT
ATOM      1  C   UNL     1       2.055   5.315  20.802  0.00  0.00    +0.000 C 
ENDROOT
BRANCH   1   2
ATOM      2  C   UNL     1       1.300   4.041  20.344  0.00  0.00    +0.000 C 
ATOM      3  C   UNL     1       1.274   2.933  21.398  0.00  0.00    +0.000 C 
BRANCH   2   4
ATOM      4  C   UNL     1       1.816   3.524  18.986  0.00  0.00    +0.000 C 
BRANCH   4   5
ATOM      5  O   UNL     1       0.767   2.824  18.312  0.00  0.00    +0.000 OA
ATOM      6  H   UNL     1       0.530   3.317  17.507  0.00  0.00    +0.000 HD
ENDBRANCH   4   5
BRANCH   4   7
ATOM      7  C   UNL     1       3.084   2.654  19.042  0.00  0.00    +0.000 C 
BRANCH   7   8
ATOM      8  C   UNL     1       4.348   3.436  18.663  0.00  0.00    +0.000 C 
BRANCH   8   9
ATOM      9  C   UNL     1       4.192   4.109  17.304  0.00  0.00    +0.000 C 
BRANCH   9  10
ATOM     10  C   UNL     1       5.180   3.572  16.279  0.00  0.00    +0.000 C 
BRANCH  10  11
ATOM     11  C   UNL     1       5.718   4.680  15.348  0.00  0.00    +0.000 C 
ATOM     12  C   UNL     1       5.960   4.087  13.957  0.00  0.00    +0.000 C 
BRANCH  11  13
ATOM     13  C   UNL     1       6.956   5.427  15.908  0.00  0.00    +0.000 C 
BRANCH  13  14
ATOM     14  O   UNL     1       7.903   4.452  16.367  0.00  0.00    +0.000 OA
ATOM     15  H   UNL     1       8.583   4.906  16.892  0.00  0.00    +0.000 HD
ENDBRANCH  13  14
BRANCH  13  16
ATOM     16  C   UNL     1       6.628   6.449  17.015  0.00  0.00    +0.000 C 
BRANCH  16  17
ATOM     17  C   UNL     1       7.565   6.336  18.189  0.00  0.00    +0.000 C 
ATOM     18  C   UNL     1       7.267   5.707  19.334  0.00  0.00    +0.000 C 
ENDBRANCH  16  17
ENDBRANCH  13  16
ENDBRANCH  11  13
ENDBRANCH  10  11
ENDBRANCH   9  10
ENDBRANCH   8   9
ENDBRANCH   7   8
ENDBRANCH   4   7
ENDBRANCH   2   4
ENDBRANCH   1   2
BRANCH   1  19
ATOM     19  C   UNL     1       1.744   6.597  19.990  0.00  0.00    +0.000 C 
ATOM     20  C   UNL     1       2.896   6.949  19.039  0.00  0.00    +0.000 C 
BRANCH  19  21
ATOM     21  C   UNL     1       1.407   7.772  20.942  0.00  0.00    +0.000 C 
BRANCH  21  22
ATOM     22  C   UNL     1       1.090   9.062  20.172  0.00  0.00    +0.000 C 
BRANCH  22  23
ATOM     23  C   UNL     1       0.751  10.265  21.068  0.00  0.00    +0.000 C 
BRANCH  23  24
ATOM     24  O   UNL     1       1.424  11.432  20.594  0.00  0.00    +0.000 OA
ATOM     25  H   UNL     1       0.896  12.216  20.820  0.00  0.00    +0.000 HD
ENDBRANCH  23  24
BRANCH  23  26
ATOM     26  C   UNL     1      -0.778  10.474  21.045  0.00  0.00    +0.000 C 
BRANCH  26  27
ATOM     27  C   UNL     1      -1.290  11.662  20.245  0.00  0.00    +0.000 C 
ATOM     28  C   UNL     1      -1.574  11.589  18.938  0.00  0.00    +0.000 C 
ATOM     29 CL   UNL     1      -1.460  10.178  17.973  0.00  0.00    +0.000 Cl
BRANCH  27  30
ATOM     30  C   UNL     1      -1.439  12.991  20.971  0.00  0.00    +0.000 C 
BRANCH  30  31
ATOM     31  C   UNL     1      -2.824  13.643  20.896  0.00  0.00    +0.000 C 
BRANCH  31  32
ATOM     32  C   UNL     1      -3.939  12.767  21.469  0.00  0.00    +0.000 C 
BRANCH  32  34
ATOM     33  C   UNL     1      -3.667  12.499  24.100  0.00  0.00    +0.000 C 
ATOM     34  C   UNL     1      -3.778  12.612  22.916  0.00  0.00    +0.000 C 
ENDBRANCH  32  34
ENDBRANCH  31  32
ENDBRANCH  30  31
ENDBRANCH  27  30
ENDBRANCH  26  27
ENDBRANCH  23  26
ENDBRANCH  22  23
ENDBRANCH  21  22
ENDBRANCH  19  21
ENDBRANCH   1  19
TORSDOF 23
ENDMDL
MODEL 5
REMARK VINA RESULT:      -6.1      1.810      3.216
REMARK  Name = 
REMARK  26 active torsions:
REMARK  status: ('A' for Active; 'I' for Inactive)
REMARK    1  A    between atoms: C_2  and  C_3
REMARK    2  A    between atoms: C_3  and  C_4
REMARK    3  A    between atoms: C_4  and  C_5
REMARK    4  A    between atoms: C_5  and  C_6
REMARK    5  A    between atoms: C_6  and  C_9
REMARK    6  A    between atoms: C_9  and  C_10
REMARK    7  A    between atoms: C_10  and  O_11
REMARK    8  A    between atoms: C_10  and  C_12
REMARK    9  A    between atoms: C_12  and  C_13
REMARK   10  A    between atoms: C_13  and  C_14
REMARK   11  A    between atoms: C_14  and  C_15
REMARK   12  A    between atoms: C_14  and  C_16
REMARK   13  A    between atoms: C_16  and  C_17
REMARK   14  A    between atoms: C_17  and  C_18
REMARK   15  A    between atoms: C_17  and  C_19
REMARK   16  A    between atoms: C_19  and  O_20
REMARK   17  A    between atoms: C_19  and  C_21
REMARK   18  A    between atoms: C_21  and  C_22
REMARK   19  A    between atoms: C_22  and  C_23
REMARK   20  A    between atoms: C_23  and  C_24
REMARK   21  A    between atoms: C_24  and  C_25
REMARK   22  A    between atoms: C_25  and  C_26
REMARK   23  A    between atoms: C_25  and  C_27
REMARK   24  A    between atoms: C_27  and  O_28
REMARK   25  A    between atoms: C_27  and  C_29
REMARK   26  A    between atoms: C_29  and  C_30
REMARK                            x       y       z     vdW  Elec       q    Type
REMARK                         _______ _______ _______ _____ _____    ______ ____
ROOT
ATOM      1  C   UNL     1       2.344   6.387  19.865  0.00  0.00    +0.000 C 
ENDROOT
BRANCH   1   2
ATOM      2  C   UNL     1       1.682   5.025  20.194  0.00  0.00    +0.000 C 
ATOM      3  C   UNL     1       2.200   4.387  21.484  0.00  0.00    +0.000 C 
BRANCH   2   4
ATOM      4  C   UNL     1       1.759   4.047  19.004  0.00  0.00    +0.000 C 
BRANCH   4   5
ATOM      5  O   UNL     1       0.600   3.209  18.998  0.00  0.00    +0.000 OA
ATOM      6  H   UNL     1      -0.186   3.763  19.148  0.00  0.00    +0.000 HD
ENDBRANCH   4   5
BRANCH   4   7
ATOM      7  C   UNL     1       3.034   3.188  18.928  0.00  0.00    +0.000 C 
BRANCH   7   8
ATOM      8  C   UNL     1       3.231   2.553  17.546  0.00  0.00    +0.000 C 
BRANCH   8   9
ATOM      9  C   UNL     1       3.756   3.573  16.541  0.00  0.00    +0.000 C 
BRANCH   9  10
ATOM     10  C   UNL     1       5.273   3.683  16.572  0.00  0.00    +0.000 C 
BRANCH  10  11
ATOM     11  C   UNL     1       5.798   4.789  15.633  0.00  0.00    +0.000 C 
ATOM     12  C   UNL     1       5.818   4.256  14.197  0.00  0.00    +0.000 C 
BRANCH  11  13
ATOM     13  C   UNL     1       7.159   5.392  16.070  0.00  0.00    +0.000 C 
BRANCH  13  14
ATOM     14  O   UNL     1       7.996   4.327  16.541  0.00  0.00    +0.000 OA
ATOM     15  H   UNL     1       7.579   3.929  17.322  0.00  0.00    +0.000 HD
ENDBRANCH  13  14
BRANCH  13  16
ATOM     16  C   UNL     1       7.042   6.515  17.121  0.00  0.00    +0.000 C 
BRANCH  16  17
ATOM     17  C   UNL     1       7.590   6.099  18.461  0.00  0.00    +0.000 C 
ATOM     18  C   UNL     1       6.872   5.482  19.409  0.00  0.00    +0.000 C 
ENDBRANCH  16  17
ENDBRANCH  13  16
ENDBRANCH  11  13
ENDBRANCH  10  11
ENDBRANCH   9  10
ENDBRANCH   8   9
ENDBRANCH   7   8
ENDBRANCH   4   7
ENDBRANCH   2   4
ENDBRANCH   1   2
BRANCH   1  19
ATOM     19  C   UNL     1       2.338   6.783  18.368  0.00  0.00    +0.000 C 
ATOM     20  C   UNL     1       3.764   6.855  17.805  0.00  0.00    +0.000 C 
BRANCH  19  21
ATOM     21  C   UNL     1       1.572   8.113  18.163  0.00  0.00    +0.000 C 
BRANCH  21  22
ATOM     22  C   UNL     1       2.464   9.335  18.426  0.00  0.00    +0.000 C 
BRANCH  22  23
ATOM     23  C   UNL     1       1.690  10.614  18.790  0.00  0.00    +0.000 C 
BRANCH  23  24
ATOM     24  O   UNL     1       1.927  11.624  17.808  0.00  0.00    +0.000 OA
ATOM     25  H   UNL     1       1.536  12.460  18.114  0.00  0.00    +0.000 HD
ENDBRANCH  23  24
BRANCH  23  26
ATOM     26  C   UNL     1       0.187  10.270  18.862  0.00  0.00    +0.000 C 
BRANCH  26  27
ATOM     27  C   UNL     1      -0.776  11.443  18.944  0.00  0.00    +0.000 C 
ATOM     28  C   UNL     1      -0.985  12.135  20.073  0.00  0.00    +0.000 C 
ATOM     29 CL   UNL     1      -0.195  11.858  21.568  0.00  0.00    +0.000 Cl
BRANCH  27  30
ATOM     30  C   UNL     1      -1.557  11.806  17.689  0.00  0.00    +0.000 C 
BRANCH  30  31
ATOM     31  C   UNL     1      -2.926  11.135  17.535  0.00  0.00    +0.000 C 
BRANCH  31  32
ATOM     32  C   UNL     1      -2.854   9.751  16.890  0.00  0.00    +0.000 C 
BRANCH  32  34
ATOM     33  C   UNL     1      -3.463   9.882  14.305  0.00  0.00    +0.000 C 
ATOM     34  C   UNL     1      -3.201   9.827  15.469  0.00  0.00    +0.000 C 
ENDBRANCH  32  34
ENDBRANCH  31  32
ENDBRANCH  30  31
ENDBRANCH  27  30
ENDBRANCH  26  27
ENDBRANCH  23  26
ENDBRANCH  22  23
ENDBRANCH  21  22
ENDBRANCH  19  21
ENDBRANCH   1  19
TORSDOF 23
ENDMDL
MODEL 6
REMARK VINA RESULT:      -6.0      3.466      9.228
REMARK  Name = 
REMARK  26 active torsions:
REMARK  status: ('A' for Active; 'I' for Inactive)
REMARK    1  A    between atoms: C_2  and  C_3
REMARK    2  A    between atoms: C_3  and  C_4
REMARK    3  A    between atoms: C_4  and  C_5
REMARK    4  A    between atoms: C_5  and  C_6
REMARK    5  A    between atoms: C_6  and  C_9
REMARK    6  A    between atoms: C_9  and  C_10
REMARK    7  A    between atoms: C_10  and  O_11
REMARK    8  A    between atoms: C_10  and  C_12
REMARK    9  A    between atoms: C_12  and  C_13
REMARK   10  A    between atoms: C_13  and  C_14
REMARK   11  A    between atoms: C_14  and  C_15
REMARK   12  A    between atoms: C_14  and  C_16
REMARK   13  A    between atoms: C_16  and  C_17
REMARK   14  A    between atoms: C_17  and  C_18
REMARK   15  A    between atoms: C_17  and  C_19
REMARK   16  A    between atoms: C_19  and  O_20
REMARK   17  A    between atoms: C_19  and  C_21
REMARK   18  A    between atoms: C_21  and  C_22
REMARK   19  A    between atoms: C_22  and  C_23
REMARK   20  A    between atoms: C_23  and  C_24
REMARK   21  A    between atoms: C_24  and  C_25
REMARK   22  A    between atoms: C_25  and  C_26
REMARK   23  A    between atoms: C_25  and  C_27
REMARK   24  A    between atoms: C_27  and  O_28
REMARK   25  A    between atoms: C_27  and  C_29
REMARK   26  A    between atoms: C_29  and  C_30
REMARK                            x       y       z     vdW  Elec       q    Type
REMARK                         _______ _______ _______ _____ _____    ______ ____
ROOT
ATOM      1  C   UNL     1       1.248   4.184  19.120  0.00  0.00    +0.000 C 
ENDROOT
BRANCH   1   2
ATOM      2  C   UNL     1       2.356   4.778  20.027  0.00  0.00    +0.000 C 
ATOM      3  C   UNL     1       2.218   4.386  21.499  0.00  0.00    +0.000 C 
BRANCH   2   4
ATOM      4  C   UNL     1       2.483   6.305  19.854  0.00  0.00    +0.000 C 
BRANCH   4   5
ATOM      5  O   UNL     1       1.777   6.966  20.907  0.00  0.00    +0.000 OA
ATOM      6  H   UNL     1       1.642   6.335  21.636  0.00  0.00    +0.000 HD
ENDBRANCH   4   5
BRANCH   4   7
ATOM      7  C   UNL     1       2.040   6.860  18.489  0.00  0.00    +0.000 C 
BRANCH   7   8
ATOM      8  C   UNL     1       2.391   8.343  18.318  0.00  0.00    +0.000 C 
BRANCH   8   9
ATOM      9  C   UNL     1       1.243   9.238  18.776  0.00  0.00    +0.000 C 
BRANCH   9  10
ATOM     10  C   UNL     1       1.550  10.714  18.575  0.00  0.00    +0.000 C 
BRANCH  10  11
ATOM     11  C   UNL     1       0.621  11.623  19.408  0.00  0.00    +0.000 C 
ATOM     12  C   UNL     1      -0.508  12.139  18.511  0.00  0.00    +0.000 C 
BRANCH  11  13
ATOM     13  C   UNL     1       1.361  12.761  20.158  0.00  0.00    +0.000 C 
BRANCH  13  14
ATOM     14  O   UNL     1       1.039  12.668  21.553  0.00  0.00    +0.000 OA
ATOM     15  H   UNL     1       0.748  11.762  21.743  0.00  0.00    +0.000 HD
ENDBRANCH  13  14
BRANCH  13  16
ATOM     16  C   UNL     1       1.064  14.173  19.611  0.00  0.00    +0.000 C 
BRANCH  16  17
ATOM     17  C   UNL     1       2.276  14.801  18.974  0.00  0.00    +0.000 C 
ATOM     18  C   UNL     1       3.240  14.113  18.347  0.00  0.00    +0.000 C 
ENDBRANCH  16  17
ENDBRANCH  13  16
ENDBRANCH  11  13
ENDBRANCH  10  11
ENDBRANCH   9  10
ENDBRANCH   8   9
ENDBRANCH   7   8
ENDBRANCH   4   7
ENDBRANCH   2   4
ENDBRANCH   1   2
BRANCH   1  19
ATOM     19  C   UNL     1       1.713   3.073  18.147  0.00  0.00    +0.000 C 
ATOM     20  C   UNL     1       2.357   1.903  18.903  0.00  0.00    +0.000 C 
BRANCH  19  21
ATOM     21  C   UNL     1       2.666   3.657  17.074  0.00  0.00    +0.000 C 
BRANCH  21  22
ATOM     22  C   UNL     1       4.130   3.275  17.339  0.00  0.00    +0.000 C 
BRANCH  22  23
ATOM     23  C   UNL     1       4.919   4.321  18.144  0.00  0.00    +0.000 C 
BRANCH  23  24
ATOM     24  O   UNL     1       6.135   3.749  18.629  0.00  0.00    +0.000 OA
ATOM     25  H   UNL     1       6.702   4.457  18.977  0.00  0.00    +0.000 HD
ENDBRANCH  23  24
BRANCH  23  26
ATOM     26  C   UNL     1       5.218   5.522  17.221  0.00  0.00    +0.000 C 
BRANCH  26  27
ATOM     27  C   UNL     1       6.675   5.754  16.855  0.00  0.00    +0.000 C 
ATOM     28  C   UNL     1       7.226   5.283  15.728  0.00  0.00    +0.000 C 
ATOM     29 CL   UNL     1       6.401   4.401  14.512  0.00  0.00    +0.000 Cl
BRANCH  27  30
ATOM     30  C   UNL     1       7.538   6.522  17.846  0.00  0.00    +0.000 C 
BRANCH  30  31
ATOM     31  C   UNL     1       7.725   8.015  17.555  0.00  0.00    +0.000 C 
BRANCH  31  32
ATOM     32  C   UNL     1       8.631   8.721  18.564  0.00  0.00    +0.000 C 
BRANCH  32  34
ATOM     33  C   UNL     1       8.892  11.300  17.971  0.00  0.00    +0.000 C 
ATOM     34  C   UNL     1       8.769  10.140  18.226  0.00  0.00    +0.000 C 
ENDBRANCH  32  34
ENDBRANCH  31  32
ENDBRANCH  30  31
ENDBRANCH  27  30
ENDBRANCH  26  27
ENDBRANCH  23  26
ENDBRANCH  22  23
ENDBRANCH  21  22
ENDBRANCH  19  21
ENDBRANCH   1  19
TORSDOF 23
ENDMDL
MODEL 7
REMARK VINA RESULT:      -6.0      2.231      2.989
REMARK  Name = 
REMARK  26 active torsions:
REMARK  status: ('A' for Active; 'I' for Inactive)
REMARK    1  A    between atoms: C_2  and  C_3
REMARK    2  A    between atoms: C_3  and  C_4
REMARK    3  A    between atoms: C_4  and  C_5
REMARK    4  A    between atoms: C_5  and  C_6
REMARK    5  A    between atoms: C_6  and  C_9
REMARK    6  A    between atoms: C_9  and  C_10
REMARK    7  A    between atoms: C_10  and  O_11
REMARK    8  A    between atoms: C_10  and  C_12
REMARK    9  A    between atoms: C_12  and  C_13
REMARK   10  A    between atoms: C_13  and  C_14
REMARK   11  A    between atoms: C_14  and  C_15
REMARK   12  A    between atoms: C_14  and  C_16
REMARK   13  A    between atoms: C_16  and  C_17
REMARK   14  A    between atoms: C_17  and  C_18
REMARK   15  A    between atoms: C_17  and  C_19
REMARK   16  A    between atoms: C_19  and  O_20
REMARK   17  A    between atoms: C_19  and  C_21
REMARK   18  A    between atoms: C_21  and  C_22
REMARK   19  A    between atoms: C_22  and  C_23
REMARK   20  A    between atoms: C_23  and  C_24
REMARK   21  A    between atoms: C_24  and  C_25
REMARK   22  A    between atoms: C_25  and  C_26
REMARK   23  A    between atoms: C_25  and  C_27
REMARK   24  A    between atoms: C_27  and  O_28
REMARK   25  A    between atoms: C_27  and  C_29
REMARK   26  A    between atoms: C_29  and  C_30
REMARK                            x       y       z     vdW  Elec       q    Type
REMARK                         _______ _______ _______ _____ _____    ______ ____
ROOT
ATOM      1  C   UNL     1       1.693   4.969  20.262  0.00  0.00    +0.000 C 
ENDROOT
BRANCH   1   2
ATOM      2  C   UNL     1       1.614   3.452  19.952  0.00  0.00    +0.000 C 
ATOM      3  C   UNL     1       0.191   2.893  19.982  0.00  0.00    +0.000 C 
BRANCH   2   4
ATOM      4  C   UNL     1       2.567   2.633  20.847  0.00  0.00    +0.000 C 
BRANCH   4   5
ATOM      5  O   UNL     1       2.206   2.812  22.218  0.00  0.00    +0.000 OA
ATOM      6  H   UNL     1       1.737   2.016  22.524  0.00  0.00    +0.000 HD
ENDBRANCH   4   5
BRANCH   4   7
ATOM      7  C   UNL     1       4.068   2.912  20.653  0.00  0.00    +0.000 C 
BRANCH   7   8
ATOM      8  C   UNL     1       4.569   2.483  19.268  0.00  0.00    +0.000 C 
BRANCH   8   9
ATOM      9  C   UNL     1       4.755   3.689  18.352  0.00  0.00    +0.000 C 
BRANCH   9  10
ATOM     10  C   UNL     1       5.469   4.837  19.050  0.00  0.00    +0.000 C 
BRANCH  10  11
ATOM     11  C   UNL     1       6.517   5.513  18.141  0.00  0.00    +0.000 C 
ATOM     12  C   UNL     1       5.970   6.864  17.669  0.00  0.00    +0.000 C 
BRANCH  11  13
ATOM     13  C   UNL     1       7.006   4.620  16.971  0.00  0.00    +0.000 C 
BRANCH  13  14
ATOM     14  O   UNL     1       8.251   4.017  17.350  0.00  0.00    +0.000 OA
ATOM     15  H   UNL     1       8.138   3.053  17.355  0.00  0.00    +0.000 HD
ENDBRANCH  13  14
BRANCH  13  16
ATOM     16  C   UNL     1       7.133   5.361  15.624  0.00  0.00    +0.000 C 
BRANCH  16  17
ATOM     17  C   UNL     1       6.066   4.946  14.645  0.00  0.00    +0.000 C 
ATOM     18  C   UNL     1       6.007   3.742  14.059  0.00  0.00    +0.000 C 
ENDBRANCH  16  17
ENDBRANCH  13  16
ENDBRANCH  11  13
ENDBRANCH  10  11
ENDBRANCH   9  10
ENDBRANCH   8   9
ENDBRANCH   7   8
ENDBRANCH   4   7
ENDBRANCH   2   4
ENDBRANCH   1   2
BRANCH   1  19
ATOM     19  C   UNL     1       1.626   5.902  19.028  0.00  0.00    +0.000 C 
ATOM     20  C   UNL     1       1.989   5.150  17.740  0.00  0.00    +0.000 C 
BRANCH  19  21
ATOM     21  C   UNL     1       2.527   7.144  19.240  0.00  0.00    +0.000 C 
BRANCH  21  22
ATOM     22  C   UNL     1       1.719   8.449  19.217  0.00  0.00    +0.000 C 
BRANCH  22  23
ATOM     23  C   UNL     1       1.037   8.792  20.553  0.00  0.00    +0.000 C 
BRANCH  23  24
ATOM     24  O   UNL     1       1.818   8.294  21.641  0.00  0.00    +0.000 OA
ATOM     25  H   UNL     1       1.968   9.013  22.278  0.00  0.00    +0.000 HD
ENDBRANCH  23  24
BRANCH  23  26
ATOM     26  C   UNL     1       0.894  10.326  20.648  0.00  0.00    +0.000 C 
BRANCH  26  27
ATOM     27  C   UNL     1      -0.500  10.863  20.927  0.00  0.00    +0.000 C 
ATOM     28  C   UNL     1      -1.102  10.741  22.118  0.00  0.00    +0.000 C 
ATOM     29 CL   UNL     1      -0.410  10.020  23.511  0.00  0.00    +0.000 Cl
BRANCH  27  30
ATOM     30  C   UNL     1      -1.244  11.529  19.778  0.00  0.00    +0.000 C 
BRANCH  30  31
ATOM     31  C   UNL     1      -0.657  11.303  18.380  0.00  0.00    +0.000 C 
BRANCH  31  32
ATOM     32  C   UNL     1      -1.259  10.097  17.658  0.00  0.00    +0.000 C 
BRANCH  32  34
ATOM     33  C   UNL     1      -3.033  10.866  15.833  0.00  0.00    +0.000 C 
ATOM     34  C   UNL     1      -2.237  10.532  16.658  0.00  0.00    +0.000 C 
ENDBRANCH  32  34
ENDBRANCH  31  32
ENDBRANCH  30  31
ENDBRANCH  27  30
ENDBRANCH  26  27
ENDBRANCH  23  26
ENDBRANCH  22  23
ENDBRANCH  21  22
ENDBRANCH  19  21
ENDBRANCH   1  19
TORSDOF 23
ENDMDL
MODEL 8
REMARK VINA RESULT:      -5.9      2.827      9.065
REMARK  Name = 
REMARK  26 active torsions:
REMARK  status: ('A' for Active; 'I' for Inactive)
REMARK    1  A    between atoms: C_2  and  C_3
REMARK    2  A    between atoms: C_3  and  C_4
REMARK    3  A    between atoms: C_4  and  C_5
REMARK    4  A    between atoms: C_5  and  C_6
REMARK    5  A    between atoms: C_6  and  C_9
REMARK    6  A    between atoms: C_9  and  C_10
REMARK    7  A    between atoms: C_10  and  O_11
REMARK    8  A    between atoms: C_10  and  C_12
REMARK    9  A    between atoms: C_12  and  C_13
REMARK   10  A    between atoms: C_13  and  C_14
REMARK   11  A    between atoms: C_14  and  C_15
REMARK   12  A    between atoms: C_14  and  C_16
REMARK   13  A    between atoms: C_16  and  C_17
REMARK   14  A    between atoms: C_17  and  C_18
REMARK   15  A    between atoms: C_17  and  C_19
REMARK   16  A    between atoms: C_19  and  O_20
REMARK   17  A    between atoms: C_19  and  C_21
REMARK   18  A    between atoms: C_21  and  C_22
REMARK   19  A    between atoms: C_22  and  C_23
REMARK   20  A    between atoms: C_23  and  C_24
REMARK   21  A    between atoms: C_24  and  C_25
REMARK   22  A    between atoms: C_25  and  C_26
REMARK   23  A    between atoms: C_25  and  C_27
REMARK   24  A    between atoms: C_27  and  O_28
REMARK   25  A    between atoms: C_27  and  C_29
REMARK   26  A    between atoms: C_29  and  C_30
REMARK                            x       y       z     vdW  Elec       q    Type
REMARK                         _______ _______ _______ _____ _____    ______ ____
ROOT
ATOM      1  C   UNL     1       1.304   3.941  19.093  0.00  0.00    +0.000 C 
ENDROOT
BRANCH   1   2
ATOM      2  C   UNL     1       2.174   4.251  20.338  0.00  0.00    +0.000 C 
ATOM      3  C   UNL     1       1.718   3.520  21.601  0.00  0.00    +0.000 C 
BRANCH   2   4
ATOM      4  C   UNL     1       2.314   5.768  20.577  0.00  0.00    +0.000 C 
BRANCH   4   5
ATOM      5  O   UNL     1       1.098   6.280  21.127  0.00  0.00    +0.000 OA
ATOM      6  H   UNL     1       0.533   5.530  21.387  0.00  0.00    +0.000 HD
ENDBRANCH   4   5
BRANCH   4   7
ATOM      7  C   UNL     1       2.734   6.600  19.352  0.00  0.00    +0.000 C 
BRANCH   7   8
ATOM      8  C   UNL     1       2.103   7.998  19.350  0.00  0.00    +0.000 C 
BRANCH   8   9
ATOM      9  C   UNL     1       1.962   8.537  17.930  0.00  0.00    +0.000 C 
BRANCH   9  10
ATOM     10  C   UNL     1       1.571  10.007  17.909  0.00  0.00    +0.000 C 
BRANCH  10  11
ATOM     11  C   UNL     1       0.308  10.288  18.750  0.00  0.00    +0.000 C 
ATOM     12  C   UNL     1      -0.932   9.959  17.913  0.00  0.00    +0.000 C 
BRANCH  11  13
ATOM     13  C   UNL     1       0.261  11.714  19.360  0.00  0.00    +0.000 C 
BRANCH  13  14
ATOM     14  O   UNL     1       1.409  12.441  18.900  0.00  0.00    +0.000 OA
ATOM     15  H   UNL     1       1.133  13.031  18.180  0.00  0.00    +0.000 HD
ENDBRANCH  13  14
BRANCH  13  16
ATOM     16  C   UNL     1       0.166  11.738  20.899  0.00  0.00    +0.000 C 
BRANCH  16  17
ATOM     17  C   UNL     1       0.182  10.353  21.491  0.00  0.00    +0.000 C 
ATOM     18  C   UNL     1      -0.323  10.040  22.691  0.00  0.00    +0.000 C 
ENDBRANCH  16  17
ENDBRANCH  13  16
ENDBRANCH  11  13
ENDBRANCH  10  11
ENDBRANCH   9  10
ENDBRANCH   8   9
ENDBRANCH   7   8
ENDBRANCH   4   7
ENDBRANCH   2   4
ENDBRANCH   1   2
BRANCH   1  19
ATOM     19  C   UNL     1       1.562   2.566  18.429  0.00  0.00    +0.000 C 
ATOM     20  C   UNL     1       1.974   1.514  19.468  0.00  0.00    +0.000 C 
BRANCH  19  21
ATOM     21  C   UNL     1       2.613   2.699  17.299  0.00  0.00    +0.000 C 
BRANCH  21  22
ATOM     22  C   UNL     1       3.269   4.087  17.288  0.00  0.00    +0.000 C 
BRANCH  22  23
ATOM     23  C   UNL     1       4.773   4.077  17.612  0.00  0.00    +0.000 C 
BRANCH  23  24
ATOM     24  O   UNL     1       5.020   3.265  18.760  0.00  0.00    +0.000 OA
ATOM     25  H   UNL     1       5.073   3.836  19.546  0.00  0.00    +0.000 HD
ENDBRANCH  23  24
BRANCH  23  26
ATOM     26  C   UNL     1       5.531   3.524  16.386  0.00  0.00    +0.000 C 
BRANCH  26  27
ATOM     27  C   UNL     1       5.863   4.518  15.286  0.00  0.00    +0.000 C 
ATOM     28  C   UNL     1       6.616   5.608  15.493  0.00  0.00    +0.000 C 
ATOM     29 CL   UNL     1       7.355   6.037  16.978  0.00  0.00    +0.000 Cl
BRANCH  27  30
ATOM     30  C   UNL     1       5.271   4.269  13.906  0.00  0.00    +0.000 C 
BRANCH  30  31
ATOM     31  C   UNL     1       6.231   3.693  12.859  0.00  0.00    +0.000 C 
BRANCH  31  32
ATOM     32  C   UNL     1       5.591   2.624  11.973  0.00  0.00    +0.000 C 
BRANCH  32  34
ATOM     33  C   UNL     1       3.438   3.585  10.743  0.00  0.00    +0.000 C 
ATOM     34  C   UNL     1       4.413   3.162  11.289  0.00  0.00    +0.000 C 
ENDBRANCH  32  34
ENDBRANCH  31  32
ENDBRANCH  30  31
ENDBRANCH  27  30
ENDBRANCH  26  27
ENDBRANCH  23  26
ENDBRANCH  22  23
ENDBRANCH  21  22
ENDBRANCH  19  21
ENDBRANCH   1  19
TORSDOF 23
ENDMDL
MODEL 9
REMARK VINA RESULT:      -5.9      2.904      4.231
REMARK  Name = 
REMARK  26 active torsions:
REMARK  status: ('A' for Active; 'I' for Inactive)
REMARK    1  A    between atoms: C_2  and  C_3
REMARK    2  A    between atoms: C_3  and  C_4
REMARK    3  A    between atoms: C_4  and  C_5
REMARK    4  A    between atoms: C_5  and  C_6
REMARK    5  A    between atoms: C_6  and  C_9
REMARK    6  A    between atoms: C_9  and  C_10
REMARK    7  A    between atoms: C_10  and  O_11
REMARK    8  A    between atoms: C_10  and  C_12
REMARK    9  A    between atoms: C_12  and  C_13
REMARK   10  A    between atoms: C_13  and  C_14
REMARK   11  A    between atoms: C_14  and  C_15
REMARK   12  A    between atoms: C_14  and  C_16
REMARK   13  A    between atoms: C_16  and  C_17
REMARK   14  A    between atoms: C_17  and  C_18
REMARK   15  A    between atoms: C_17  and  C_19
REMARK   16  A    between atoms: C_19  and  O_20
REMARK   17  A    between atoms: C_19  and  C_21
REMARK   18  A    between atoms: C_21  and  C_22
REMARK   19  A    between atoms: C_22  and  C_23
REMARK   20  A    between atoms: C_23  and  C_24
REMARK   21  A    between atoms: C_24  and  C_25
REMARK   22  A    between atoms: C_25  and  C_26
REMARK   23  A    between atoms: C_25  and  C_27
REMARK   24  A    between atoms: C_27  and  O_28
REMARK   25  A    between atoms: C_27  and  C_29
REMARK   26  A    between atoms: C_29  and  C_30
REMARK                            x       y       z     vdW  Elec       q    Type
REMARK                         _______ _______ _______ _____ _____    ______ ____
ROOT
ATOM      1  C   UNL     1       2.860   5.655  19.779  0.00  0.00    +0.000 C 
ENDROOT
BRANCH   1   2
ATOM      2  C   UNL     1       1.822   4.659  20.355  0.00  0.00    +0.000 C 
ATOM      3  C   UNL     1       2.433   3.601  21.276  0.00  0.00    +0.000 C 
BRANCH   2   4
ATOM      4  C   UNL     1       0.962   4.020  19.245  0.00  0.00    +0.000 C 
BRANCH   4   5
ATOM      5  O   UNL     1       0.487   2.744  19.684  0.00  0.00    +0.000 OA
ATOM      6  H   UNL     1       1.216   2.102  19.622  0.00  0.00    +0.000 HD
ENDBRANCH   4   5
BRANCH   4   7
ATOM      7  C   UNL     1       1.640   3.888  17.870  0.00  0.00    +0.000 C 
BRANCH   7   8
ATOM      8  C   UNL     1       2.413   2.572  17.722  0.00  0.00    +0.000 C 
BRANCH   8   9
ATOM      9  C   UNL     1       3.919   2.816  17.707  0.00  0.00    +0.000 C 
BRANCH   9  10
ATOM     10  C   UNL     1       4.295   4.044  16.891  0.00  0.00    +0.000 C 
BRANCH  10  11
ATOM     11  C   UNL     1       5.810   4.331  16.930  0.00  0.00    +0.000 C 
ATOM     12  C   UNL     1       6.132   5.135  18.195  0.00  0.00    +0.000 C 
BRANCH  11  13
ATOM     13  C   UNL     1       6.360   4.995  15.640  0.00  0.00    +0.000 C 
BRANCH  13  14
ATOM     14  O   UNL     1       5.450   6.029  15.240  0.00  0.00    +0.000 OA
ATOM     15  H   UNL     1       4.688   6.020  15.842  0.00  0.00    +0.000 HD
ENDBRANCH  13  14
BRANCH  13  16
ATOM     16  C   UNL     1       6.622   4.005  14.486  0.00  0.00    +0.000 C 
BRANCH  16  17
ATOM     17  C   UNL     1       5.560   4.082  13.420  0.00  0.00    +0.000 C 
ATOM     18  C   UNL     1       5.540   3.318  12.320  0.00  0.00    +0.000 C 
ENDBRANCH  16  17
ENDBRANCH  13  16
ENDBRANCH  11  13
ENDBRANCH  10  11
ENDBRANCH   9  10
ENDBRANCH   8   9
ENDBRANCH   7   8
ENDBRANCH   4   7
ENDBRANCH   2   4
ENDBRANCH   1   2
BRANCH   1  19
ATOM     19  C   UNL     1       2.264   6.896  19.069  0.00  0.00    +0.000 C 
ATOM     20  C   UNL     1       3.211   7.424  17.982  0.00  0.00    +0.000 C 
BRANCH  19  21
ATOM     21  C   UNL     1       1.909   7.993  20.103  0.00  0.00    +0.000 C 
BRANCH  21  22
ATOM     22  C   UNL     1       0.882   8.991  19.550  0.00  0.00    +0.000 C 
BRANCH  22  23
ATOM     23  C   UNL     1      -0.023   9.624  20.621  0.00  0.00    +0.000 C 
BRANCH  23  24
ATOM     24  O   UNL     1      -0.312   8.668  21.642  0.00  0.00    +0.000 OA
ATOM     25  H   UNL     1       0.131   8.939  22.464  0.00  0.00    +0.000 HD
ENDBRANCH  23  24
BRANCH  23  26
ATOM     26  C   UNL     1       0.707  10.847  21.216  0.00  0.00    +0.000 C 
BRANCH  26  27
ATOM     27  C   UNL     1       0.272  12.212  20.708  0.00  0.00    +0.000 C 
ATOM     28  C   UNL     1      -0.516  13.033  21.415  0.00  0.00    +0.000 C 
ATOM     29 CL   UNL     1      -1.119  12.721  22.988  0.00  0.00    +0.000 Cl
BRANCH  27  30
ATOM     30  C   UNL     1       0.730  12.627  19.317  0.00  0.00    +0.000 C 
BRANCH  30  31
ATOM     31  C   UNL     1       1.450  13.976  19.224  0.00  0.00    +0.000 C 
BRANCH  31  32
ATOM     32  C   UNL     1       2.687  13.942  18.326  0.00  0.00    +0.000 C 
BRANCH  32  34
ATOM     33  C   UNL     1       3.393  16.398  17.591  0.00  0.00    +0.000 C 
ATOM     34  C   UNL     1       3.064  15.298  17.918  0.00  0.00    +0.000 C 
ENDBRANCH  32  34
ENDBRANCH  31  32
ENDBRANCH  30  31
ENDBRANCH  27  30
ENDBRANCH  26  27
ENDBRANCH  23  26
ENDBRANCH  22  23
ENDBRANCH  21  22
ENDBRANCH  19  21
ENDBRANCH   1  19
TORSDOF 23
ENDMDL
