MODEL 1
REMARK VINA RESULT:      -6.6      0.000      0.000
REMARK  Name = 
REMARK  4 active torsions:
REMARK  status: ('A' for Active; 'I' for Inactive)
REMARK    1  A    between atoms: C_1  and  C_2
REMARK    2  A    between atoms: C_2  and  C_3
REMARK    3  A    between atoms: C_2  and  N_5
REMARK    4  A    between atoms: C_3  and  O_4
REMARK                            x       y       z     vdW  Elec       q    Type
REMARK                         _______ _______ _______ _____ _____    ______ ____
ROOT
ATOM      1  N   UNL     1       4.332   4.327  17.466  0.00  0.00    +0.000 N 
ATOM      2  C   UNL     1       2.999   3.937  17.450  0.00  0.00    +0.000 C 
ATOM      3  O   UNL     1       2.312   3.633  16.508  0.00  0.00    +0.000 OA
ATOM      4  C   UNL     1       2.568   4.022  18.876  0.00  0.00    +0.000 C 
ATOM      5  C   UNL     1       3.826   3.452  19.501  0.00  0.00    +0.000 C 
ATOM      6  C   UNL     1       4.844   4.281  18.782  0.00  0.00    +0.000 C 
ATOM      7  O   UNL     1       5.878   4.777  19.200  0.00  0.00    +0.000 OA
ATOM      8  C   UNL     1       3.275   2.473  20.528  0.00  0.00    +0.000 C 
ATOM      9  C   UNL     1       2.368   2.975  21.632  0.00  0.00    +0.000 C 
ATOM     10  C   UNL     1       1.193   3.584  20.858  0.00  0.00    +0.000 C 
ATOM     11  C   UNL     1       1.480   3.140  19.419  0.00  0.00    +0.000 C 
ATOM     12  O   UNL     1       2.199   1.902  19.669  0.00  0.00    +0.000 OA
ENDROOT
BRANCH   1  14
ATOM     13  C   UNL     1       5.263   6.250  16.183  0.00  0.00    +0.000 C 
ATOM     14  C   UNL     1       5.059   4.732  16.274  0.00  0.00    +0.000 C 
BRANCH  14  15
ATOM     15  C   UNL     1       6.388   3.953  16.165  0.00  0.00    +0.000 C 
BRANCH  15  16
ATOM     16  O   UNL     1       7.551   4.652  16.593  0.00  0.00    +0.000 OA
ATOM     17  H   UNL     1       7.537   5.564  16.249  0.00  0.00    +0.000 HD
ENDBRANCH  15  16
ENDBRANCH  14  15
ENDBRANCH   1  14
TORSDOF 3
ENDMDL
MODEL 2
REMARK VINA RESULT:      -6.6      1.985      5.147
REMARK  Name = 
REMARK  4 active torsions:
REMARK  status: ('A' for Active; 'I' for Inactive)
REMARK    1  A    between atoms: C_1  and  C_2
REMARK    2  A    between atoms: C_2  and  C_3
REMARK    3  A    between atoms: C_2  and  N_5
REMARK    4  A    between atoms: C_3  and  O_4
REMARK                            x       y       z     vdW  Elec       q    Type
REMARK                         _______ _______ _______ _____ _____    ______ ____
ROOT
ATOM      1  N   UNL     1       3.680   4.636  18.975  0.00  0.00    +0.000 N 
ATOM      2  C   UNL     1       4.959   4.175  19.257  0.00  0.00    +0.000 C 
ATOM      3  O   UNL     1       5.306   3.080  19.623  0.00  0.00    +0.000 OA
ATOM      4  C   UNL     1       5.837   5.364  19.053  0.00  0.00    +0.000 C 
ATOM      5  C   UNL     1       5.161   5.903  17.808  0.00  0.00    +0.000 C 
ATOM      6  C   UNL     1       3.740   5.860  18.274  0.00  0.00    +0.000 C 
ATOM      7  O   UNL     1       2.835   6.658  18.083  0.00  0.00    +0.000 OA
ATOM      8  C   UNL     1       6.340   6.239  16.906  0.00  0.00    +0.000 C 
ATOM      9  C   UNL     1       7.378   7.242  17.368  0.00  0.00    +0.000 C 
ATOM     10  C   UNL     1       7.913   6.608  18.657  0.00  0.00    +0.000 C 
ATOM     11  C   UNL     1       7.273   5.215  18.632  0.00  0.00    +0.000 C 
ATOM     12  O   UNL     1       7.141   5.017  17.199  0.00  0.00    +0.000 OA
ENDROOT
BRANCH   1  14
ATOM     13  C   UNL     1       1.547   4.782  20.257  0.00  0.00    +0.000 C 
ATOM     14  C   UNL     1       2.473   3.932  19.376  0.00  0.00    +0.000 C 
BRANCH  14  15
ATOM     15  C   UNL     1       1.746   3.364  18.137  0.00  0.00    +0.000 C 
BRANCH  15  16
ATOM     16  O   UNL     1       1.088   4.320  17.314  0.00  0.00    +0.000 OA
ATOM     17  H   UNL     1       0.173   4.033  17.137  0.00  0.00    +0.000 HD
ENDBRANCH  15  16
ENDBRANCH  14  15
ENDBRANCH   1  14
TORSDOF 3
ENDMDL
MODEL 3
REMARK VINA RESULT:      -6.6      1.622      4.978
REMARK  Name = 
REMARK  4 active torsions:
REMARK  status: ('A' for Active; 'I' for Inactive)
REMARK    1  A    between atoms: C_1  and  C_2
REMARK    2  A    between atoms: C_2  and  C_3
REMARK    3  A    between atoms: C_2  and  N_5
REMARK    4  A    between atoms: C_3  and  O_4
REMARK                            x       y       z     vdW  Elec       q    Type
REMARK                         _______ _______ _______ _____ _____    ______ ____
ROOT
ATOM      1  N   UNL     1       2.905   4.211  19.087  0.00  0.00    +0.000 N 
ATOM      2  C   UNL     1       3.007   5.234  18.154  0.00  0.00    +0.000 C 
ATOM      3  O   UNL     1       2.337   6.231  18.047  0.00  0.00    +0.000 OA
ATOM      4  C   UNL     1       4.119   4.810  17.254  0.00  0.00    +0.000 C 
ATOM      5  C   UNL     1       5.045   4.262  18.322  0.00  0.00    +0.000 C 
ATOM      6  C   UNL     1       4.066   3.407  19.066  0.00  0.00    +0.000 C 
ATOM      7  O   UNL     1       4.220   2.303  19.563  0.00  0.00    +0.000 OA
ATOM      8  C   UNL     1       6.396   4.837  17.923  0.00  0.00    +0.000 C 
ATOM      9  C   UNL     1       6.977   4.511  16.562  0.00  0.00    +0.000 C 
ATOM     10  C   UNL     1       5.913   5.048  15.599  0.00  0.00    +0.000 C 
ATOM     11  C   UNL     1       4.975   5.817  16.537  0.00  0.00    +0.000 C 
ATOM     12  O   UNL     1       5.911   6.204  17.579  0.00  0.00    +0.000 OA
ENDROOT
BRANCH   1  14
ATOM     13  C   UNL     1       0.889   2.814  19.528  0.00  0.00    +0.000 C 
ATOM     14  C   UNL     1       1.743   4.021  19.938  0.00  0.00    +0.000 C 
BRANCH  14  15
ATOM     15  C   UNL     1       2.167   3.963  21.422  0.00  0.00    +0.000 C 
BRANCH  15  16
ATOM     16  O   UNL     1       2.299   2.659  21.977  0.00  0.00    +0.000 OA
ATOM     17  H   UNL     1       2.795   2.085  21.364  0.00  0.00    +0.000 HD
ENDBRANCH  15  16
ENDBRANCH  14  15
ENDBRANCH   1  14
TORSDOF 3
ENDMDL
MODEL 4
REMARK VINA RESULT:      -6.6      1.502      4.787
REMARK  Name = 
REMARK  4 active torsions:
REMARK  status: ('A' for Active; 'I' for Inactive)
REMARK    1  A    between atoms: C_1  and  C_2
REMARK    2  A    between atoms: C_2  and  C_3
REMARK    3  A    between atoms: C_2  and  N_5
REMARK    4  A    between atoms: C_3  and  O_4
REMARK                            x       y       z     vdW  Elec       q    Type
REMARK                         _______ _______ _______ _____ _____    ______ ____
ROOT
ATOM      1  N   UNL     1       3.193   3.758  19.198  0.00  0.00    +0.000 N 
ATOM      2  C   UNL     1       3.164   4.600  18.094  0.00  0.00    +0.000 C 
ATOM      3  O   UNL     1       2.303   5.372  17.753  0.00  0.00    +0.000 OA
ATOM      4  C   UNL     1       4.435   4.309  17.369  0.00  0.00    +0.000 C 
ATOM      5  C   UNL     1       5.337   4.192  18.582  0.00  0.00    +0.000 C 
ATOM      6  C   UNL     1       4.499   3.266  19.409  0.00  0.00    +0.000 C 
ATOM      7  O   UNL     1       4.842   2.333  20.119  0.00  0.00    +0.000 OA
ATOM      8  C   UNL     1       6.560   4.998  18.170  0.00  0.00    +0.000 C 
ATOM      9  C   UNL     1       7.346   4.594  16.939  0.00  0.00    +0.000 C 
ATOM     10  C   UNL     1       6.300   4.686  15.822  0.00  0.00    +0.000 C 
ATOM     11  C   UNL     1       5.116   5.354  16.531  0.00  0.00    +0.000 C 
ATOM     12  O   UNL     1       5.822   6.128  17.538  0.00  0.00    +0.000 OA
ENDROOT
BRANCH   1  14
ATOM     13  C   UNL     1       1.366   4.683  20.619  0.00  0.00    +0.000 C 
ATOM     14  C   UNL     1       2.016   3.443  19.990  0.00  0.00    +0.000 C 
BRANCH  14  15
ATOM     15  C   UNL     1       1.014   2.613  19.158  0.00  0.00    +0.000 C 
BRANCH  15  16
ATOM     16  O   UNL     1       1.564   1.507  18.451  0.00  0.00    +0.000 OA
ATOM     17  H   UNL     1       2.021   1.819  17.648  0.00  0.00    +0.000 HD
ENDBRANCH  15  16
ENDBRANCH  14  15
ENDBRANCH   1  14
TORSDOF 3
ENDMDL
MODEL 5
REMARK VINA RESULT:      -6.5      2.006      2.600
REMARK  Name = 
REMARK  4 active torsions:
REMARK  status: ('A' for Active; 'I' for Inactive)
REMARK    1  A    between atoms: C_1  and  C_2
REMARK    2  A    between atoms: C_2  and  C_3
REMARK    3  A    between atoms: C_2  and  N_5
REMARK    4  A    between atoms: C_3  and  O_4
REMARK                            x       y       z     vdW  Elec       q    Type
REMARK                         _______ _______ _______ _____ _____    ______ ____
ROOT
ATOM      1  N   UNL     1       5.188   4.441  18.847  0.00  0.00    +0.000 N 
ATOM      2  C   UNL     1       4.674   3.301  19.449  0.00  0.00    +0.000 C 
ATOM      3  O   UNL     1       5.264   2.347  19.891  0.00  0.00    +0.000 OA
ATOM      4  C   UNL     1       3.194   3.483  19.393  0.00  0.00    +0.000 C 
ATOM      5  C   UNL     1       3.160   4.960  19.731  0.00  0.00    +0.000 C 
ATOM      6  C   UNL     1       4.199   5.446  18.769  0.00  0.00    +0.000 C 
ATOM      7  O   UNL     1       4.220   6.467  18.098  0.00  0.00    +0.000 OA
ATOM      8  C   UNL     1       2.037   5.044  20.755  0.00  0.00    +0.000 C 
ATOM      9  C   UNL     1       0.640   4.600  20.375  0.00  0.00    +0.000 C 
ATOM     10  C   UNL     1       0.842   3.130  19.990  0.00  0.00    +0.000 C 
ATOM     11  C   UNL     1       2.289   2.870  20.425  0.00  0.00    +0.000 C 
ATOM     12  O   UNL     1       2.405   3.818  21.520  0.00  0.00    +0.000 OA
ENDROOT
BRANCH   1  14
ATOM     13  C   UNL     1       6.648   4.631  16.836  0.00  0.00    +0.000 C 
ATOM     14  C   UNL     1       6.556   4.541  18.365  0.00  0.00    +0.000 C 
BRANCH  14  15
ATOM     15  C   UNL     1       7.289   5.705  19.067  0.00  0.00    +0.000 C 
BRANCH  15  16
ATOM     16  O   UNL     1       7.786   5.426  20.371  0.00  0.00    +0.000 OA
ATOM     17  H   UNL     1       7.912   6.257  20.864  0.00  0.00    +0.000 HD
ENDBRANCH  15  16
ENDBRANCH  14  15
ENDBRANCH   1  14
TORSDOF 3
ENDMDL
MODEL 6
REMARK VINA RESULT:      -6.5      1.859      5.179
REMARK  Name = 
REMARK  4 active torsions:
REMARK  status: ('A' for Active; 'I' for Inactive)
REMARK    1  A    between atoms: C_1  and  C_2
REMARK    2  A    between atoms: C_2  and  C_3
REMARK    3  A    between atoms: C_2  and  N_5
REMARK    4  A    between atoms: C_3  and  O_4
REMARK                            x       y       z     vdW  Elec       q    Type
REMARK                         _______ _______ _______ _____ _____    ______ ____
ROOT
ATOM      1  N   UNL     1       3.317   4.305  19.237  0.00  0.00    +0.000 N 
ATOM      2  C   UNL     1       4.616   3.864  19.450  0.00  0.00    +0.000 C 
ATOM      3  O   UNL     1       4.995   2.798  19.867  0.00  0.00    +0.000 OA
ATOM      4  C   UNL     1       5.470   5.033  19.091  0.00  0.00    +0.000 C 
ATOM      5  C   UNL     1       4.697   5.480  17.867  0.00  0.00    +0.000 C 
ATOM      6  C   UNL     1       3.316   5.474  18.445  0.00  0.00    +0.000 C 
ATOM      7  O   UNL     1       2.395   6.257  18.268  0.00  0.00    +0.000 OA
ATOM      8  C   UNL     1       5.799   5.748  16.852  0.00  0.00    +0.000 C 
ATOM      9  C   UNL     1       6.866   6.779  17.157  0.00  0.00    +0.000 C 
ATOM     10  C   UNL     1       7.503   6.241  18.442  0.00  0.00    +0.000 C 
ATOM     11  C   UNL     1       6.869   4.851  18.570  0.00  0.00    +0.000 C 
ATOM     12  O   UNL     1       6.625   4.548  17.170  0.00  0.00    +0.000 OA
ENDROOT
BRANCH   1  14
ATOM     13  C   UNL     1       1.967   2.209  19.240  0.00  0.00    +0.000 C 
ATOM     14  C   UNL     1       2.148   3.634  19.781  0.00  0.00    +0.000 C 
BRANCH  14  15
ATOM     15  C   UNL     1       2.174   3.677  21.325  0.00  0.00    +0.000 C 
BRANCH  15  16
ATOM     16  O   UNL     1       2.729   2.535  21.966  0.00  0.00    +0.000 OA
ATOM     17  H   UNL     1       3.085   2.783  22.839  0.00  0.00    +0.000 HD
ENDBRANCH  15  16
ENDBRANCH  14  15
ENDBRANCH   1  14
TORSDOF 3
ENDMDL
MODEL 7
REMARK VINA RESULT:      -6.5      1.443      5.159
REMARK  Name = 
REMARK  4 active torsions:
REMARK  status: ('A' for Active; 'I' for Inactive)
REMARK    1  A    between atoms: C_1  and  C_2
REMARK    2  A    between atoms: C_2  and  C_3
REMARK    3  A    between atoms: C_2  and  N_5
REMARK    4  A    between atoms: C_3  and  O_4
REMARK                            x       y       z     vdW  Elec       q    Type
REMARK                         _______ _______ _______ _____ _____    ______ ____
ROOT
ATOM      1  N   UNL     1       3.138   3.647  19.072  0.00  0.00    +0.000 N 
ATOM      2  C   UNL     1       4.511   3.658  19.272  0.00  0.00    +0.000 C 
ATOM      3  O   UNL     1       5.188   2.898  19.917  0.00  0.00    +0.000 OA
ATOM      4  C   UNL     1       4.986   4.869  18.540  0.00  0.00    +0.000 C 
ATOM      5  C   UNL     1       4.100   4.726  17.318  0.00  0.00    +0.000 C 
ATOM      6  C   UNL     1       2.788   4.502  18.004  0.00  0.00    +0.000 C 
ATOM      7  O   UNL     1       1.678   4.920  17.713  0.00  0.00    +0.000 OA
ATOM      8  C   UNL     1       5.064   4.992  16.171  0.00  0.00    +0.000 C 
ATOM      9  C   UNL     1       5.790   6.319  16.093  0.00  0.00    +0.000 C 
ATOM     10  C   UNL     1       6.573   6.358  17.410  0.00  0.00    +0.000 C 
ATOM     11  C   UNL     1       6.370   4.940  17.958  0.00  0.00    +0.000 C 
ATOM     12  O   UNL     1       6.206   4.204  16.715  0.00  0.00    +0.000 OA
ENDROOT
BRANCH   1  14
ATOM     13  C   UNL     1       1.271   3.724  20.721  0.00  0.00    +0.000 C 
ATOM     14  C   UNL     1       2.220   2.861  19.880  0.00  0.00    +0.000 C 
BRANCH  14  15
ATOM     15  C   UNL     1       1.463   1.844  18.998  0.00  0.00    +0.000 C 
BRANCH  15  16
ATOM     16  O   UNL     1       0.209   2.282  18.487  0.00  0.00    +0.000 OA
ATOM     17  H   UNL     1       0.260   3.224  18.242  0.00  0.00    +0.000 HD
ENDBRANCH  15  16
ENDBRANCH  14  15
ENDBRANCH   1  14
TORSDOF 3
ENDMDL
MODEL 8
REMARK VINA RESULT:      -6.3      1.301      5.215
REMARK  Name = 
REMARK  4 active torsions:
REMARK  status: ('A' for Active; 'I' for Inactive)
REMARK    1  A    between atoms: C_1  and  C_2
REMARK    2  A    between atoms: C_2  and  C_3
REMARK    3  A    between atoms: C_2  and  N_5
REMARK    4  A    between atoms: C_3  and  O_4
REMARK                            x       y       z     vdW  Elec       q    Type
REMARK                         _______ _______ _______ _____ _____    ______ ____
ROOT
ATOM      1  N   UNL     1       3.366   4.213  18.899  0.00  0.00    +0.000 N 
ATOM      2  C   UNL     1       4.433   5.094  18.777  0.00  0.00    +0.000 C 
ATOM      3  O   UNL     1       5.079   5.624  19.646  0.00  0.00    +0.000 OA
ATOM      4  C   UNL     1       4.588   5.291  17.306  0.00  0.00    +0.000 C 
ATOM      5  C   UNL     1       4.354   3.854  16.884  0.00  0.00    +0.000 C 
ATOM      6  C   UNL     1       3.105   3.580  17.664  0.00  0.00    +0.000 C 
ATOM      7  O   UNL     1       2.112   2.946  17.343  0.00  0.00    +0.000 OA
ATOM      8  C   UNL     1       5.463   3.617  15.869  0.00  0.00    +0.000 C 
ATOM      9  C   UNL     1       5.541   4.482  14.628  0.00  0.00    +0.000 C 
ATOM     10  C   UNL     1       5.699   5.894  15.205  0.00  0.00    +0.000 C 
ATOM     11  C   UNL     1       5.922   5.618  16.697  0.00  0.00    +0.000 C 
ATOM     12  O   UNL     1       6.545   4.307  16.627  0.00  0.00    +0.000 OA
ENDROOT
BRANCH   1  14
ATOM     13  C   UNL     1       1.129   4.263  19.998  0.00  0.00    +0.000 C 
ATOM     14  C   UNL     1       2.636   4.011  20.140  0.00  0.00    +0.000 C 
BRANCH  14  15
ATOM     15  C   UNL     1       2.946   2.615  20.723  0.00  0.00    +0.000 C 
BRANCH  15  16
ATOM     16  O   UNL     1       2.686   2.454  22.113  0.00  0.00    +0.000 OA
ATOM     17  H   UNL     1       3.260   1.757  22.481  0.00  0.00    +0.000 HD
ENDBRANCH  15  16
ENDBRANCH  14  15
ENDBRANCH   1  14
TORSDOF 3
ENDMDL
MODEL 9
REMARK VINA RESULT:      -6.3      2.190      5.217
REMARK  Name = 
REMARK  4 active torsions:
REMARK  status: ('A' for Active; 'I' for Inactive)
REMARK    1  A    between atoms: C_1  and  C_2
REMARK    2  A    between atoms: C_2  and  C_3
REMARK    3  A    between atoms: C_2  and  N_5
REMARK    4  A    between atoms: C_3  and  O_4
REMARK                            x       y       z     vdW  Elec       q    Type
REMARK                         _______ _______ _______ _____ _____    ______ ____
ROOT
ATOM      1  N   UNL     1       3.568   4.849  18.765  0.00  0.00    +0.000 N 
ATOM      2  C   UNL     1       4.795   4.288  19.092  0.00  0.00    +0.000 C 
ATOM      3  O   UNL     1       5.044   3.158  19.429  0.00  0.00    +0.000 OA
ATOM      4  C   UNL     1       5.763   5.417  18.983  0.00  0.00    +0.000 C 
ATOM      5  C   UNL     1       5.195   6.050  17.728  0.00  0.00    +0.000 C 
ATOM      6  C   UNL     1       3.750   6.092  18.120  0.00  0.00    +0.000 C 
ATOM      7  O   UNL     1       2.915   6.960  17.916  0.00  0.00    +0.000 OA
ATOM      8  C   UNL     1       6.441   6.335  16.902  0.00  0.00    +0.000 C 
ATOM      9  C   UNL     1       7.520   7.242  17.458  0.00  0.00    +0.000 C 
ATOM     10  C   UNL     1       7.940   6.523  18.745  0.00  0.00    +0.000 C 
ATOM     11  C   UNL     1       7.205   5.181  18.629  0.00  0.00    +0.000 C 
ATOM     12  O   UNL     1       7.137   5.047  17.184  0.00  0.00    +0.000 OA
ENDROOT
BRANCH   1  14
ATOM     13  C   UNL     1       2.105   2.871  18.365  0.00  0.00    +0.000 C 
ATOM     14  C   UNL     1       2.295   4.220  19.074  0.00  0.00    +0.000 C 
BRANCH  14  15
ATOM     15  C   UNL     1       2.105   4.111  20.602  0.00  0.00    +0.000 C 
BRANCH  15  16
ATOM     16  O   UNL     1       2.378   5.294  21.345  0.00  0.00    +0.000 OA
ATOM     17  H   UNL     1       2.535   6.040  20.737  0.00  0.00    +0.000 HD
ENDBRANCH  15  16
ENDBRANCH  14  15
ENDBRANCH   1  14
TORSDOF 3
ENDMDL
