MODEL 1
REMARK VINA RESULT:      -6.3      0.000      0.000
REMARK  Name = 
REMARK  12 active torsions:
REMARK  status: ('A' for Active; 'I' for Inactive)
REMARK    1  A    between atoms: C_1  and  C_2
REMARK    2  A    between atoms: C_2  and  S_4
REMARK    3  A    between atoms: S_4  and  C_5
REMARK    4  A    between atoms: C_5  and  C_6
REMARK    5  A    between atoms: C_6  and  O_7
REMARK    6  A    between atoms: O_7  and  P_8
REMARK    7  A    between atoms: P_8  and  O_10
REMARK    8  A    between atoms: P_8  and  C_11
REMARK    9  A    between atoms: C_11  and  O_12
REMARK   10  A    between atoms: O_12  and  C_13
REMARK   11  A    between atoms: C_13  and  C_14
REMARK   12  A    between atoms: C_14  and  N_15
REMARK                            x       y       z     vdW  Elec       q    Type
REMARK                         _______ _______ _______ _____ _____    ______ ____
ROOT
ATOM      1  C   UNL     1       8.092   8.658  17.918  0.00  0.00    +0.000 C 
ENDROOT
BRANCH   1   2
ATOM      2  O   UNL     1       7.982   7.315  18.415  0.00  0.00    +0.000 OA
BRANCH   2   3
ATOM      3  C   UNL     1       7.020   6.580  17.636  0.00  0.00    +0.000 C 
BRANCH   3   4
ATOM      4  P   UNL     1       6.394   5.104  18.521  0.00  0.00    +0.000 P 
ATOM      5  O   UNL     1       6.972   5.672  19.826  0.00  0.00    +0.000 OA
BRANCH   4   6
ATOM      6  O   UNL     1       7.625   4.188  17.931  0.00  0.00    +0.000 OA
ATOM      7  H   UNL     1       8.170   3.922  18.702  0.00  0.00    +0.000 HD
ENDBRANCH   4   6
BRANCH   4   8
ATOM      8  O   UNL     1       5.803   3.710  19.356  0.00  0.00    +0.000 OA
BRANCH   8   9
ATOM      9  C   UNL     1       4.452   3.317  19.119  0.00  0.00    +0.000 C 
BRANCH   9  10
ATOM     10  C   UNL     1       3.891   3.810  17.787  0.00  0.00    +0.000 C 
BRANCH  10  11
ATOM     11  S   UNL     1       2.115   4.152  18.004  0.00  0.00    +0.000 S 
BRANCH  11  13
ATOM     12  C   UNL     1       1.407   4.846  20.553  0.00  0.00    +0.000 C 
ATOM     13  C   UNL     1       2.168   5.295  19.333  0.00  0.00    +0.000 C 
ATOM     14  O   UNL     1       2.765   6.358  19.259  0.00  0.00    +0.000 OA
ENDBRANCH  11  13
ENDBRANCH  10  11
ENDBRANCH   9  10
ENDBRANCH   8   9
ENDBRANCH   4   8
ENDBRANCH   3   4
ENDBRANCH   2   3
ENDBRANCH   1   2
BRANCH   1  15
ATOM     15  C   UNL     1       9.001   9.494  18.812  0.00  0.00    +0.000 C 
BRANCH  15  16
ATOM     16  N   UNL     1       9.117  10.865  18.355  0.00  0.00    +0.000 N 
ATOM     17  C   UNL     1       8.138  11.576  17.714  0.00  0.00    +0.000 A 
ATOM     18  N   UNL     1       8.544  12.789  17.394  0.00  0.00    +0.000 NA
ATOM     19  C   UNL     1       9.835  12.865  17.877  0.00  0.00    +0.000 A 
ATOM     20  C   UNL     1      10.785  13.899  17.868  0.00  0.00    +0.000 A 
ATOM     21  N   UNL     1      10.531  15.157  17.335  0.00  0.00    +0.000 N 
ATOM     22  N   UNL     1      12.010  13.655  18.385  0.00  0.00    +0.000 NA
ATOM     23  C   UNL     1      12.246  12.435  18.920  0.00  0.00    +0.000 A 
ATOM     24  N   UNL     1      11.410  11.376  19.010  0.00  0.00    +0.000 NA
ATOM     25  C   UNL     1      10.219  11.668  18.462  0.00  0.00    +0.000 A 
ATOM     26  H   UNL     1       9.740  15.171  16.701  0.00  0.00    +0.000 HD
ATOM     27  H   UNL     1      11.373  15.641  17.060  0.00  0.00    +0.000 HD
ENDBRANCH  15  16
ENDBRANCH   1  15
TORSDOF 11
ENDMDL
MODEL 2
REMARK VINA RESULT:      -6.2      5.600      7.472
REMARK  Name = 
REMARK  12 active torsions:
REMARK  status: ('A' for Active; 'I' for Inactive)
REMARK    1  A    between atoms: C_1  and  C_2
REMARK    2  A    between atoms: C_2  and  S_4
REMARK    3  A    between atoms: S_4  and  C_5
REMARK    4  A    between atoms: C_5  and  C_6
REMARK    5  A    between atoms: C_6  and  O_7
REMARK    6  A    between atoms: O_7  and  P_8
REMARK    7  A    between atoms: P_8  and  O_10
REMARK    8  A    between atoms: P_8  and  C_11
REMARK    9  A    between atoms: C_11  and  O_12
REMARK   10  A    between atoms: O_12  and  C_13
REMARK   11  A    between atoms: C_13  and  C_14
REMARK   12  A    between atoms: C_14  and  N_15
REMARK                            x       y       z     vdW  Elec       q    Type
REMARK                         _______ _______ _______ _____ _____    ______ ____
ROOT
ATOM      1  C   UNL     1       2.612   4.820  20.598  0.00  0.00    +0.000 C 
ENDROOT
BRANCH   1   2
ATOM      2  O   UNL     1       1.944   3.574  20.338  0.00  0.00    +0.000 OA
BRANCH   2   3
ATOM      3  C   UNL     1       2.662   2.831  19.336  0.00  0.00    +0.000 C 
BRANCH   3   4
ATOM      4  P   UNL     1       4.380   3.429  19.128  0.00  0.00    +0.000 P 
ATOM      5  O   UNL     1       4.299   3.067  17.637  0.00  0.00    +0.000 OA
BRANCH   4   6
ATOM      6  O   UNL     1       4.975   2.059  19.815  0.00  0.00    +0.000 OA
ATOM      7  H   UNL     1       5.946   2.178  19.882  0.00  0.00    +0.000 HD
ENDBRANCH   4   6
BRANCH   4   8
ATOM      8  O   UNL     1       6.003   3.993  18.931  0.00  0.00    +0.000 OA
BRANCH   8   9
ATOM      9  C   UNL     1       6.291   5.335  19.320  0.00  0.00    +0.000 C 
BRANCH   9  10
ATOM     10  C   UNL     1       7.542   5.913  18.662  0.00  0.00    +0.000 C 
BRANCH  10  11
ATOM     11  S   UNL     1       7.019   7.032  17.323  0.00  0.00    +0.000 S 
BRANCH  11  13
ATOM     12  C   UNL     1       6.983   4.815  15.723  0.00  0.00    +0.000 C 
ATOM     13  C   UNL     1       6.134   5.918  16.299  0.00  0.00    +0.000 C 
ATOM     14  O   UNL     1       4.940   6.042  16.075  0.00  0.00    +0.000 OA
ENDBRANCH  11  13
ENDBRANCH  10  11
ENDBRANCH   9  10
ENDBRANCH   8   9
ENDBRANCH   4   8
ENDBRANCH   3   4
ENDBRANCH   2   3
ENDBRANCH   1   2
BRANCH   1  15
ATOM     15  C   UNL     1       1.604   5.953  20.752  0.00  0.00    +0.000 C 
BRANCH  15  16
ATOM     16  N   UNL     1       1.862   7.049  19.838  0.00  0.00    +0.000 N 
ATOM     17  C   UNL     1       2.579   6.964  18.675  0.00  0.00    +0.000 A 
ATOM     18  N   UNL     1       2.669   8.133  18.069  0.00  0.00    +0.000 NA
ATOM     19  C   UNL     1       1.953   8.998  18.871  0.00  0.00    +0.000 A 
ATOM     20  C   UNL     1       1.663  10.368  18.755  0.00  0.00    +0.000 A 
ATOM     21  N   UNL     1       2.076  11.141  17.677  0.00  0.00    +0.000 N 
ATOM     22  N   UNL     1       0.965  10.966  19.746  0.00  0.00    +0.000 NA
ATOM     23  C   UNL     1       0.549  10.205  20.784  0.00  0.00    +0.000 A 
ATOM     24  N   UNL     1       0.742   8.883  20.993  0.00  0.00    +0.000 NA
ATOM     25  C   UNL     1       1.458   8.348  19.991  0.00  0.00    +0.000 A 
ATOM     26  H   UNL     1       2.837  10.724  17.153  0.00  0.00    +0.000 HD
ATOM     27  H   UNL     1       2.131  12.124  17.902  0.00  0.00    +0.000 HD
ENDBRANCH  15  16
ENDBRANCH   1  15
TORSDOF 11
ENDMDL
MODEL 3
REMARK VINA RESULT:      -6.1      5.349      7.713
REMARK  Name = 
REMARK  12 active torsions:
REMARK  status: ('A' for Active; 'I' for Inactive)
REMARK    1  A    between atoms: C_1  and  C_2
REMARK    2  A    between atoms: C_2  and  S_4
REMARK    3  A    between atoms: S_4  and  C_5
REMARK    4  A    between atoms: C_5  and  C_6
REMARK    5  A    between atoms: C_6  and  O_7
REMARK    6  A    between atoms: O_7  and  P_8
REMARK    7  A    between atoms: P_8  and  O_10
REMARK    8  A    between atoms: P_8  and  C_11
REMARK    9  A    between atoms: C_11  and  O_12
REMARK   10  A    between atoms: O_12  and  C_13
REMARK   11  A    between atoms: C_13  and  C_14
REMARK   12  A    between atoms: C_14  and  N_15
REMARK                            x       y       z     vdW  Elec       q    Type
REMARK                         _______ _______ _______ _____ _____    ______ ____
ROOT
ATOM      1  C   UNL     1       1.079   4.550  20.673  0.00  0.00    +0.000 C 
ENDROOT
BRANCH   1   2
ATOM      2  O   UNL     1       1.575   3.206  20.781  0.00  0.00    +0.000 OA
BRANCH   2   3
ATOM      3  C   UNL     1       1.335   2.493  19.554  0.00  0.00    +0.000 C 
BRANCH   3   4
ATOM      4  P   UNL     1       2.345   3.136  18.169  0.00  0.00    +0.000 P 
ATOM      5  O   UNL     1       1.058   3.640  17.498  0.00  0.00    +0.000 OA
BRANCH   4   6
ATOM      6  O   UNL     1       2.522   1.623  17.553  0.00  0.00    +0.000 OA
ATOM      7  H   UNL     1       3.022   1.106  18.220  0.00  0.00    +0.000 HD
ENDBRANCH   4   6
BRANCH   4   8
ATOM      8  O   UNL     1       3.299   3.743  16.861  0.00  0.00    +0.000 OA
BRANCH   8   9
ATOM      9  C   UNL     1       4.717   3.651  16.976  0.00  0.00    +0.000 C 
BRANCH   9  10
ATOM     10  C   UNL     1       5.458   4.894  16.484  0.00  0.00    +0.000 C 
BRANCH  10  11
ATOM     11  S   UNL     1       7.230   4.684  16.847  0.00  0.00    +0.000 S 
BRANCH  11  13
ATOM     12  C   UNL     1       7.667   7.086  18.079  0.00  0.00    +0.000 C 
ATOM     13  C   UNL     1       7.372   5.627  18.317  0.00  0.00    +0.000 C 
ATOM     14  O   UNL     1       7.250   5.133  19.428  0.00  0.00    +0.000 OA
ENDBRANCH  11  13
ENDBRANCH  10  11
ENDBRANCH   9  10
ENDBRANCH   8   9
ENDBRANCH   4   8
ENDBRANCH   3   4
ENDBRANCH   2   3
ENDBRANCH   1   2
BRANCH   1  15
ATOM     15  C   UNL     1       2.191   5.561  20.928  0.00  0.00    +0.000 C 
BRANCH  15  16
ATOM     16  N   UNL     1       1.821   6.903  20.523  0.00  0.00    +0.000 N 
ATOM     17  C   UNL     1       1.053   7.771  21.251  0.00  0.00    +0.000 A 
ATOM     18  N   UNL     1       0.861   8.909  20.612  0.00  0.00    +0.000 NA
ATOM     19  C   UNL     1       1.562   8.770  19.432  0.00  0.00    +0.000 A 
ATOM     20  C   UNL     1       1.762   9.640  18.347  0.00  0.00    +0.000 A 
ATOM     21  N   UNL     1       1.250  10.930  18.306  0.00  0.00    +0.000 N 
ATOM     22  N   UNL     1       2.472   9.195  17.285  0.00  0.00    +0.000 NA
ATOM     23  C   UNL     1       2.986   7.945  17.339  0.00  0.00    +0.000 A 
ATOM     24  N   UNL     1       2.884   7.032  18.331  0.00  0.00    +0.000 NA
ATOM     25  C   UNL     1       2.152   7.519  19.346  0.00  0.00    +0.000 A 
ATOM     26  H   UNL     1       0.490  11.081  18.960  0.00  0.00    +0.000 HD
ATOM     27  H   UNL     1       1.145  11.278  17.363  0.00  0.00    +0.000 HD
ENDBRANCH  15  16
ENDBRANCH   1  15
TORSDOF 11
ENDMDL
MODEL 4
REMARK VINA RESULT:      -6.1      1.641      2.446
REMARK  Name = 
REMARK  12 active torsions:
REMARK  status: ('A' for Active; 'I' for Inactive)
REMARK    1  A    between atoms: C_1  and  C_2
REMARK    2  A    between atoms: C_2  and  S_4
REMARK    3  A    between atoms: S_4  and  C_5
REMARK    4  A    between atoms: C_5  and  C_6
REMARK    5  A    between atoms: C_6  and  O_7
REMARK    6  A    between atoms: O_7  and  P_8
REMARK    7  A    between atoms: P_8  and  O_10
REMARK    8  A    between atoms: P_8  and  C_11
REMARK    9  A    between atoms: C_11  and  O_12
REMARK   10  A    between atoms: O_12  and  C_13
REMARK   11  A    between atoms: C_13  and  C_14
REMARK   12  A    between atoms: C_14  and  N_15
REMARK                            x       y       z     vdW  Elec       q    Type
REMARK                         _______ _______ _______ _____ _____    ______ ____
ROOT
ATOM      1  C   UNL     1       7.562   8.945  17.652  0.00  0.00    +0.000 C 
ENDROOT
BRANCH   1   2
ATOM      2  O   UNL     1       7.705   7.558  17.306  0.00  0.00    +0.000 OA
BRANCH   2   3
ATOM      3  C   UNL     1       8.166   6.811  18.447  0.00  0.00    +0.000 C 
BRANCH   3   4
ATOM      4  P   UNL     1       6.947   5.559  18.994  0.00  0.00    +0.000 P 
ATOM      5  O   UNL     1       7.657   5.500  20.356  0.00  0.00    +0.000 OA
BRANCH   4   6
ATOM      6  O   UNL     1       7.707   4.391  18.123  0.00  0.00    +0.000 OA
ATOM      7  H   UNL     1       8.630   4.697  17.990  0.00  0.00    +0.000 HD
ENDBRANCH   4   6
BRANCH   4   8
ATOM      8  O   UNL     1       5.796   4.377  19.512  0.00  0.00    +0.000 OA
BRANCH   8   9
ATOM      9  C   UNL     1       4.992   3.753  18.513  0.00  0.00    +0.000 C 
BRANCH   9  10
ATOM     10  C   UNL     1       4.367   4.734  17.523  0.00  0.00    +0.000 C 
BRANCH  10  11
ATOM     11  S   UNL     1       4.695   4.131  15.835  0.00  0.00    +0.000 S 
BRANCH  11  13
ATOM     12  C   UNL     1       7.015   4.960  14.649  0.00  0.00    +0.000 C 
ATOM     13  C   UNL     1       5.702   5.428  15.221  0.00  0.00    +0.000 C 
ATOM     14  O   UNL     1       5.361   6.600  15.266  0.00  0.00    +0.000 OA
ENDBRANCH  11  13
ENDBRANCH  10  11
ENDBRANCH   9  10
ENDBRANCH   8   9
ENDBRANCH   4   8
ENDBRANCH   3   4
ENDBRANCH   2   3
ENDBRANCH   1   2
BRANCH   1  15
ATOM     15  C   UNL     1       8.757   9.426  18.467  0.00  0.00    +0.000 C 
BRANCH  15  16
ATOM     16  N   UNL     1       8.997  10.848  18.310  0.00  0.00    +0.000 N 
ATOM     17  C   UNL     1       8.210  11.714  17.602  0.00  0.00    +0.000 A 
ATOM     18  N   UNL     1       8.697  12.940  17.614  0.00  0.00    +0.000 NA
ATOM     19  C   UNL     1       9.836  12.856  18.388  0.00  0.00    +0.000 A 
ATOM     20  C   UNL     1      10.776  13.820  18.789  0.00  0.00    +0.000 A 
ATOM     21  N   UNL     1      10.673  15.164  18.454  0.00  0.00    +0.000 N 
ATOM     22  N   UNL     1      11.840  13.419  19.522  0.00  0.00    +0.000 NA
ATOM     23  C   UNL     1      11.924  12.113  19.863  0.00  0.00    +0.000 A 
ATOM     24  N   UNL     1      11.076  11.104  19.561  0.00  0.00    +0.000 NA
ATOM     25  C   UNL     1      10.054  11.555  18.815  0.00  0.00    +0.000 A 
ATOM     26  H   UNL     1      10.056  15.334  17.667  0.00  0.00    +0.000 HD
ATOM     27  H   UNL     1      11.564  15.639  18.475  0.00  0.00    +0.000 HD
ENDBRANCH  15  16
ENDBRANCH   1  15
TORSDOF 11
ENDMDL
MODEL 5
REMARK VINA RESULT:      -6.0      7.897     10.907
REMARK  Name = 
REMARK  12 active torsions:
REMARK  status: ('A' for Active; 'I' for Inactive)
REMARK    1  A    between atoms: C_1  and  C_2
REMARK    2  A    between atoms: C_2  and  S_4
REMARK    3  A    between atoms: S_4  and  C_5
REMARK    4  A    between atoms: C_5  and  C_6
REMARK    5  A    between atoms: C_6  and  O_7
REMARK    6  A    between atoms: O_7  and  P_8
REMARK    7  A    between atoms: P_8  and  O_10
REMARK    8  A    between atoms: P_8  and  C_11
REMARK    9  A    between atoms: C_11  and  O_12
REMARK   10  A    between atoms: O_12  and  C_13
REMARK   11  A    between atoms: C_13  and  C_14
REMARK   12  A    between atoms: C_14  and  N_15
REMARK                            x       y       z     vdW  Elec       q    Type
REMARK                         _______ _______ _______ _____ _____    ______ ____
ROOT
ATOM      1  C   UNL     1       1.880   6.959  20.757  0.00  0.00    +0.000 C 
ENDROOT
BRANCH   1   2
ATOM      2  O   UNL     1       1.529   8.332  20.994  0.00  0.00    +0.000 OA
BRANCH   2   3
ATOM      3  C   UNL     1       0.184   8.415  21.502  0.00  0.00    +0.000 C 
BRANCH   3   4
ATOM      4  P   UNL     1      -0.165  10.036  22.279  0.00  0.00    +0.000 P 
ATOM      5  O   UNL     1       1.262  10.484  21.926  0.00  0.00    +0.000 OA
BRANCH   4   6
ATOM      6  O   UNL     1       0.004   9.389  23.780  0.00  0.00    +0.000 OA
ATOM      7  H   UNL     1       0.490  10.052  24.317  0.00  0.00    +0.000 HD
ENDBRANCH   4   6
BRANCH   4   8
ATOM      8  O   UNL     1      -0.494  11.567  23.013  0.00  0.00    +0.000 OA
BRANCH   8   9
ATOM      9  C   UNL     1      -1.594  12.322  22.507  0.00  0.00    +0.000 C 
BRANCH   9  10
ATOM     10  C   UNL     1      -2.891  12.119  23.287  0.00  0.00    +0.000 C 
BRANCH  10  11
ATOM     11  S   UNL     1      -4.033  13.473  22.859  0.00  0.00    +0.000 S 
BRANCH  11  13
ATOM     12  C   UNL     1      -4.530  12.857  20.241  0.00  0.00    +0.000 C 
ATOM     13  C   UNL     1      -5.030  12.683  21.652  0.00  0.00    +0.000 C 
ATOM     14  O   UNL     1      -6.039  12.059  21.942  0.00  0.00    +0.000 OA
ENDBRANCH  11  13
ENDBRANCH  10  11
ENDBRANCH   9  10
ENDBRANCH   8   9
ENDBRANCH   4   8
ENDBRANCH   3   4
ENDBRANCH   2   3
ENDBRANCH   1   2
BRANCH   1  15
ATOM     15  C   UNL     1       2.462   6.782  19.359  0.00  0.00    +0.000 C 
BRANCH  15  16
ATOM     16  N   UNL     1       3.140   5.510  19.200  0.00  0.00    +0.000 N 
ATOM     17  C   UNL     1       4.496   5.325  19.209  0.00  0.00    +0.000 A 
ATOM     18  N   UNL     1       4.819   4.061  19.011  0.00  0.00    +0.000 NA
ATOM     19  C   UNL     1       3.610   3.406  18.897  0.00  0.00    +0.000 A 
ATOM     20  C   UNL     1       3.287   2.053  18.700  0.00  0.00    +0.000 A 
ATOM     21  N   UNL     1       4.244   1.051  18.609  0.00  0.00    +0.000 N 
ATOM     22  N   UNL     1       1.984   1.711  18.575  0.00  0.00    +0.000 NA
ATOM     23  C   UNL     1       1.055   2.688  18.684  0.00  0.00    +0.000 A 
ATOM     24  N   UNL     1       1.240   4.010  18.898  0.00  0.00    +0.000 NA
ATOM     25  C   UNL     1       2.550   4.294  18.991  0.00  0.00    +0.000 A 
ATOM     26  H   UNL     1       5.172   1.401  18.395  0.00  0.00    +0.000 HD
ATOM     27  H   UNL     1       3.912   0.239  18.108  0.00  0.00    +0.000 HD
ENDBRANCH  15  16
ENDBRANCH   1  15
TORSDOF 11
ENDMDL
MODEL 6
REMARK VINA RESULT:      -6.0      5.613      7.041
REMARK  Name = 
REMARK  12 active torsions:
REMARK  status: ('A' for Active; 'I' for Inactive)
REMARK    1  A    between atoms: C_1  and  C_2
REMARK    2  A    between atoms: C_2  and  S_4
REMARK    3  A    between atoms: S_4  and  C_5
REMARK    4  A    between atoms: C_5  and  C_6
REMARK    5  A    between atoms: C_6  and  O_7
REMARK    6  A    between atoms: O_7  and  P_8
REMARK    7  A    between atoms: P_8  and  O_10
REMARK    8  A    between atoms: P_8  and  C_11
REMARK    9  A    between atoms: C_11  and  O_12
REMARK   10  A    between atoms: O_12  and  C_13
REMARK   11  A    between atoms: C_13  and  C_14
REMARK   12  A    between atoms: C_14  and  N_15
REMARK                            x       y       z     vdW  Elec       q    Type
REMARK                         _______ _______ _______ _____ _____    ______ ____
ROOT
ATOM      1  C   UNL     1       4.407   6.775  17.241  0.00  0.00    +0.000 C 
ENDROOT
BRANCH   1   2
ATOM      2  O   UNL     1       5.653   7.470  17.411  0.00  0.00    +0.000 OA
BRANCH   2   3
ATOM      3  C   UNL     1       6.707   6.530  17.689  0.00  0.00    +0.000 C 
BRANCH   3   4
ATOM      4  P   UNL     1       6.088   5.020  18.521  0.00  0.00    +0.000 P 
ATOM      5  O   UNL     1       6.783   5.478  19.812  0.00  0.00    +0.000 OA
BRANCH   4   6
ATOM      6  O   UNL     1       7.234   4.104  17.781  0.00  0.00    +0.000 OA
ATOM      7  H   UNL     1       7.823   3.766  18.490  0.00  0.00    +0.000 HD
ENDBRANCH   4   6
BRANCH   4   8
ATOM      8  O   UNL     1       5.504   3.595  19.306  0.00  0.00    +0.000 OA
BRANCH   8   9
ATOM      9  C   UNL     1       4.116   3.537  19.630  0.00  0.00    +0.000 C 
BRANCH   9  10
ATOM     10  C   UNL     1       3.710   2.270  20.381  0.00  0.00    +0.000 C 
BRANCH  10  11
ATOM     11  S   UNL     1       2.261   2.658  21.415  0.00  0.00    +0.000 S 
BRANCH  11  13
ATOM     12  C   UNL     1       0.981   2.196  19.043  0.00  0.00    +0.000 C 
ATOM     13  C   UNL     1       1.117   3.167  20.188  0.00  0.00    +0.000 C 
ATOM     14  O   UNL     1       0.500   4.218  20.262  0.00  0.00    +0.000 OA
ENDBRANCH  11  13
ENDBRANCH  10  11
ENDBRANCH   9  10
ENDBRANCH   8   9
ENDBRANCH   4   8
ENDBRANCH   3   4
ENDBRANCH   2   3
ENDBRANCH   1   2
BRANCH   1  15
ATOM     15  C   UNL     1       3.239   7.754  17.221  0.00  0.00    +0.000 C 
BRANCH  15  16
ATOM     16  N   UNL     1       2.560   7.830  18.501  0.00  0.00    +0.000 N 
ATOM     17  C   UNL     1       2.615   6.884  19.488  0.00  0.00    +0.000 A 
ATOM     18  N   UNL     1       1.871   7.216  20.526  0.00  0.00    +0.000 NA
ATOM     19  C   UNL     1       1.337   8.444  20.195  0.00  0.00    +0.000 A 
ATOM     20  C   UNL     1       0.487   9.320  20.889  0.00  0.00    +0.000 A 
ATOM     21  N   UNL     1       0.025   9.067  22.175  0.00  0.00    +0.000 N 
ATOM     22  N   UNL     1       0.085  10.455  20.273  0.00  0.00    +0.000 NA
ATOM     23  C   UNL     1       0.554  10.706  19.029  0.00  0.00    +0.000 A 
ATOM     24  N   UNL     1       1.390   9.958  18.275  0.00  0.00    +0.000 NA
ATOM     25  C   UNL     1       1.737   8.837  18.927  0.00  0.00    +0.000 A 
ATOM     26  H   UNL     1       0.098   8.092  22.442  0.00  0.00    +0.000 HD
ATOM     27  H   UNL     1      -0.834   9.557  22.383  0.00  0.00    +0.000 HD
ENDBRANCH  15  16
ENDBRANCH   1  15
TORSDOF 11
ENDMDL
MODEL 7
REMARK VINA RESULT:      -6.0      4.704      6.734
REMARK  Name = 
REMARK  12 active torsions:
REMARK  status: ('A' for Active; 'I' for Inactive)
REMARK    1  A    between atoms: C_1  and  C_2
REMARK    2  A    between atoms: C_2  and  S_4
REMARK    3  A    between atoms: S_4  and  C_5
REMARK    4  A    between atoms: C_5  and  C_6
REMARK    5  A    between atoms: C_6  and  O_7
REMARK    6  A    between atoms: O_7  and  P_8
REMARK    7  A    between atoms: P_8  and  O_10
REMARK    8  A    between atoms: P_8  and  C_11
REMARK    9  A    between atoms: C_11  and  O_12
REMARK   10  A    between atoms: O_12  and  C_13
REMARK   11  A    between atoms: C_13  and  C_14
REMARK   12  A    between atoms: C_14  and  N_15
REMARK                            x       y       z     vdW  Elec       q    Type
REMARK                         _______ _______ _______ _____ _____    ______ ____
ROOT
ATOM      1  C   UNL     1       4.042   3.307  18.867  0.00  0.00    +0.000 C 
ENDROOT
BRANCH   1   2
ATOM      2  O   UNL     1       3.363   2.060  19.089  0.00  0.00    +0.000 OA
BRANCH   2   3
ATOM      3  C   UNL     1       2.158   2.284  19.843  0.00  0.00    +0.000 C 
BRANCH   3   4
ATOM      4  P   UNL     1       2.085   3.972  20.549  0.00  0.00    +0.000 P 
ATOM      5  O   UNL     1       2.223   3.364  21.953  0.00  0.00    +0.000 OA
BRANCH   4   6
ATOM      6  O   UNL     1       0.457   4.031  20.324  0.00  0.00    +0.000 OA
ATOM      7  H   UNL     1       0.312   4.388  19.422  0.00  0.00    +0.000 HD
ENDBRANCH   4   6
BRANCH   4   8
ATOM      8  O   UNL     1       2.015   5.566  21.215  0.00  0.00    +0.000 OA
BRANCH   8   9
ATOM      9  C   UNL     1       1.496   6.608  20.391  0.00  0.00    +0.000 C 
BRANCH   9  10
ATOM     10  C   UNL     1       1.629   8.002  21.001  0.00  0.00    +0.000 C 
BRANCH  10  11
ATOM     11  S   UNL     1      -0.032   8.577  21.481  0.00  0.00    +0.000 S 
BRANCH  11  13
ATOM     12  C   UNL     1       0.622   9.948  19.207  0.00  0.00    +0.000 C 
ATOM     13  C   UNL     1      -0.177  10.011  20.483  0.00  0.00    +0.000 C 
ATOM     14  O   UNL     1      -0.861  10.969  20.808  0.00  0.00    +0.000 OA
ENDBRANCH  11  13
ENDBRANCH  10  11
ENDBRANCH   9  10
ENDBRANCH   8   9
ENDBRANCH   4   8
ENDBRANCH   3   4
ENDBRANCH   2   3
ENDBRANCH   1   2
BRANCH   1  15
ATOM     15  C   UNL     1       4.508   3.421  17.420  0.00  0.00    +0.000 C 
BRANCH  15  16
ATOM     16  N   UNL     1       5.173   4.681  17.151  0.00  0.00    +0.000 N 
ATOM     17  C   UNL     1       4.897   5.519  16.105  0.00  0.00    +0.000 A 
ATOM     18  N   UNL     1       5.686   6.577  16.104  0.00  0.00    +0.000 NA
ATOM     19  C   UNL     1       6.486   6.417  17.217  0.00  0.00    +0.000 A 
ATOM     20  C   UNL     1       7.505   7.213  17.767  0.00  0.00    +0.000 A 
ATOM     21  N   UNL     1       7.885   8.435  17.228  0.00  0.00    +0.000 N 
ATOM     22  N   UNL     1       8.158   6.761  18.861  0.00  0.00    +0.000 NA
ATOM     23  C   UNL     1       7.770   5.579  19.393  0.00  0.00    +0.000 A 
ATOM     24  N   UNL     1       6.794   4.743  18.973  0.00  0.00    +0.000 NA
ATOM     25  C   UNL     1       6.197   5.231  17.873  0.00  0.00    +0.000 A 
ATOM     26  H   UNL     1       7.591   8.558  16.265  0.00  0.00    +0.000 HD
ATOM     27  H   UNL     1       8.830   8.693  17.476  0.00  0.00    +0.000 HD
ENDBRANCH  15  16
ENDBRANCH   1  15
TORSDOF 11
ENDMDL
MODEL 8
REMARK VINA RESULT:      -6.0      6.943      8.192
REMARK  Name = 
REMARK  12 active torsions:
REMARK  status: ('A' for Active; 'I' for Inactive)
REMARK    1  A    between atoms: C_1  and  C_2
REMARK    2  A    between atoms: C_2  and  S_4
REMARK    3  A    between atoms: S_4  and  C_5
REMARK    4  A    between atoms: C_5  and  C_6
REMARK    5  A    between atoms: C_6  and  O_7
REMARK    6  A    between atoms: O_7  and  P_8
REMARK    7  A    between atoms: P_8  and  O_10
REMARK    8  A    between atoms: P_8  and  C_11
REMARK    9  A    between atoms: C_11  and  O_12
REMARK   10  A    between atoms: O_12  and  C_13
REMARK   11  A    between atoms: C_13  and  C_14
REMARK   12  A    between atoms: C_14  and  N_15
REMARK                            x       y       z     vdW  Elec       q    Type
REMARK                         _______ _______ _______ _____ _____    ______ ____
ROOT
ATOM      1  C   UNL     1       1.960  10.023  17.942  0.00  0.00    +0.000 C 
ENDROOT
BRANCH   1   2
ATOM      2  O   UNL     1       2.795   8.903  18.278  0.00  0.00    +0.000 OA
BRANCH   2   3
ATOM      3  C   UNL     1       2.095   7.672  18.018  0.00  0.00    +0.000 C 
BRANCH   3   4
ATOM      4  P   UNL     1       3.168   6.204  18.236  0.00  0.00    +0.000 P 
ATOM      5  O   UNL     1       2.032   5.325  17.693  0.00  0.00    +0.000 OA
BRANCH   4   6
ATOM      6  O   UNL     1       2.898   6.208  19.858  0.00  0.00    +0.000 OA
ATOM      7  H   UNL     1       2.960   5.274  20.154  0.00  0.00    +0.000 HD
ENDBRANCH   4   6
BRANCH   4   8
ATOM      8  O   UNL     1       4.181   4.818  18.443  0.00  0.00    +0.000 OA
BRANCH   8   9
ATOM      9  C   UNL     1       4.242   4.229  19.740  0.00  0.00    +0.000 C 
BRANCH   9  10
ATOM     10  C   UNL     1       4.068   2.711  19.737  0.00  0.00    +0.000 C 
BRANCH  10  11
ATOM     11  S   UNL     1       2.360   2.332  19.230  0.00  0.00    +0.000 S 
BRANCH  11  13
ATOM     12  C   UNL     1       1.699   2.528  21.877  0.00  0.00    +0.000 C 
ATOM     13  C   UNL     1       1.461   3.121  20.512  0.00  0.00    +0.000 C 
ATOM     14  O   UNL     1       0.707   4.059  20.302  0.00  0.00    +0.000 OA
ENDBRANCH  11  13
ENDBRANCH  10  11
ENDBRANCH   9  10
ENDBRANCH   8   9
ENDBRANCH   4   8
ENDBRANCH   3   4
ENDBRANCH   2   3
ENDBRANCH   1   2
BRANCH   1  15
ATOM     15  C   UNL     1       0.488   9.681  18.144  0.00  0.00    +0.000 C 
BRANCH  15  16
ATOM     16  N   UNL     1      -0.113  10.443  19.222  0.00  0.00    +0.000 N 
ATOM     17  C   UNL     1      -0.882  11.565  19.070  0.00  0.00    +0.000 A 
ATOM     18  N   UNL     1      -1.265  12.057  20.233  0.00  0.00    +0.000 NA
ATOM     19  C   UNL     1      -0.736  11.191  21.169  0.00  0.00    +0.000 A 
ATOM     20  C   UNL     1      -0.809  11.161  22.572  0.00  0.00    +0.000 A 
ATOM     21  N   UNL     1      -1.531  12.088  23.313  0.00  0.00    +0.000 N 
ATOM     22  N   UNL     1      -0.131  10.197  23.234  0.00  0.00    +0.000 NA
ATOM     23  C   UNL     1       0.554   9.285  22.506  0.00  0.00    +0.000 A 
ATOM     24  N   UNL     1       0.677   9.195  21.163  0.00  0.00    +0.000 NA
ATOM     25  C   UNL     1       0.004  10.189  20.561  0.00  0.00    +0.000 A 
ATOM     26  H   UNL     1      -1.740  12.937  22.799  0.00  0.00    +0.000 HD
ATOM     27  H   UNL     1      -1.196  12.174  24.262  0.00  0.00    +0.000 HD
ENDBRANCH  15  16
ENDBRANCH   1  15
TORSDOF 11
ENDMDL
MODEL 9
REMARK VINA RESULT:      -5.9      6.552      8.379
REMARK  Name = 
REMARK  12 active torsions:
REMARK  status: ('A' for Active; 'I' for Inactive)
REMARK    1  A    between atoms: C_1  and  C_2
REMARK    2  A    between atoms: C_2  and  S_4
REMARK    3  A    between atoms: S_4  and  C_5
REMARK    4  A    between atoms: C_5  and  C_6
REMARK    5  A    between atoms: C_6  and  O_7
REMARK    6  A    between atoms: O_7  and  P_8
REMARK    7  A    between atoms: P_8  and  O_10
REMARK    8  A    between atoms: P_8  and  C_11
REMARK    9  A    between atoms: C_11  and  O_12
REMARK   10  A    between atoms: O_12  and  C_13
REMARK   11  A    between atoms: C_13  and  C_14
REMARK   12  A    between atoms: C_14  and  N_15
REMARK                            x       y       z     vdW  Elec       q    Type
REMARK                         _______ _______ _______ _____ _____    ______ ____
ROOT
ATOM      1  C   UNL     1       1.913   8.389  18.872  0.00  0.00    +0.000 C 
ENDROOT
BRANCH   1   2
ATOM      2  O   UNL     1       2.124   7.205  18.086  0.00  0.00    +0.000 OA
BRANCH   2   3
ATOM      3  C   UNL     1       3.527   7.044  17.808  0.00  0.00    +0.000 C 
BRANCH   3   4
ATOM      4  P   UNL     1       4.081   5.311  18.018  0.00  0.00    +0.000 P 
ATOM      5  O   UNL     1       3.942   5.479  19.539  0.00  0.00    +0.000 OA
BRANCH   4   6
ATOM      6  O   UNL     1       5.641   5.741  17.734  0.00  0.00    +0.000 OA
ATOM      7  H   UNL     1       5.966   5.156  17.016  0.00  0.00    +0.000 HD
ENDBRANCH   4   6
BRANCH   4   8
ATOM      8  O   UNL     1       4.604   3.675  18.218  0.00  0.00    +0.000 OA
BRANCH   8   9
ATOM      9  C   UNL     1       3.724   2.639  17.785  0.00  0.00    +0.000 C 
BRANCH   9  10
ATOM     10  C   UNL     1       2.992   1.935  18.926  0.00  0.00    +0.000 C 
BRANCH  10  11
ATOM     11  S   UNL     1       1.254   2.478  18.913  0.00  0.00    +0.000 S 
BRANCH  11  13
ATOM     12  C   UNL     1       1.597   2.621  21.623  0.00  0.00    +0.000 C 
ATOM     13  C   UNL     1       1.195   3.405  20.400  0.00  0.00    +0.000 C 
ATOM     14  O   UNL     1       0.848   4.576  20.430  0.00  0.00    +0.000 OA
ENDBRANCH  11  13
ENDBRANCH  10  11
ENDBRANCH   9  10
ENDBRANCH   8   9
ENDBRANCH   4   8
ENDBRANCH   3   4
ENDBRANCH   2   3
ENDBRANCH   1   2
BRANCH   1  15
ATOM     15  C   UNL     1       1.603   9.585  17.979  0.00  0.00    +0.000 C 
BRANCH  15  16
ATOM     16  N   UNL     1       0.614  10.470  18.563  0.00  0.00    +0.000 N 
ATOM     17  C   UNL     1       0.849  11.381  19.557  0.00  0.00    +0.000 A 
ATOM     18  N   UNL     1      -0.250  12.022  19.904  0.00  0.00    +0.000 NA
ATOM     19  C   UNL     1      -1.228  11.513  19.073  0.00  0.00    +0.000 A 
ATOM     20  C   UNL     1      -2.596  11.804  18.940  0.00  0.00    +0.000 A 
ATOM     21  N   UNL     1      -3.239  12.781  19.690  0.00  0.00    +0.000 N 
ATOM     22  N   UNL     1      -3.324  11.090  18.053  0.00  0.00    +0.000 NA
ATOM     23  C   UNL     1      -2.689  10.155  17.311  0.00  0.00    +0.000 A 
ATOM     24  N   UNL     1      -1.383   9.805  17.330  0.00  0.00    +0.000 NA
ATOM     25  C   UNL     1      -0.715  10.529  18.243  0.00  0.00    +0.000 A 
ATOM     26  H   UNL     1      -2.730  13.043  20.527  0.00  0.00    +0.000 HD
ATOM     27  H   UNL     1      -4.234  12.621  19.765  0.00  0.00    +0.000 HD
ENDBRANCH  15  16
ENDBRANCH   1  15
TORSDOF 11
ENDMDL
