MODEL 1
REMARK VINA RESULT:      -8.6      0.000      0.000
REMARK  Name = 
REMARK  5 active torsions:
REMARK  status: ('A' for Active; 'I' for Inactive)
REMARK    1  A    between atoms: C_4  and  S_5
REMARK    2  A    between atoms: S_5  and  C_6
REMARK    3  A    between atoms: C_6  and  C_7
REMARK    4  A    between atoms: C_9  and  N_10
REMARK    5  A    between atoms: C_14  and  N_15
REMARK                            x       y       z     vdW  Elec       q    Type
REMARK                         _______ _______ _______ _____ _____    ______ ____
ROOT
ATOM      1  S   UNL     1       2.813   4.703  19.659  0.00  0.00    +0.000 S 
ENDROOT
BRANCH   1   5
ATOM      2  O   UNL     1       2.183   8.907  17.311  0.00  0.00    +0.000 OA
ATOM      3  C   UNL     1       2.031   8.324  18.375  0.00  0.00    +0.000 A 
ATOM      4  N   UNL     1       2.439   7.025  18.570  0.00  0.00    +0.000 N 
ATOM      5  C   UNL     1       2.220   6.339  19.729  0.00  0.00    +0.000 A 
ATOM      6  N   UNL     1       1.662   6.847  20.773  0.00  0.00    +0.000 NA
ATOM      7  C   UNL     1       1.285   8.204  20.709  0.00  0.00    +0.000 A 
ATOM      8  C   UNL     1       0.790   8.823  21.858  0.00  0.00    +0.000 A 
ATOM      9  C   UNL     1       0.432  10.175  21.845  0.00  0.00    +0.000 A 
ATOM     10  C   UNL     1       0.532  10.911  20.663  0.00  0.00    +0.000 A 
ATOM     11 BR   UNL     1       0.027  12.732  20.653  0.00  0.00    +0.000 Br
ATOM     12  C   UNL     1       1.014  10.316  19.500  0.00  0.00    +0.000 A 
ATOM     13  C   UNL     1       1.412   8.975  19.545  0.00  0.00    +0.000 A 
ATOM     14  H   UNL     1       2.901   6.569  17.799  0.00  0.00    +0.000 HD
ENDBRANCH   1   5
BRANCH   1  15
ATOM     15  C   UNL     1       3.119   4.487  17.878  0.00  0.00    +0.000 C 
BRANCH  15  16
ATOM     16  C   UNL     1       4.570   4.774  17.521  0.00  0.00    +0.000 A 
ATOM     17  C   UNL     1       5.472   5.242  18.495  0.00  0.00    +0.000 A 
ATOM     18  C   UNL     1       6.817   5.505  18.161  0.00  0.00    +0.000 A 
ATOM     19  C   UNL     1       7.283   5.321  16.856  0.00  0.00    +0.000 A 
ATOM     20  C   UNL     1       6.386   4.865  15.883  0.00  0.00    +0.000 A 
ATOM     21  C   UNL     1       5.042   4.591  16.207  0.00  0.00    +0.000 A 
BRANCH  18  22
ATOM     22  N   UNL     1       7.748   5.977  19.198  0.00  0.00    +0.000 N 
ATOM     23  O   UNL     1       7.800   5.334  20.256  0.00  0.00    +0.000 OA
ATOM     24  O   UNL     1       8.428   6.983  18.952  0.00  0.00    +0.000 OA
ENDBRANCH  18  22
BRANCH  20  25
ATOM     25  N   UNL     1       6.859   4.666  14.504  0.00  0.00    +0.000 N 
ATOM     26  O   UNL     1       6.308   3.789  13.826  0.00  0.00    +0.000 OA
ATOM     27  O   UNL     1       7.779   5.393  14.103  0.00  0.00    +0.000 OA
ENDBRANCH  20  25
ENDBRANCH  15  16
ENDBRANCH   1  15
TORSDOF 5
ENDMDL
MODEL 2
REMARK VINA RESULT:      -8.6      0.060      2.933
REMARK  Name = 
REMARK  5 active torsions:
REMARK  status: ('A' for Active; 'I' for Inactive)
REMARK    1  A    between atoms: C_4  and  S_5
REMARK    2  A    between atoms: S_5  and  C_6
REMARK    3  A    between atoms: C_6  and  C_7
REMARK    4  A    between atoms: C_9  and  N_10
REMARK    5  A    between atoms: C_14  and  N_15
REMARK                            x       y       z     vdW  Elec       q    Type
REMARK                         _______ _______ _______ _____ _____    ______ ____
ROOT
ATOM      1  S   UNL     1       2.818   4.657  19.627  0.00  0.00    +0.000 S 
ENDROOT
BRANCH   1   5
ATOM      2  O   UNL     1       2.219   8.879  17.305  0.00  0.00    +0.000 OA
ATOM      3  C   UNL     1       2.062   8.291  18.365  0.00  0.00    +0.000 A 
ATOM      4  N   UNL     1       2.462   6.988  18.553  0.00  0.00    +0.000 N 
ATOM      5  C   UNL     1       2.237   6.296  19.706  0.00  0.00    +0.000 A 
ATOM      6  N   UNL     1       1.680   6.801  20.753  0.00  0.00    +0.000 NA
ATOM      7  C   UNL     1       1.312   8.162  20.697  0.00  0.00    +0.000 A 
ATOM      8  C   UNL     1       0.821   8.776  21.849  0.00  0.00    +0.000 A 
ATOM      9  C   UNL     1       0.471  10.131  21.844  0.00  0.00    +0.000 A 
ATOM     10  C   UNL     1       0.578  10.874  20.667  0.00  0.00    +0.000 A 
ATOM     11 BR   UNL     1       0.085  12.698  20.667  0.00  0.00    +0.000 Br
ATOM     12  C   UNL     1       1.058  10.283  19.501  0.00  0.00    +0.000 A 
ATOM     13  C   UNL     1       1.447   8.939  19.538  0.00  0.00    +0.000 A 
ATOM     14  H   UNL     1       2.922   6.534  17.779  0.00  0.00    +0.000 HD
ENDBRANCH   1   5
BRANCH   1  15
ATOM     15  C   UNL     1       3.123   4.449  17.845  0.00  0.00    +0.000 C 
BRANCH  15  16
ATOM     16  C   UNL     1       4.567   4.766  17.483  0.00  0.00    +0.000 A 
ATOM     17  C   UNL     1       5.039   4.570  16.172  0.00  0.00    +0.000 A 
ATOM     18  C   UNL     1       6.378   4.865  15.838  0.00  0.00    +0.000 A 
ATOM     19  C   UNL     1       7.269   5.346  16.803  0.00  0.00    +0.000 A 
ATOM     20  C   UNL     1       6.804   5.532  18.110  0.00  0.00    +0.000 A 
ATOM     21  C   UNL     1       5.467   5.248  18.452  0.00  0.00    +0.000 A 
BRANCH  18  22
ATOM     22  N   UNL     1       6.847   4.669  14.458  0.00  0.00    +0.000 N 
ATOM     23  O   UNL     1       7.793   5.372  14.071  0.00  0.00    +0.000 OA
ATOM     24  O   UNL     1       6.277   3.813  13.768  0.00  0.00    +0.000 OA
ENDBRANCH  18  22
BRANCH  20  25
ATOM     25  N   UNL     1       7.729   6.037  19.138  0.00  0.00    +0.000 N 
ATOM     26  O   UNL     1       7.780   5.430  20.215  0.00  0.00    +0.000 OA
ATOM     27  O   UNL     1       8.404   7.039  18.860  0.00  0.00    +0.000 OA
ENDBRANCH  20  25
ENDBRANCH  15  16
ENDBRANCH   1  15
TORSDOF 5
ENDMDL
MODEL 3
REMARK VINA RESULT:      -8.4      1.210      3.493
REMARK  Name = 
REMARK  5 active torsions:
REMARK  status: ('A' for Active; 'I' for Inactive)
REMARK    1  A    between atoms: C_4  and  S_5
REMARK    2  A    between atoms: S_5  and  C_6
REMARK    3  A    between atoms: C_6  and  C_7
REMARK    4  A    between atoms: C_9  and  N_10
REMARK    5  A    between atoms: C_14  and  N_15
REMARK                            x       y       z     vdW  Elec       q    Type
REMARK                         _______ _______ _______ _____ _____    ______ ____
ROOT
ATOM      1  S   UNL     1       2.772   4.856  19.912  0.00  0.00    +0.000 S 
ENDROOT
BRANCH   1   5
ATOM      2  O   UNL     1       0.671   8.527  22.299  0.00  0.00    +0.000 OA
ATOM      3  C   UNL     1       1.168   8.179  21.237  0.00  0.00    +0.000 A 
ATOM      4  N   UNL     1       1.636   6.904  21.023  0.00  0.00    +0.000 N 
ATOM      5  C   UNL     1       2.251   6.517  19.868  0.00  0.00    +0.000 A 
ATOM      6  N   UNL     1       2.408   7.283  18.844  0.00  0.00    +0.000 NA
ATOM      7  C   UNL     1       1.882   8.589  18.926  0.00  0.00    +0.000 A 
ATOM      8  C   UNL     1       1.923   9.406  17.796  0.00  0.00    +0.000 A 
ATOM      9  C   UNL     1       1.386  10.697  17.826  0.00  0.00    +0.000 A 
ATOM     10  C   UNL     1       0.835  11.195  19.008  0.00  0.00    +0.000 A 
ATOM     11 BR   UNL     1       0.130  12.948  19.043  0.00  0.00    +0.000 Br
ATOM     12  C   UNL     1       0.789  10.404  20.153  0.00  0.00    +0.000 A 
ATOM     13  C   UNL     1       1.288   9.098  20.090  0.00  0.00    +0.000 A 
ATOM     14  H   UNL     1       1.530   6.244  21.778  0.00  0.00    +0.000 HD
ENDBRANCH   1   5
BRANCH   1  15
ATOM     15  C   UNL     1       3.039   4.497  18.149  0.00  0.00    +0.000 C 
BRANCH  15  16
ATOM     16  C   UNL     1       4.475   4.781  17.730  0.00  0.00    +0.000 A 
ATOM     17  C   UNL     1       4.889   4.579  16.400  0.00  0.00    +0.000 A 
ATOM     18  C   UNL     1       6.220   4.844  16.014  0.00  0.00    +0.000 A 
ATOM     19  C   UNL     1       7.161   5.300  16.944  0.00  0.00    +0.000 A 
ATOM     20  C   UNL     1       6.753   5.492  18.269  0.00  0.00    +0.000 A 
ATOM     21  C   UNL     1       5.424   5.238  18.664  0.00  0.00    +0.000 A 
BRANCH  18  22
ATOM     22  N   UNL     1       6.630   4.643  14.616  0.00  0.00    +0.000 N 
ATOM     23  O   UNL     1       5.922   3.906  13.913  0.00  0.00    +0.000 OA
ATOM     24  O   UNL     1       7.649   5.224  14.221  0.00  0.00    +0.000 OA
ENDBRANCH  18  22
BRANCH  20  25
ATOM     25  N   UNL     1       7.730   5.971  19.261  0.00  0.00    +0.000 N 
ATOM     26  O   UNL     1       8.415   6.957  18.964  0.00  0.00    +0.000 OA
ATOM     27  O   UNL     1       7.804   5.357  20.335  0.00  0.00    +0.000 OA
ENDBRANCH  20  25
ENDBRANCH  15  16
ENDBRANCH   1  15
TORSDOF 5
ENDMDL
MODEL 4
REMARK VINA RESULT:      -8.2      3.011      3.964
REMARK  Name = 
REMARK  5 active torsions:
REMARK  status: ('A' for Active; 'I' for Inactive)
REMARK    1  A    between atoms: C_4  and  S_5
REMARK    2  A    between atoms: S_5  and  C_6
REMARK    3  A    between atoms: C_6  and  C_7
REMARK    4  A    between atoms: C_9  and  N_10
REMARK    5  A    between atoms: C_14  and  N_15
REMARK                            x       y       z     vdW  Elec       q    Type
REMARK                         _______ _______ _______ _____ _____    ______ ____
ROOT
ATOM      1  S   UNL     1       1.898   8.824  17.916  0.00  0.00    +0.000 S 
ENDROOT
BRANCH   1   5
ATOM      2  O   UNL     1      -1.247  12.514  18.201  0.00  0.00    +0.000 OA
ATOM      3  C   UNL     1      -0.685  11.629  18.830  0.00  0.00    +0.000 A 
ATOM      4  N   UNL     1       0.231  10.779  18.253  0.00  0.00    +0.000 N 
ATOM      5  C   UNL     1       0.819   9.747  18.923  0.00  0.00    +0.000 A 
ATOM      6  N   UNL     1       0.623   9.493  20.172  0.00  0.00    +0.000 NA
ATOM      7  C   UNL     1      -0.233  10.361  20.881  0.00  0.00    +0.000 A 
ATOM      8  C   UNL     1      -0.373  10.193  22.259  0.00  0.00    +0.000 A 
ATOM      9  C   UNL     1      -1.189  11.050  23.006  0.00  0.00    +0.000 A 
ATOM     10  C   UNL     1      -1.903  12.065  22.366  0.00  0.00    +0.000 A 
ATOM     11 BR   UNL     1      -3.017  13.204  23.382  0.00  0.00    +0.000 Br
ATOM     12  C   UNL     1      -1.787  12.249  20.991  0.00  0.00    +0.000 A 
ATOM     13  C   UNL     1      -0.930  11.412  20.268  0.00  0.00    +0.000 A 
ATOM     14  H   UNL     1       0.447  10.931  17.280  0.00  0.00    +0.000 HD
ENDBRANCH   1   5
BRANCH   1  15
ATOM     15  C   UNL     1       2.410   7.486  19.036  0.00  0.00    +0.000 C 
BRANCH  15  16
ATOM     16  C   UNL     1       3.112   6.363  18.285  0.00  0.00    +0.000 A 
ATOM     17  C   UNL     1       4.233   6.631  17.477  0.00  0.00    +0.000 A 
ATOM     18  C   UNL     1       4.882   5.588  16.782  0.00  0.00    +0.000 A 
ATOM     19  C   UNL     1       4.422   4.271  16.869  0.00  0.00    +0.000 A 
ATOM     20  C   UNL     1       3.301   4.004  17.664  0.00  0.00    +0.000 A 
ATOM     21  C   UNL     1       2.649   5.037  18.368  0.00  0.00    +0.000 A 
BRANCH  18  22
ATOM     22  N   UNL     1       6.063   5.885  15.956  0.00  0.00    +0.000 N 
ATOM     23  O   UNL     1       6.023   5.556  14.762  0.00  0.00    +0.000 OA
ATOM     24  O   UNL     1       7.022   6.450  16.499  0.00  0.00    +0.000 OA
ENDBRANCH  18  22
BRANCH  20  25
ATOM     25  N   UNL     1       2.802   2.624  17.765  0.00  0.00    +0.000 N 
ATOM     26  O   UNL     1       3.637   1.711  17.801  0.00  0.00    +0.000 OA
ATOM     27  O   UNL     1       1.574   2.459  17.813  0.00  0.00    +0.000 OA
ENDBRANCH  20  25
ENDBRANCH  15  16
ENDBRANCH   1  15
TORSDOF 5
ENDMDL
MODEL 5
REMARK VINA RESULT:      -8.2      2.959      3.835
REMARK  Name = 
REMARK  5 active torsions:
REMARK  status: ('A' for Active; 'I' for Inactive)
REMARK    1  A    between atoms: C_4  and  S_5
REMARK    2  A    between atoms: S_5  and  C_6
REMARK    3  A    between atoms: C_6  and  C_7
REMARK    4  A    between atoms: C_9  and  N_10
REMARK    5  A    between atoms: C_14  and  N_15
REMARK                            x       y       z     vdW  Elec       q    Type
REMARK                         _______ _______ _______ _____ _____    ______ ____
ROOT
ATOM      1  S   UNL     1       2.016   8.721  17.894  0.00  0.00    +0.000 S 
ENDROOT
BRANCH   1   5
ATOM      2  O   UNL     1      -1.140  12.403  18.141  0.00  0.00    +0.000 OA
ATOM      3  C   UNL     1      -0.578  11.524  18.778  0.00  0.00    +0.000 A 
ATOM      4  N   UNL     1       0.342  10.673  18.211  0.00  0.00    +0.000 N 
ATOM      5  C   UNL     1       0.931   9.648  18.891  0.00  0.00    +0.000 A 
ATOM      6  N   UNL     1       0.732   9.403  20.141  0.00  0.00    +0.000 NA
ATOM      7  C   UNL     1      -0.129  10.275  20.841  0.00  0.00    +0.000 A 
ATOM      8  C   UNL     1      -0.273  10.117  22.220  0.00  0.00    +0.000 A 
ATOM      9  C   UNL     1      -1.094  10.978  22.956  0.00  0.00    +0.000 A 
ATOM     10  C   UNL     1      -1.808  11.985  22.307  0.00  0.00    +0.000 A 
ATOM     11 BR   UNL     1      -2.929  13.129  23.310  0.00  0.00    +0.000 Br
ATOM     12  C   UNL     1      -1.689  12.159  20.930  0.00  0.00    +0.000 A 
ATOM     13  C   UNL     1      -0.827  11.318  20.217  0.00  0.00    +0.000 A 
ATOM     14  H   UNL     1       0.561  10.818  17.238  0.00  0.00    +0.000 HD
ENDBRANCH   1   5
BRANCH   1  15
ATOM     15  C   UNL     1       2.554   7.411  19.038  0.00  0.00    +0.000 C 
BRANCH  15  16
ATOM     16  C   UNL     1       3.235   6.268  18.299  0.00  0.00    +0.000 A 
ATOM     17  C   UNL     1       2.731   4.956  18.385  0.00  0.00    +0.000 A 
ATOM     18  C   UNL     1       3.364   3.898  17.698  0.00  0.00    +0.000 A 
ATOM     19  C   UNL     1       4.510   4.123  16.929  0.00  0.00    +0.000 A 
ATOM     20  C   UNL     1       5.018   5.425  16.850  0.00  0.00    +0.000 A 
ATOM     21  C   UNL     1       4.390   6.491  17.526  0.00  0.00    +0.000 A 
BRANCH  18  22
ATOM     22  N   UNL     1       2.812   2.537  17.786  0.00  0.00    +0.000 N 
ATOM     23  O   UNL     1       3.617   1.597  17.867  0.00  0.00    +0.000 OA
ATOM     24  O   UNL     1       1.580   2.409  17.781  0.00  0.00    +0.000 OA
ENDBRANCH  18  22
BRANCH  20  25
ATOM     25  N   UNL     1       6.223   5.681  16.046  0.00  0.00    +0.000 N 
ATOM     26  O   UNL     1       7.300   5.797  16.644  0.00  0.00    +0.000 OA
ATOM     27  O   UNL     1       6.086   5.760  14.817  0.00  0.00    +0.000 OA
ENDBRANCH  20  25
ENDBRANCH  15  16
ENDBRANCH   1  15
TORSDOF 5
ENDMDL
MODEL 6
REMARK VINA RESULT:      -8.1      2.802      3.609
REMARK  Name = 
REMARK  5 active torsions:
REMARK  status: ('A' for Active; 'I' for Inactive)
REMARK    1  A    between atoms: C_4  and  S_5
REMARK    2  A    between atoms: S_5  and  C_6
REMARK    3  A    between atoms: C_6  and  C_7
REMARK    4  A    between atoms: C_9  and  N_10
REMARK    5  A    between atoms: C_14  and  N_15
REMARK                            x       y       z     vdW  Elec       q    Type
REMARK                         _______ _______ _______ _____ _____    ______ ____
ROOT
ATOM      1  S   UNL     1       2.422   8.512  17.926  0.00  0.00    +0.000 S 
ENDROOT
BRANCH   1   5
ATOM      2  O   UNL     1      -0.741  12.186  18.212  0.00  0.00    +0.000 OA
ATOM      3  C   UNL     1      -0.200  11.282  18.832  0.00  0.00    +0.000 A 
ATOM      4  N   UNL     1       0.738  10.453  18.263  0.00  0.00    +0.000 N 
ATOM      5  C   UNL     1       1.304   9.400  18.922  0.00  0.00    +0.000 A 
ATOM      6  N   UNL     1       1.063   9.107  20.153  0.00  0.00    +0.000 NA
ATOM      7  C   UNL     1       0.179   9.951  20.858  0.00  0.00    +0.000 A 
ATOM      8  C   UNL     1      -0.011   9.739  22.224  0.00  0.00    +0.000 A 
ATOM      9  C   UNL     1      -0.856  10.571  22.966  0.00  0.00    +0.000 A 
ATOM     10  C   UNL     1      -1.549  11.604  22.333  0.00  0.00    +0.000 A 
ATOM     11 BR   UNL     1      -2.702  12.709  23.343  0.00  0.00    +0.000 Br
ATOM     12  C   UNL     1      -1.383  11.832  20.970  0.00  0.00    +0.000 A 
ATOM     13  C   UNL     1      -0.497  11.019  20.253  0.00  0.00    +0.000 A 
ATOM     14  H   UNL     1       0.990  10.636  17.304  0.00  0.00    +0.000 HD
ENDBRANCH   1   5
BRANCH   1  15
ATOM     15  C   UNL     1       2.001   6.788  18.331  0.00  0.00    +0.000 C 
BRANCH  15  16
ATOM     16  C   UNL     1       3.222   5.882  18.257  0.00  0.00    +0.000 A 
ATOM     17  C   UNL     1       4.410   6.324  17.646  0.00  0.00    +0.000 A 
ATOM     18  C   UNL     1       5.540   5.482  17.580  0.00  0.00    +0.000 A 
ATOM     19  C   UNL     1       5.504   4.187  18.108  0.00  0.00    +0.000 A 
ATOM     20  C   UNL     1       4.320   3.742  18.707  0.00  0.00    +0.000 A 
ATOM     21  C   UNL     1       3.187   4.577  18.785  0.00  0.00    +0.000 A 
BRANCH  18  22
ATOM     22  N   UNL     1       6.778   5.969  16.952  0.00  0.00    +0.000 N 
ATOM     23  O   UNL     1       7.657   5.132  16.695  0.00  0.00    +0.000 OA
ATOM     24  O   UNL     1       6.869   7.181  16.712  0.00  0.00    +0.000 OA
ENDBRANCH  18  22
BRANCH  20  25
ATOM     25  N   UNL     1       4.263   2.382  19.267  0.00  0.00    +0.000 N 
ATOM     26  O   UNL     1       4.932   2.148  20.281  0.00  0.00    +0.000 OA
ATOM     27  O   UNL     1       3.546   1.553  18.688  0.00  0.00    +0.000 OA
ENDBRANCH  20  25
ENDBRANCH  15  16
ENDBRANCH   1  15
TORSDOF 5
ENDMDL
MODEL 7
REMARK VINA RESULT:      -8.0      2.612      3.443
REMARK  Name = 
REMARK  5 active torsions:
REMARK  status: ('A' for Active; 'I' for Inactive)
REMARK    1  A    between atoms: C_4  and  S_5
REMARK    2  A    between atoms: S_5  and  C_6
REMARK    3  A    between atoms: C_6  and  C_7
REMARK    4  A    between atoms: C_9  and  N_10
REMARK    5  A    between atoms: C_14  and  N_15
REMARK                            x       y       z     vdW  Elec       q    Type
REMARK                         _______ _______ _______ _____ _____    ______ ____
ROOT
ATOM      1  S   UNL     1       2.123   7.053  20.239  0.00  0.00    +0.000 S 
ENDROOT
BRANCH   1   5
ATOM      2  O   UNL     1       0.424  11.268  18.529  0.00  0.00    +0.000 OA
ATOM      3  C   UNL     1       0.444  10.516  19.492  0.00  0.00    +0.000 A 
ATOM      4  N   UNL     1       1.164   9.344  19.500  0.00  0.00    +0.000 N 
ATOM      5  C   UNL     1       1.147   8.463  20.541  0.00  0.00    +0.000 A 
ATOM      6  N   UNL     1       0.504   8.658  21.640  0.00  0.00    +0.000 NA
ATOM      7  C   UNL     1      -0.198   9.875  21.772  0.00  0.00    +0.000 A 
ATOM      8  C   UNL     1      -0.803  10.176  22.992  0.00  0.00    +0.000 A 
ATOM      9  C   UNL     1      -1.484  11.385  23.173  0.00  0.00    +0.000 A 
ATOM     10  C   UNL     1      -1.595  12.288  22.115  0.00  0.00    +0.000 A 
ATOM     11 BR   UNL     1      -2.534  13.909  22.367  0.00  0.00    +0.000 Br
ATOM     12  C   UNL     1      -1.007  12.008  20.885  0.00  0.00    +0.000 A 
ATOM     13  C   UNL     1      -0.290  10.815  20.737  0.00  0.00    +0.000 A 
ATOM     14  H   UNL     1       1.707   9.135  18.677  0.00  0.00    +0.000 HD
ENDBRANCH   1   5
BRANCH   1  15
ATOM     15  C   UNL     1       2.661   7.325  18.522  0.00  0.00    +0.000 C 
BRANCH  15  16
ATOM     16  C   UNL     1       3.356   6.098  17.951  0.00  0.00    +0.000 A 
ATOM     17  C   UNL     1       2.825   4.811  18.156  0.00  0.00    +0.000 A 
ATOM     18  C   UNL     1       3.471   3.674  17.624  0.00  0.00    +0.000 A 
ATOM     19  C   UNL     1       4.658   3.797  16.895  0.00  0.00    +0.000 A 
ATOM     20  C   UNL     1       5.194   5.076  16.700  0.00  0.00    +0.000 A 
ATOM     21  C   UNL     1       4.552   6.218  17.220  0.00  0.00    +0.000 A 
BRANCH  18  22
ATOM     22  N   UNL     1       2.891   2.339  17.834  0.00  0.00    +0.000 N 
ATOM     23  O   UNL     1       3.670   1.412  18.103  0.00  0.00    +0.000 OA
ATOM     24  O   UNL     1       1.662   2.219  17.736  0.00  0.00    +0.000 OA
ENDBRANCH  18  22
BRANCH  20  25
ATOM     25  N   UNL     1       6.443   5.225  15.936  0.00  0.00    +0.000 N 
ATOM     26  O   UNL     1       6.397   5.859  14.875  0.00  0.00    +0.000 OA
ATOM     27  O   UNL     1       7.467   4.707  16.405  0.00  0.00    +0.000 OA
ENDBRANCH  20  25
ENDBRANCH  15  16
ENDBRANCH   1  15
TORSDOF 5
ENDMDL
MODEL 8
REMARK VINA RESULT:      -8.0      3.283      4.370
REMARK  Name = 
REMARK  5 active torsions:
REMARK  status: ('A' for Active; 'I' for Inactive)
REMARK    1  A    between atoms: C_4  and  S_5
REMARK    2  A    between atoms: S_5  and  C_6
REMARK    3  A    between atoms: C_6  and  C_7
REMARK    4  A    between atoms: C_9  and  N_10
REMARK    5  A    between atoms: C_14  and  N_15
REMARK                            x       y       z     vdW  Elec       q    Type
REMARK                         _______ _______ _______ _____ _____    ______ ____
ROOT
ATOM      1  S   UNL     1       1.745   8.932  18.693  0.00  0.00    +0.000 S 
ENDROOT
BRANCH   1   5
ATOM      2  O   UNL     1       0.634   9.657  23.364  0.00  0.00    +0.000 OA
ATOM      3  C   UNL     1       0.365   9.968  22.213  0.00  0.00    +0.000 A 
ATOM      4  N   UNL     1       1.000   9.409  21.129  0.00  0.00    +0.000 N 
ATOM      5  C   UNL     1       0.758   9.791  19.842  0.00  0.00    +0.000 A 
ATOM      6  N   UNL     1      -0.122  10.669  19.504  0.00  0.00    +0.000 NA
ATOM      7  C   UNL     1      -0.894  11.242  20.537  0.00  0.00    +0.000 A 
ATOM      8  C   UNL     1      -1.938  12.104  20.200  0.00  0.00    +0.000 A 
ATOM      9  C   UNL     1      -2.746  12.671  21.192  0.00  0.00    +0.000 A 
ATOM     10  C   UNL     1      -2.487  12.405  22.538  0.00  0.00    +0.000 A 
ATOM     11 BR   UNL     1      -3.573  13.191  23.870  0.00  0.00    +0.000 Br
ATOM     12  C   UNL     1      -1.446  11.554  22.901  0.00  0.00    +0.000 A 
ATOM     13  C   UNL     1      -0.679  10.960  21.893  0.00  0.00    +0.000 A 
ATOM     14  H   UNL     1       1.690   8.699  21.318  0.00  0.00    +0.000 HD
ENDBRANCH   1   5
BRANCH   1  15
ATOM     15  C   UNL     1       2.169   7.421  19.613  0.00  0.00    +0.000 C 
BRANCH  15  16
ATOM     16  C   UNL     1       2.790   6.368  18.706  0.00  0.00    +0.000 A 
ATOM     17  C   UNL     1       2.352   5.032  18.752  0.00  0.00    +0.000 A 
ATOM     18  C   UNL     1       2.928   4.057  17.909  0.00  0.00    +0.000 A 
ATOM     19  C   UNL     1       3.953   4.393  17.019  0.00  0.00    +0.000 A 
ATOM     20  C   UNL     1       4.397   5.720  16.979  0.00  0.00    +0.000 A 
ATOM     21  C   UNL     1       3.824   6.702  17.811  0.00  0.00    +0.000 A 
BRANCH  18  22
ATOM     22  N   UNL     1       2.445   2.669  17.960  0.00  0.00    +0.000 N 
ATOM     23  O   UNL     1       1.226   2.493  18.106  0.00  0.00    +0.000 OA
ATOM     24  O   UNL     1       3.278   1.760  17.848  0.00  0.00    +0.000 OA
ENDBRANCH  18  22
BRANCH  20  25
ATOM     25  N   UNL     1       5.476   6.090  16.049  0.00  0.00    +0.000 N 
ATOM     26  O   UNL     1       5.515   5.516  14.954  0.00  0.00    +0.000 OA
ATOM     27  O   UNL     1       6.280   6.958  16.420  0.00  0.00    +0.000 OA
ENDBRANCH  20  25
ENDBRANCH  15  16
ENDBRANCH   1  15
TORSDOF 5
ENDMDL
MODEL 9
REMARK VINA RESULT:      -8.0      3.003      4.262
REMARK  Name = 
REMARK  5 active torsions:
REMARK  status: ('A' for Active; 'I' for Inactive)
REMARK    1  A    between atoms: C_4  and  S_5
REMARK    2  A    between atoms: S_5  and  C_6
REMARK    3  A    between atoms: C_6  and  C_7
REMARK    4  A    between atoms: C_9  and  N_10
REMARK    5  A    between atoms: C_14  and  N_15
REMARK                            x       y       z     vdW  Elec       q    Type
REMARK                         _______ _______ _______ _____ _____    ______ ____
ROOT
ATOM      1  S   UNL     1       1.914   8.815  18.170  0.00  0.00    +0.000 S 
ENDROOT
BRANCH   1   5
ATOM      2  O   UNL     1      -1.607  12.143  17.845  0.00  0.00    +0.000 OA
ATOM      3  C   UNL     1      -0.956  11.449  18.612  0.00  0.00    +0.000 A 
ATOM      4  N   UNL     1       0.047  10.612  18.181  0.00  0.00    +0.000 N 
ATOM      5  C   UNL     1       0.739   9.783  19.015  0.00  0.00    +0.000 A 
ATOM      6  N   UNL     1       0.567   9.737  20.291  0.00  0.00    +0.000 NA
ATOM      7  C   UNL     1      -0.378  10.623  20.849  0.00  0.00    +0.000 A 
ATOM      8  C   UNL     1      -0.504  10.689  22.237  0.00  0.00    +0.000 A 
ATOM      9  C   UNL     1      -1.409  11.575  22.831  0.00  0.00    +0.000 A 
ATOM     10  C   UNL     1      -2.225  12.378  22.033  0.00  0.00    +0.000 A 
ATOM     11 BR   UNL     1      -3.458  13.557  22.847  0.00  0.00    +0.000 Br
ATOM     12  C   UNL     1      -2.125  12.325  20.645  0.00  0.00    +0.000 A 
ATOM     13  C   UNL     1      -1.181  11.467  20.070  0.00  0.00    +0.000 A 
ATOM     14  H   UNL     1       0.249  10.609  17.193  0.00  0.00    +0.000 HD
ENDBRANCH   1   5
BRANCH   1  15
ATOM     15  C   UNL     1       2.291   7.523  19.396  0.00  0.00    +0.000 C 
BRANCH  15  16
ATOM     16  C   UNL     1       3.070   6.373  18.775  0.00  0.00    +0.000 A 
ATOM     17  C   UNL     1       3.751   6.541  17.555  0.00  0.00    +0.000 A 
ATOM     18  C   UNL     1       4.474   5.473  16.983  0.00  0.00    +0.000 A 
ATOM     19  C   UNL     1       4.521   4.221  17.605  0.00  0.00    +0.000 A 
ATOM     20  C   UNL     1       3.836   4.049  18.814  0.00  0.00    +0.000 A 
ATOM     21  C   UNL     1       3.117   5.111  19.398  0.00  0.00    +0.000 A 
BRANCH  18  22
ATOM     22  N   UNL     1       5.194   5.674  15.716  0.00  0.00    +0.000 N 
ATOM     23  O   UNL     1       5.584   4.663  15.113  0.00  0.00    +0.000 OA
ATOM     24  O   UNL     1       5.363   6.836  15.323  0.00  0.00    +0.000 OA
ENDBRANCH  18  22
BRANCH  20  25
ATOM     25  N   UNL     1       3.873   2.738  19.482  0.00  0.00    +0.000 N 
ATOM     26  O   UNL     1       4.926   2.407  20.042  0.00  0.00    +0.000 OA
ATOM     27  O   UNL     1       2.846   2.046  19.445  0.00  0.00    +0.000 OA
ENDBRANCH  20  25
ENDBRANCH  15  16
ENDBRANCH   1  15
TORSDOF 5
ENDMDL
