MODEL 1
REMARK VINA RESULT:      -8.3      0.000      0.000
REMARK  Name = 
REMARK  5 active torsions:
REMARK  status: ('A' for Active; 'I' for Inactive)
REMARK    1  A    between atoms: C_1  and  O_2
REMARK    2  A    between atoms: O_2  and  C_3
REMARK    3  A    between atoms: C_9  and  S_10
REMARK    4  A    between atoms: S_10  and  N_13
REMARK    5  A    between atoms: N_13  and  C_14
REMARK                            x       y       z     vdW  Elec       q    Type
REMARK                         _______ _______ _______ _____ _____    ______ ____
ROOT
ATOM      1  S   UNL     1       2.832   2.975  17.801  0.00  0.00    +0.000 S 
ATOM      2  O   UNL     1       2.298   1.830  18.509  0.00  0.00    +0.000 OA
ATOM      3  O   UNL     1       2.331   3.301  16.479  0.00  0.00    +0.000 OA
ENDROOT
BRANCH   1  10
ATOM      4  C   UNL     1       2.468   4.403  20.180  0.00  0.00    +0.000 A 
ATOM      5  C   UNL     1       2.226   5.601  20.869  0.00  0.00    +0.000 A 
ATOM      6  C   UNL     1       2.128   6.816  20.188  0.00  0.00    +0.000 A 
ATOM      7  C   UNL     1       2.277   6.847  18.805  0.00  0.00    +0.000 A 
ATOM      8 BR   UNL     1       2.137   8.490  17.884  0.00  0.00    +0.000 Br
ATOM      9  C   UNL     1       2.521   5.672  18.100  0.00  0.00    +0.000 A 
ATOM     10  C   UNL     1       2.636   4.449  18.788  0.00  0.00    +0.000 A 
BRANCH   4  12
ATOM     11  C   UNL     1       1.539   2.799  21.664  0.00  0.00    +0.000 C 
ATOM     12  O   UNL     1       2.613   3.206  20.821  0.00  0.00    +0.000 OA
ENDBRANCH   4  12
ENDBRANCH   1  10
BRANCH   1  13
ATOM     13  N   UNL     1       4.494   2.765  17.597  0.00  0.00    +0.000 N 
ATOM     14  H   UNL     1       4.708   1.805  17.329  0.00  0.00    +0.000 HD
BRANCH  13  15
ATOM     15  C   UNL     1       5.239   3.751  16.865  0.00  0.00    +0.000 A 
ATOM     16  C   UNL     1       5.058   3.813  15.480  0.00  0.00    +0.000 A 
ATOM     17  C   UNL     1       5.684   4.813  14.742  0.00  0.00    +0.000 A 
ATOM     18  C   UNL     1       6.515   5.725  15.387  0.00  0.00    +0.000 A 
ATOM     19  C   UNL     1       6.728   5.640  16.772  0.00  0.00    +0.000 A 
ATOM     20  C   UNL     1       7.573   6.546  17.427  0.00  0.00    +0.000 A 
ATOM     21  C   UNL     1       7.761   6.446  18.800  0.00  0.00    +0.000 A 
ATOM     22  C   UNL     1       7.088   5.447  19.475  0.00  0.00    +0.000 A 
ATOM     23  N   UNL     1       6.252   4.564  18.882  0.00  0.00    +0.000 NA
ATOM     24  C   UNL     1       6.084   4.644  17.541  0.00  0.00    +0.000 A 
ENDBRANCH  13  15
ENDBRANCH   1  13
TORSDOF 4
ENDMDL
MODEL 2
REMARK VINA RESULT:      -7.7      2.776      5.550
REMARK  Name = 
REMARK  5 active torsions:
REMARK  status: ('A' for Active; 'I' for Inactive)
REMARK    1  A    between atoms: C_1  and  O_2
REMARK    2  A    between atoms: O_2  and  C_3
REMARK    3  A    between atoms: C_9  and  S_10
REMARK    4  A    between atoms: S_10  and  N_13
REMARK    5  A    between atoms: N_13  and  C_14
REMARK                            x       y       z     vdW  Elec       q    Type
REMARK                         _______ _______ _______ _____ _____    ______ ____
ROOT
ATOM      1  S   UNL     1       3.501   4.317  18.847  0.00  0.00    +0.000 S 
ATOM      2  O   UNL     1       2.297   4.277  18.045  0.00  0.00    +0.000 OA
ATOM      3  O   UNL     1       3.754   3.268  19.818  0.00  0.00    +0.000 OA
ENDROOT
BRANCH   1  10
ATOM      4  C   UNL     1       6.190   4.810  18.245  0.00  0.00    +0.000 A 
ATOM      5  C   UNL     1       7.244   4.914  17.324  0.00  0.00    +0.000 A 
ATOM      6  C   UNL     1       7.052   4.615  15.974  0.00  0.00    +0.000 A 
ATOM      7  C   UNL     1       5.800   4.202  15.529  0.00  0.00    +0.000 A 
ATOM      8 BR   UNL     1       5.541   3.805  13.700  0.00  0.00    +0.000 Br
ATOM      9  C   UNL     1       4.740   4.088  16.423  0.00  0.00    +0.000 A 
ATOM     10  C   UNL     1       4.938   4.374  17.788  0.00  0.00    +0.000 A 
BRANCH   4  12
ATOM     11  C   UNL     1       7.608   5.604  19.976  0.00  0.00    +0.000 C 
ATOM     12  O   UNL     1       6.356   5.052  19.579  0.00  0.00    +0.000 OA
ENDBRANCH   4  12
ENDBRANCH   1  10
BRANCH   1  13
ATOM     13  N   UNL     1       3.518   5.749  19.738  0.00  0.00    +0.000 N 
ATOM     14  H   UNL     1       4.415   5.875  20.206  0.00  0.00    +0.000 HD
BRANCH  13  15
ATOM     15  C   UNL     1       3.003   6.950  19.142  0.00  0.00    +0.000 A 
ATOM     16  C   UNL     1       3.480   7.309  17.877  0.00  0.00    +0.000 A 
ATOM     17  C   UNL     1       2.941   8.410  17.219  0.00  0.00    +0.000 A 
ATOM     18  C   UNL     1       1.952   9.167  17.841  0.00  0.00    +0.000 A 
ATOM     19  C   UNL     1       1.500   8.830  19.127  0.00  0.00    +0.000 A 
ATOM     20  C   UNL     1       0.514   9.593  19.767  0.00  0.00    +0.000 A 
ATOM     21  C   UNL     1       0.077   9.235  21.036  0.00  0.00    +0.000 A 
ATOM     22  C   UNL     1       0.636   8.115  21.620  0.00  0.00    +0.000 A 
ATOM     23  N   UNL     1       1.577   7.343  21.030  0.00  0.00    +0.000 NA
ATOM     24  C   UNL     1       2.021   7.702  19.803  0.00  0.00    +0.000 A 
ENDBRANCH  13  15
ENDBRANCH   1  13
TORSDOF 4
ENDMDL
MODEL 3
REMARK VINA RESULT:      -7.7      0.859      2.231
REMARK  Name = 
REMARK  5 active torsions:
REMARK  status: ('A' for Active; 'I' for Inactive)
REMARK    1  A    between atoms: C_1  and  O_2
REMARK    2  A    between atoms: O_2  and  C_3
REMARK    3  A    between atoms: C_9  and  S_10
REMARK    4  A    between atoms: S_10  and  N_13
REMARK    5  A    between atoms: N_13  and  C_14
REMARK                            x       y       z     vdW  Elec       q    Type
REMARK                         _______ _______ _______ _____ _____    ______ ____
ROOT
ATOM      1  S   UNL     1       2.770   3.084  17.971  0.00  0.00    +0.000 S 
ATOM      2  O   UNL     1       2.059   1.989  18.598  0.00  0.00    +0.000 OA
ATOM      3  O   UNL     1       2.488   3.426  16.589  0.00  0.00    +0.000 OA
ENDROOT
BRANCH   1  10
ATOM      4  C   UNL     1       2.347   4.571  20.304  0.00  0.00    +0.000 A 
ATOM      5  C   UNL     1       2.079   5.785  20.956  0.00  0.00    +0.000 A 
ATOM      6  C   UNL     1       1.978   6.979  20.240  0.00  0.00    +0.000 A 
ATOM      7  C   UNL     1       2.150   6.974  18.860  0.00  0.00    +0.000 A 
ATOM      8 BR   UNL     1       2.005   8.590  17.892  0.00  0.00    +0.000 Br
ATOM      9  C   UNL     1       2.420   5.784  18.190  0.00  0.00    +0.000 A 
ATOM     10  C   UNL     1       2.538   4.582  18.914  0.00  0.00    +0.000 A 
BRANCH   4  12
ATOM     11  C   UNL     1       1.362   2.924  21.702  0.00  0.00    +0.000 C 
ATOM     12  O   UNL     1       2.497   3.394  20.980  0.00  0.00    +0.000 OA
ENDBRANCH   4  12
ENDBRANCH   1  10
BRANCH   1  13
ATOM     13  N   UNL     1       4.424   2.756  18.010  0.00  0.00    +0.000 N 
ATOM     14  H   UNL     1       4.651   1.961  17.413  0.00  0.00    +0.000 HD
BRANCH  13  15
ATOM     15  C   UNL     1       5.356   3.844  17.903  0.00  0.00    +0.000 A 
ATOM     16  C   UNL     1       5.722   4.509  19.077  0.00  0.00    +0.000 A 
ATOM     17  C   UNL     1       6.692   5.505  19.037  0.00  0.00    +0.000 A 
ATOM     18  C   UNL     1       7.269   5.854  17.819  0.00  0.00    +0.000 A 
ATOM     19  C   UNL     1       6.874   5.213  16.634  0.00  0.00    +0.000 A 
ATOM     20  C   UNL     1       7.439   5.567  15.401  0.00  0.00    +0.000 A 
ATOM     21  C   UNL     1       7.038   4.912  14.243  0.00  0.00    +0.000 A 
ATOM     22  C   UNL     1       6.090   3.915  14.359  0.00  0.00    +0.000 A 
ATOM     23  N   UNL     1       5.533   3.533  15.531  0.00  0.00    +0.000 NA
ATOM     24  C   UNL     1       5.905   4.184  16.658  0.00  0.00    +0.000 A 
ENDBRANCH  13  15
ENDBRANCH   1  13
TORSDOF 4
ENDMDL
MODEL 4
REMARK VINA RESULT:      -7.6      3.132      5.908
REMARK  Name = 
REMARK  5 active torsions:
REMARK  status: ('A' for Active; 'I' for Inactive)
REMARK    1  A    between atoms: C_1  and  O_2
REMARK    2  A    between atoms: O_2  and  C_3
REMARK    3  A    between atoms: C_9  and  S_10
REMARK    4  A    between atoms: S_10  and  N_13
REMARK    5  A    between atoms: N_13  and  C_14
REMARK                            x       y       z     vdW  Elec       q    Type
REMARK                         _______ _______ _______ _____ _____    ______ ____
ROOT
ATOM      1  S   UNL     1       2.644   5.219  19.400  0.00  0.00    +0.000 S 
ATOM      2  O   UNL     1       1.371   5.179  18.711  0.00  0.00    +0.000 OA
ATOM      3  O   UNL     1       2.914   4.273  20.467  0.00  0.00    +0.000 OA
ENDROOT
BRANCH   1  10
ATOM      4  C   UNL     1       4.082   3.940  17.368  0.00  0.00    +0.000 A 
ATOM      5  C   UNL     1       5.212   3.833  16.542  0.00  0.00    +0.000 A 
ATOM      6  C   UNL     1       6.229   4.789  16.587  0.00  0.00    +0.000 A 
ATOM      7  C   UNL     1       6.124   5.869  17.457  0.00  0.00    +0.000 A 
ATOM      8 BR   UNL     1       7.504   7.158  17.520  0.00  0.00    +0.000 Br
ATOM      9  C   UNL     1       5.011   5.999  18.283  0.00  0.00    +0.000 A 
ATOM     10  C   UNL     1       3.978   5.044  18.227  0.00  0.00    +0.000 A 
BRANCH   4  12
ATOM     11  C   UNL     1       3.255   1.797  17.970  0.00  0.00    +0.000 C 
ATOM     12  O   UNL     1       3.050   3.047  17.317  0.00  0.00    +0.000 OA
ENDBRANCH   4  12
ENDBRANCH   1  10
BRANCH   1  13
ATOM     13  N   UNL     1       2.836   6.739  20.106  0.00  0.00    +0.000 N 
ATOM     14  H   UNL     1       3.822   6.939  20.275  0.00  0.00    +0.000 HD
BRANCH  13  15
ATOM     15  C   UNL     1       2.103   7.855  19.576  0.00  0.00    +0.000 A 
ATOM     16  C   UNL     1       2.194   8.105  18.203  0.00  0.00    +0.000 A 
ATOM     17  C   UNL     1       1.427   9.114  17.629  0.00  0.00    +0.000 A 
ATOM     18  C   UNL     1       0.598   9.890  18.434  0.00  0.00    +0.000 A 
ATOM     19  C   UNL     1       0.534   9.664  19.819  0.00  0.00    +0.000 A 
ATOM     20  C   UNL     1      -0.288  10.449  20.640  0.00  0.00    +0.000 A 
ATOM     21  C   UNL     1      -0.339  10.200  22.005  0.00  0.00    +0.000 A 
ATOM     22  C   UNL     1       0.427   9.166  22.505  0.00  0.00    +0.000 A 
ATOM     23  N   UNL     1       1.220   8.376  21.745  0.00  0.00    +0.000 NA
ATOM     24  C   UNL     1       1.290   8.630  20.417  0.00  0.00    +0.000 A 
ENDBRANCH  13  15
ENDBRANCH   1  13
TORSDOF 4
ENDMDL
MODEL 5
REMARK VINA RESULT:      -7.3      3.342      5.961
REMARK  Name = 
REMARK  5 active torsions:
REMARK  status: ('A' for Active; 'I' for Inactive)
REMARK    1  A    between atoms: C_1  and  O_2
REMARK    2  A    between atoms: O_2  and  C_3
REMARK    3  A    between atoms: C_9  and  S_10
REMARK    4  A    between atoms: S_10  and  N_13
REMARK    5  A    between atoms: N_13  and  C_14
REMARK                            x       y       z     vdW  Elec       q    Type
REMARK                         _______ _______ _______ _____ _____    ______ ____
ROOT
ATOM      1  S   UNL     1       2.002   5.161  20.444  0.00  0.00    +0.000 S 
ATOM      2  O   UNL     1       0.596   5.177  20.102  0.00  0.00    +0.000 OA
ATOM      3  O   UNL     1       2.458   4.376  21.577  0.00  0.00    +0.000 OA
ENDROOT
BRANCH   1  10
ATOM      4  C   UNL     1       2.450   3.754  18.066  0.00  0.00    +0.000 A 
ATOM      5  C   UNL     1       3.303   3.304  17.047  0.00  0.00    +0.000 A 
ATOM      6  C   UNL     1       4.645   3.686  17.010  0.00  0.00    +0.000 A 
ATOM      7  C   UNL     1       5.150   4.530  17.994  0.00  0.00    +0.000 A 
ATOM      8 BR   UNL     1       6.968   5.041  17.946  0.00  0.00    +0.000 Br
ATOM      9  C   UNL     1       4.323   4.993  19.013  0.00  0.00    +0.000 A 
ATOM     10  C   UNL     1       2.965   4.620  19.041  0.00  0.00    +0.000 A 
BRANCH   4  12
ATOM     11  C   UNL     1       0.786   2.174  18.679  0.00  0.00    +0.000 C 
ATOM     12  O   UNL     1       1.123   3.434  18.105  0.00  0.00    +0.000 OA
ENDBRANCH   4  12
ENDBRANCH   1  10
BRANCH   1  13
ATOM     13  N   UNL     1       2.502   6.737  20.777  0.00  0.00    +0.000 N 
ATOM     14  H   UNL     1       3.515   6.783  20.879  0.00  0.00    +0.000 HD
BRANCH  13  15
ATOM     15  C   UNL     1       1.948   7.822  20.015  0.00  0.00    +0.000 A 
ATOM     16  C   UNL     1       2.247   7.883  18.650  0.00  0.00    +0.000 A 
ATOM     17  C   UNL     1       1.657   8.859  17.854  0.00  0.00    +0.000 A 
ATOM     18  C   UNL     1       0.798   9.790  18.430  0.00  0.00    +0.000 A 
ATOM     19  C   UNL     1       0.527   9.753  19.807  0.00  0.00    +0.000 A 
ATOM     20  C   UNL     1      -0.327  10.695  20.399  0.00  0.00    +0.000 A 
ATOM     21  C   UNL     1      -0.585  10.632  21.762  0.00  0.00    +0.000 A 
ATOM     22  C   UNL     1       0.012   9.622  22.489  0.00  0.00    +0.000 A 
ATOM     23  N   UNL     1       0.829   8.685  21.953  0.00  0.00    +0.000 NA
ATOM     24  C   UNL     1       1.101   8.756  20.629  0.00  0.00    +0.000 A 
ENDBRANCH  13  15
ENDBRANCH   1  13
TORSDOF 4
ENDMDL
MODEL 6
REMARK VINA RESULT:      -6.9      2.974      6.193
REMARK  Name = 
REMARK  5 active torsions:
REMARK  status: ('A' for Active; 'I' for Inactive)
REMARK    1  A    between atoms: C_1  and  O_2
REMARK    2  A    between atoms: O_2  and  C_3
REMARK    3  A    between atoms: C_9  and  S_10
REMARK    4  A    between atoms: S_10  and  N_13
REMARK    5  A    between atoms: N_13  and  C_14
REMARK                            x       y       z     vdW  Elec       q    Type
REMARK                         _______ _______ _______ _____ _____    ______ ____
ROOT
ATOM      1  S   UNL     1       4.559   4.424  17.376  0.00  0.00    +0.000 S 
ATOM      2  O   UNL     1       3.397   3.615  17.075  0.00  0.00    +0.000 OA
ATOM      3  O   UNL     1       5.385   4.097  18.524  0.00  0.00    +0.000 OA
ENDROOT
BRANCH   1  10
ATOM      4  C   UNL     1       6.875   5.158  15.985  0.00  0.00    +0.000 A 
ATOM      5  C   UNL     1       7.632   5.220  14.805  0.00  0.00    +0.000 A 
ATOM      6  C   UNL     1       7.176   4.627  13.626  0.00  0.00    +0.000 A 
ATOM      7  C   UNL     1       5.955   3.961  13.615  0.00  0.00    +0.000 A 
ATOM      8 BR   UNL     1       5.337   3.166  12.016  0.00  0.00    +0.000 Br
ATOM      9  C   UNL     1       5.187   3.883  14.773  0.00  0.00    +0.000 A 
ATOM     10  C   UNL     1       5.655   4.466  15.967  0.00  0.00    +0.000 A 
BRANCH   4  12
ATOM     11  C   UNL     1       7.388   7.109  17.238  0.00  0.00    +0.000 C 
ATOM     12  O   UNL     1       7.313   5.688  17.165  0.00  0.00    +0.000 OA
ENDBRANCH   4  12
ENDBRANCH   1  10
BRANCH   1  13
ATOM     13  N   UNL     1       4.065   6.016  17.634  0.00  0.00    +0.000 N 
ATOM     14  H   UNL     1       3.829   6.470  16.752  0.00  0.00    +0.000 HD
BRANCH  13  15
ATOM     15  C   UNL     1       3.140   6.299  18.695  0.00  0.00    +0.000 A 
ATOM     16  C   UNL     1       2.951   5.321  19.676  0.00  0.00    +0.000 A 
ATOM     17  C   UNL     1       2.138   5.586  20.774  0.00  0.00    +0.000 A 
ATOM     18  C   UNL     1       1.492   6.815  20.869  0.00  0.00    +0.000 A 
ATOM     19  C   UNL     1       1.650   7.784  19.865  0.00  0.00    +0.000 A 
ATOM     20  C   UNL     1       0.992   9.019  19.946  0.00  0.00    +0.000 A 
ATOM     21  C   UNL     1       1.172   9.964  18.944  0.00  0.00    +0.000 A 
ATOM     22  C   UNL     1       2.013   9.645  17.896  0.00  0.00    +0.000 A 
ATOM     23  N   UNL     1       2.678   8.472  17.789  0.00  0.00    +0.000 NA
ATOM     24  C   UNL     1       2.488   7.540  18.753  0.00  0.00    +0.000 A 
ENDBRANCH  13  15
ENDBRANCH   1  13
TORSDOF 4
ENDMDL
MODEL 7
REMARK VINA RESULT:      -6.9      1.158      1.348
REMARK  Name = 
REMARK  5 active torsions:
REMARK  status: ('A' for Active; 'I' for Inactive)
REMARK    1  A    between atoms: C_1  and  O_2
REMARK    2  A    between atoms: O_2  and  C_3
REMARK    3  A    between atoms: C_9  and  S_10
REMARK    4  A    between atoms: S_10  and  N_13
REMARK    5  A    between atoms: N_13  and  C_14
REMARK                            x       y       z     vdW  Elec       q    Type
REMARK                         _______ _______ _______ _____ _____    ______ ____
ROOT
ATOM      1  S   UNL     1       4.064   2.836  19.516  0.00  0.00    +0.000 S 
ATOM      2  O   UNL     1       4.193   2.068  20.736  0.00  0.00    +0.000 OA
ATOM      3  O   UNL     1       3.390   2.257  18.369  0.00  0.00    +0.000 OA
ENDROOT
BRANCH   1  10
ATOM      4  C   UNL     1       2.372   4.548  20.946  0.00  0.00    +0.000 A 
ATOM      5  C   UNL     1       1.690   5.766  21.086  0.00  0.00    +0.000 A 
ATOM      6  C   UNL     1       1.843   6.789  20.147  0.00  0.00    +0.000 A 
ATOM      7  C   UNL     1       2.688   6.606  19.058  0.00  0.00    +0.000 A 
ATOM      8 BR   UNL     1       2.888   7.988  17.786  0.00  0.00    +0.000 Br
ATOM      9  C   UNL     1       3.379   5.408  18.899  0.00  0.00    +0.000 A 
ATOM     10  C   UNL     1       3.237   4.382  19.854  0.00  0.00    +0.000 A 
BRANCH   4  12
ATOM     11  C   UNL     1       1.175   2.655  21.733  0.00  0.00    +0.000 C 
ATOM     12  O   UNL     1       2.279   3.546  21.869  0.00  0.00    +0.000 OA
ENDBRANCH   4  12
ENDBRANCH   1  10
BRANCH   1  13
ATOM     13  N   UNL     1       5.604   3.241  18.959  0.00  0.00    +0.000 N 
ATOM     14  H   UNL     1       6.191   2.411  18.880  0.00  0.00    +0.000 HD
BRANCH  13  15
ATOM     15  C   UNL     1       5.732   4.148  17.852  0.00  0.00    +0.000 A 
ATOM     16  C   UNL     1       4.996   3.876  16.695  0.00  0.00    +0.000 A 
ATOM     17  C   UNL     1       5.014   4.776  15.634  0.00  0.00    +0.000 A 
ATOM     18  C   UNL     1       5.793   5.926  15.721  0.00  0.00    +0.000 A 
ATOM     19  C   UNL     1       6.562   6.181  16.867  0.00  0.00    +0.000 A 
ATOM     20  C   UNL     1       7.360   7.330  16.959  0.00  0.00    +0.000 A 
ATOM     21  C   UNL     1       8.106   7.564  18.107  0.00  0.00    +0.000 A 
ATOM     22  C   UNL     1       8.021   6.643  19.132  0.00  0.00    +0.000 A 
ATOM     23  N   UNL     1       7.252   5.531  19.090  0.00  0.00    +0.000 NA
ATOM     24  C   UNL     1       6.541   5.289  17.964  0.00  0.00    +0.000 A 
ENDBRANCH  13  15
ENDBRANCH   1  13
TORSDOF 4
ENDMDL
MODEL 8
REMARK VINA RESULT:      -6.9      2.456      5.522
REMARK  Name = 
REMARK  5 active torsions:
REMARK  status: ('A' for Active; 'I' for Inactive)
REMARK    1  A    between atoms: C_1  and  O_2
REMARK    2  A    between atoms: O_2  and  C_3
REMARK    3  A    between atoms: C_9  and  S_10
REMARK    4  A    between atoms: S_10  and  N_13
REMARK    5  A    between atoms: N_13  and  C_14
REMARK                            x       y       z     vdW  Elec       q    Type
REMARK                         _______ _______ _______ _____ _____    ______ ____
ROOT
ATOM      1  S   UNL     1       4.067   3.290  17.512  0.00  0.00    +0.000 S 
ATOM      2  O   UNL     1       2.761   3.636  16.991  0.00  0.00    +0.000 OA
ATOM      3  O   UNL     1       4.363   1.912  17.856  0.00  0.00    +0.000 OA
ENDROOT
BRANCH   1  10
ATOM      4  C   UNL     1       6.427   4.594  16.758  0.00  0.00    +0.000 A 
ATOM      5  C   UNL     1       7.329   5.031  15.776  0.00  0.00    +0.000 A 
ATOM      6  C   UNL     1       7.139   4.710  14.430  0.00  0.00    +0.000 A 
ATOM      7  C   UNL     1       6.043   3.942  14.051  0.00  0.00    +0.000 A 
ATOM      8 BR   UNL     1       5.784   3.515  12.229  0.00  0.00    +0.000 Br
ATOM      9  C   UNL     1       5.136   3.493  15.007  0.00  0.00    +0.000 A 
ATOM     10  C   UNL     1       5.336   3.803  16.366  0.00  0.00    +0.000 A 
BRANCH   4  12
ATOM     11  C   UNL     1       7.425   5.973  18.412  0.00  0.00    +0.000 C 
ATOM     12  O   UNL     1       6.608   4.852  18.086  0.00  0.00    +0.000 OA
ENDBRANCH   4  12
ENDBRANCH   1  10
BRANCH   1  13
ATOM     13  N   UNL     1       4.338   4.162  18.931  0.00  0.00    +0.000 N 
ATOM     14  H   UNL     1       5.252   4.613  18.912  0.00  0.00    +0.000 HD
BRANCH  13  15
ATOM     15  C   UNL     1       3.291   4.999  19.449  0.00  0.00    +0.000 A 
ATOM     16  C   UNL     1       2.539   4.517  20.525  0.00  0.00    +0.000 A 
ATOM     17  C   UNL     1       1.580   5.329  21.120  0.00  0.00    +0.000 A 
ATOM     18  C   UNL     1       1.353   6.607  20.617  0.00  0.00    +0.000 A 
ATOM     19  C   UNL     1       2.080   7.078  19.512  0.00  0.00    +0.000 A 
ATOM     20  C   UNL     1       1.849   8.358  18.990  0.00  0.00    +0.000 A 
ATOM     21  C   UNL     1       2.587   8.804  17.901  0.00  0.00    +0.000 A 
ATOM     22  C   UNL     1       3.542   7.956  17.375  0.00  0.00    +0.000 A 
ATOM     23  N   UNL     1       3.807   6.721  17.860  0.00  0.00    +0.000 NA
ATOM     24  C   UNL     1       3.073   6.274  18.907  0.00  0.00    +0.000 A 
ENDBRANCH  13  15
ENDBRANCH   1  13
TORSDOF 4
ENDMDL
MODEL 9
REMARK VINA RESULT:      -6.9      2.650      4.987
REMARK  Name = 
REMARK  5 active torsions:
REMARK  status: ('A' for Active; 'I' for Inactive)
REMARK    1  A    between atoms: C_1  and  O_2
REMARK    2  A    between atoms: O_2  and  C_3
REMARK    3  A    between atoms: C_9  and  S_10
REMARK    4  A    between atoms: S_10  and  N_13
REMARK    5  A    between atoms: N_13  and  C_14
REMARK                            x       y       z     vdW  Elec       q    Type
REMARK                         _______ _______ _______ _____ _____    ______ ____
ROOT
ATOM      1  S   UNL     1       6.329   4.822  18.735  0.00  0.00    +0.000 S 
ATOM      2  O   UNL     1       7.242   4.639  17.626  0.00  0.00    +0.000 OA
ATOM      3  O   UNL     1       6.832   5.302  20.009  0.00  0.00    +0.000 OA
ENDROOT
BRANCH   1  10
ATOM      4  C   UNL     1       4.999   6.600  17.030  0.00  0.00    +0.000 A 
ATOM      5  C   UNL     1       3.978   7.529  16.778  0.00  0.00    +0.000 A 
ATOM      6  C   UNL     1       3.006   7.809  17.741  0.00  0.00    +0.000 A 
ATOM      7  C   UNL     1       3.042   7.157  18.969  0.00  0.00    +0.000 A 
ATOM      8 BR   UNL     1       1.731   7.543  20.273  0.00  0.00    +0.000 Br
ATOM      9  C   UNL     1       4.043   6.229  19.242  0.00  0.00    +0.000 A 
ATOM     10  C   UNL     1       5.014   5.935  18.265  0.00  0.00    +0.000 A 
BRANCH   4  12
ATOM     11  C   UNL     1       5.489   5.494  14.987  0.00  0.00    +0.000 C 
ATOM     12  O   UNL     1       5.938   6.271  16.094  0.00  0.00    +0.000 OA
ENDBRANCH   4  12
ENDBRANCH   1  10
BRANCH   1  13
ATOM     13  N   UNL     1       5.591   3.346  19.086  0.00  0.00    +0.000 N 
ATOM     14  H   UNL     1       5.789   3.060  20.045  0.00  0.00    +0.000 HD
BRANCH  13  15
ATOM     15  C   UNL     1       4.228   3.133  18.688  0.00  0.00    +0.000 A 
ATOM     16  C   UNL     1       3.956   3.015  17.321  0.00  0.00    +0.000 A 
ATOM     17  C   UNL     1       2.666   2.713  16.894  0.00  0.00    +0.000 A 
ATOM     18  C   UNL     1       1.648   2.564  17.832  0.00  0.00    +0.000 A 
ATOM     19  C   UNL     1       1.913   2.720  19.202  0.00  0.00    +0.000 A 
ATOM     20  C   UNL     1       0.891   2.585  20.153  0.00  0.00    +0.000 A 
ATOM     21  C   UNL     1       1.180   2.737  21.503  0.00  0.00    +0.000 A 
ATOM     22  C   UNL     1       2.486   3.009  21.859  0.00  0.00    +0.000 A 
ATOM     23  N   UNL     1       3.502   3.131  20.975  0.00  0.00    +0.000 NA
ATOM     24  C   UNL     1       3.220   3.007  19.656  0.00  0.00    +0.000 A 
ENDBRANCH  13  15
ENDBRANCH   1  13
TORSDOF 4
ENDMDL
