MODEL 1
REMARK VINA RESULT:      -8.3      0.000      0.000
REMARK  Name = 
REMARK  14 active torsions:
REMARK  status: ('A' for Active; 'I' for Inactive)
REMARK    1  A    between atoms: C_1  and  C_2
REMARK    2  A    between atoms: C_2  and  C_3
REMARK    3  A    between atoms: C_3  and  C_4
REMARK    4  A    between atoms: C_5  and  O_6
REMARK    5  A    between atoms: O_6  and  C_7
REMARK    6  A    between atoms: C_7  and  C_8
REMARK    7  A    between atoms: C_11  and  C_12
REMARK    8  A    between atoms: C_12  and  O_13
REMARK    9  A    between atoms: C_12  and  C_14
REMARK   10  A    between atoms: C_18  and  C_19
REMARK   11  A    between atoms: C_19  and  O_21
REMARK   12  A    between atoms: C_27  and  C_28
REMARK   13  A    between atoms: C_28  and  C_29
REMARK   14  A    between atoms: C_31  and  O_32
REMARK                            x       y       z     vdW  Elec       q    Type
REMARK                         _______ _______ _______ _____ _____    ______ ____
ROOT
ATOM      1  C   UNL     1       1.491   7.848  20.390  0.00  0.00    +0.000 A 
ATOM      2  C   UNL     1       1.637   6.522  20.821  0.00  0.00    +0.000 A 
ATOM      3  C   UNL     1       2.203   5.552  19.988  0.00  0.00    +0.000 A 
ATOM      4  C   UNL     1       2.616   5.874  18.688  0.00  0.00    +0.000 A 
ATOM      5  C   UNL     1       2.500   7.205  18.264  0.00  0.00    +0.000 A 
ATOM      6  C   UNL     1       1.949   8.177  19.106  0.00  0.00    +0.000 A 
ENDROOT
BRANCH   1   7
ATOM      7  C   UNL     1       0.765   8.840  21.280  0.00  0.00    +0.000 C 
BRANCH   7   8
ATOM      8  O   UNL     1      -0.343   9.480  20.630  0.00  0.00    +0.000 OA
BRANCH   8  10
ATOM      9  C   UNL     1      -0.580  11.237  19.026  0.00  0.00    +0.000 A 
ATOM     10  C   UNL     1      -0.202  10.808  20.314  0.00  0.00    +0.000 A 
ATOM     11  C   UNL     1       0.263  11.742  21.248  0.00  0.00    +0.000 A 
ATOM     12  C   UNL     1       0.379  13.090  20.929  0.00  0.00    +0.000 A 
ATOM     13  C   UNL     1       0.052  13.542  19.657  0.00  0.00    +0.000 A 
ATOM     14  C   UNL     1      -0.436  12.609  18.715  0.00  0.00    +0.000 A 
BRANCH  13  15
ATOM     15  C   UNL     1       0.217  14.981  19.291  0.00  0.00    +0.000 C 
ATOM     16  C   UNL     1       1.559  15.668  19.345  0.00  0.00    +0.000 C 
ATOM     17  O   UNL     1      -0.779  15.608  18.920  0.00  0.00    +0.000 OA
ENDBRANCH  13  15
BRANCH  14  18
ATOM     18  O   UNL     1      -0.791  13.005  17.445  0.00  0.00    +0.000 OA
ATOM     19  H   UNL     1      -1.757  12.858  17.328  0.00  0.00    +0.000 HD
ENDBRANCH  14  18
BRANCH   9  20
ATOM     20  C   UNL     1      -1.092  10.270  17.969  0.00  0.00    +0.000 C 
BRANCH  20  22
ATOM     21  C   UNL     1      -3.073   9.803  16.414  0.00  0.00    +0.000 C 
ATOM     22  C   UNL     1      -2.614  10.157  17.821  0.00  0.00    +0.000 C 
ENDBRANCH  20  22
ENDBRANCH   9  20
ENDBRANCH   8  10
ENDBRANCH   7   8
ENDBRANCH   1   7
BRANCH   4  23
ATOM     23  C   UNL     1       3.117   4.783  17.760  0.00  0.00    +0.000 C 
BRANCH  23  24
ATOM     24  C   UNL     1       4.621   4.772  17.503  0.00  0.00    +0.000 A 
ATOM     25  C   UNL     1       5.555   4.880  18.551  0.00  0.00    +0.000 A 
ATOM     26  C   UNL     1       6.927   4.898  18.295  0.00  0.00    +0.000 A 
ATOM     27  C   UNL     1       7.390   4.840  16.983  0.00  0.00    +0.000 A 
ATOM     28  C   UNL     1       6.483   4.770  15.919  0.00  0.00    +0.000 A 
ATOM     29  C   UNL     1       5.107   4.728  16.181  0.00  0.00    +0.000 A 
BRANCH  28  30
ATOM     30  C   UNL     1       7.030   4.689  14.543  0.00  0.00    +0.000 C 
ATOM     31  O   UNL     1       7.831   5.498  14.108  0.00  0.00    +0.000 OA
BRANCH  30  32
ATOM     32  O   UNL     1       6.545   3.670  13.801  0.00  0.00    +0.000 OA
ATOM     33  H   UNL     1       6.694   2.778  14.162  0.00  0.00    +0.000 HD
ENDBRANCH  30  32
ENDBRANCH  28  30
ENDBRANCH  23  24
BRANCH  23  34
ATOM     34  O   UNL     1       2.695   3.522  18.281  0.00  0.00    +0.000 OA
ATOM     35  H   UNL     1       3.376   2.875  18.036  0.00  0.00    +0.000 HD
ENDBRANCH  23  34
ENDBRANCH   4  23
TORSDOF 12
ENDMDL
MODEL 2
REMARK VINA RESULT:      -8.0      1.919      2.756
REMARK  Name = 
REMARK  14 active torsions:
REMARK  status: ('A' for Active; 'I' for Inactive)
REMARK    1  A    between atoms: C_1  and  C_2
REMARK    2  A    between atoms: C_2  and  C_3
REMARK    3  A    between atoms: C_3  and  C_4
REMARK    4  A    between atoms: C_5  and  O_6
REMARK    5  A    between atoms: O_6  and  C_7
REMARK    6  A    between atoms: C_7  and  C_8
REMARK    7  A    between atoms: C_11  and  C_12
REMARK    8  A    between atoms: C_12  and  O_13
REMARK    9  A    between atoms: C_12  and  C_14
REMARK   10  A    between atoms: C_18  and  C_19
REMARK   11  A    between atoms: C_19  and  O_21
REMARK   12  A    between atoms: C_27  and  C_28
REMARK   13  A    between atoms: C_28  and  C_29
REMARK   14  A    between atoms: C_31  and  O_32
REMARK                            x       y       z     vdW  Elec       q    Type
REMARK                         _______ _______ _______ _____ _____    ______ ____
ROOT
ATOM      1  C   UNL     1       1.644   7.662  20.440  0.00  0.00    +0.000 A 
ATOM      2  C   UNL     1       2.089   7.972  19.147  0.00  0.00    +0.000 A 
ATOM      3  C   UNL     1       2.474   6.965  18.258  0.00  0.00    +0.000 A 
ATOM      4  C   UNL     1       2.450   5.618  18.643  0.00  0.00    +0.000 A 
ATOM      5  C   UNL     1       1.976   5.301  19.924  0.00  0.00    +0.000 A 
ATOM      6  C   UNL     1       1.576   6.310  20.806  0.00  0.00    +0.000 A 
ENDROOT
BRANCH   1   7
ATOM      7  C   UNL     1       1.349   8.790  21.412  0.00  0.00    +0.000 C 
BRANCH   7   8
ATOM      8  O   UNL     1       1.047  10.034  20.765  0.00  0.00    +0.000 OA
BRANCH   8  10
ATOM      9  C   UNL     1      -0.711  11.603  20.358  0.00  0.00    +0.000 A 
ATOM     10  C   UNL     1      -0.028  10.743  21.241  0.00  0.00    +0.000 A 
ATOM     11  C   UNL     1      -0.481  10.597  22.559  0.00  0.00    +0.000 A 
ATOM     12  C   UNL     1      -1.586  11.299  23.026  0.00  0.00    +0.000 A 
ATOM     13  C   UNL     1      -2.260  12.185  22.195  0.00  0.00    +0.000 A 
ATOM     14  C   UNL     1      -1.821  12.323  20.860  0.00  0.00    +0.000 A 
BRANCH  13  15
ATOM     15  C   UNL     1      -3.420  12.978  22.702  0.00  0.00    +0.000 C 
ATOM     16  C   UNL     1      -3.310  13.861  23.921  0.00  0.00    +0.000 C 
ATOM     17  O   UNL     1      -4.488  12.911  22.088  0.00  0.00    +0.000 OA
ENDBRANCH  13  15
BRANCH  14  18
ATOM     18  O   UNL     1      -2.462  13.174  19.988  0.00  0.00    +0.000 OA
ATOM     19  H   UNL     1      -1.783  13.671  19.477  0.00  0.00    +0.000 HD
ENDBRANCH  14  18
BRANCH   9  20
ATOM     20  C   UNL     1      -0.266  11.803  18.917  0.00  0.00    +0.000 C 
BRANCH  20  22
ATOM     21  C   UNL     1       2.176  12.305  18.332  0.00  0.00    +0.000 C 
ATOM     22  C   UNL     1       0.805  12.872  18.671  0.00  0.00    +0.000 C 
ENDBRANCH  20  22
ENDBRANCH   9  20
ENDBRANCH   8  10
ENDBRANCH   7   8
ENDBRANCH   1   7
BRANCH   4  23
ATOM     23  C   UNL     1       2.984   4.552  17.705  0.00  0.00    +0.000 C 
BRANCH  23  24
ATOM     24  C   UNL     1       4.490   4.577  17.462  0.00  0.00    +0.000 A 
ATOM     25  C   UNL     1       5.412   4.693  18.520  0.00  0.00    +0.000 A 
ATOM     26  C   UNL     1       6.785   4.744  18.278  0.00  0.00    +0.000 A 
ATOM     27  C   UNL     1       7.262   4.712  16.970  0.00  0.00    +0.000 A 
ATOM     28  C   UNL     1       6.367   4.636  15.897  0.00  0.00    +0.000 A 
ATOM     29  C   UNL     1       4.990   4.561  16.144  0.00  0.00    +0.000 A 
BRANCH  28  30
ATOM     30  C   UNL     1       6.929   4.584  14.525  0.00  0.00    +0.000 C 
ATOM     31  O   UNL     1       7.732   5.404  14.115  0.00  0.00    +0.000 OA
BRANCH  30  32
ATOM     32  O   UNL     1       6.454   3.579  13.758  0.00  0.00    +0.000 OA
ATOM     33  H   UNL     1       6.753   3.578  12.832  0.00  0.00    +0.000 HD
ENDBRANCH  30  32
ENDBRANCH  28  30
ENDBRANCH  23  24
BRANCH  23  34
ATOM     34  O   UNL     1       2.584   3.275  18.203  0.00  0.00    +0.000 OA
ATOM     35  H   UNL     1       1.656   3.359  18.477  0.00  0.00    +0.000 HD
ENDBRANCH  23  34
ENDBRANCH   4  23
TORSDOF 12
ENDMDL
MODEL 3
REMARK VINA RESULT:      -8.0      1.614      2.245
REMARK  Name = 
REMARK  14 active torsions:
REMARK  status: ('A' for Active; 'I' for Inactive)
REMARK    1  A    between atoms: C_1  and  C_2
REMARK    2  A    between atoms: C_2  and  C_3
REMARK    3  A    between atoms: C_3  and  C_4
REMARK    4  A    between atoms: C_5  and  O_6
REMARK    5  A    between atoms: O_6  and  C_7
REMARK    6  A    between atoms: C_7  and  C_8
REMARK    7  A    between atoms: C_11  and  C_12
REMARK    8  A    between atoms: C_12  and  O_13
REMARK    9  A    between atoms: C_12  and  C_14
REMARK   10  A    between atoms: C_18  and  C_19
REMARK   11  A    between atoms: C_19  and  O_21
REMARK   12  A    between atoms: C_27  and  C_28
REMARK   13  A    between atoms: C_28  and  C_29
REMARK   14  A    between atoms: C_31  and  O_32
REMARK                            x       y       z     vdW  Elec       q    Type
REMARK                         _______ _______ _______ _____ _____    ______ ____
ROOT
ATOM      1  C   UNL     1       1.759   7.022  20.271  0.00  0.00    +0.000 A 
ATOM      2  C   UNL     1       2.273   7.299  18.997  0.00  0.00    +0.000 A 
ATOM      3  C   UNL     1       2.759   6.275  18.179  0.00  0.00    +0.000 A 
ATOM      4  C   UNL     1       2.770   4.946  18.622  0.00  0.00    +0.000 A 
ATOM      5  C   UNL     1       2.228   4.660  19.883  0.00  0.00    +0.000 A 
ATOM      6  C   UNL     1       1.727   5.685  20.692  0.00  0.00    +0.000 A 
ENDROOT
BRANCH   1   7
ATOM      7  C   UNL     1       1.353   8.174  21.172  0.00  0.00    +0.000 C 
BRANCH   7   8
ATOM      8  O   UNL     1       0.005   8.616  20.956  0.00  0.00    +0.000 OA
BRANCH   8  10
ATOM      9  C   UNL     1      -0.363  10.942  20.537  0.00  0.00    +0.000 A 
ATOM     10  C   UNL     1      -0.332   9.858  21.436  0.00  0.00    +0.000 A 
ATOM     11  C   UNL     1      -0.682  10.058  22.778  0.00  0.00    +0.000 A 
ATOM     12  C   UNL     1      -1.046  11.312  23.252  0.00  0.00    +0.000 A 
ATOM     13  C   UNL     1      -1.051  12.411  22.401  0.00  0.00    +0.000 A 
ATOM     14  C   UNL     1      -0.718  12.214  21.043  0.00  0.00    +0.000 A 
BRANCH  13  15
ATOM     15  C   UNL     1      -1.397  13.772  22.912  0.00  0.00    +0.000 C 
ATOM     16  C   UNL     1      -2.809  14.300  22.881  0.00  0.00    +0.000 C 
ATOM     17  O   UNL     1      -0.493  14.466  23.385  0.00  0.00    +0.000 OA
ENDBRANCH  13  15
BRANCH  14  18
ATOM     18  O   UNL     1      -0.723  13.264  20.153  0.00  0.00    +0.000 OA
ATOM     19  H   UNL     1      -1.263  13.994  20.530  0.00  0.00    +0.000 HD
ENDBRANCH  14  18
BRANCH   9  20
ATOM     20  C   UNL     1       0.007  10.786  19.069  0.00  0.00    +0.000 C 
BRANCH  20  22
ATOM     21  C   UNL     1      -2.003  11.320  17.574  0.00  0.00    +0.000 C 
ATOM     22  C   UNL     1      -1.086  10.245  18.139  0.00  0.00    +0.000 C 
ENDBRANCH  20  22
ENDBRANCH   9  20
ENDBRANCH   8  10
ENDBRANCH   7   8
ENDBRANCH   1   7
BRANCH   4  23
ATOM     23  C   UNL     1       3.409   3.867  17.767  0.00  0.00    +0.000 C 
BRANCH  23  24
ATOM     24  C   UNL     1       4.845   4.138  17.325  0.00  0.00    +0.000 A 
ATOM     25  C   UNL     1       5.865   4.431  18.250  0.00  0.00    +0.000 A 
ATOM     26  C   UNL     1       7.166   4.705  17.827  0.00  0.00    +0.000 A 
ATOM     27  C   UNL     1       7.465   4.721  16.467  0.00  0.00    +0.000 A 
ATOM     28  C   UNL     1       6.463   4.470  15.523  0.00  0.00    +0.000 A 
ATOM     29  C   UNL     1       5.163   4.172  15.952  0.00  0.00    +0.000 A 
BRANCH  28  30
ATOM     30  C   UNL     1       6.841   4.478  14.088  0.00  0.00    +0.000 C 
ATOM     31  O   UNL     1       7.517   5.364  13.595  0.00  0.00    +0.000 OA
BRANCH  30  32
ATOM     32  O   UNL     1       6.348   3.448  13.368  0.00  0.00    +0.000 OA
ATOM     33  H   UNL     1       6.458   2.566  13.765  0.00  0.00    +0.000 HD
ENDBRANCH  30  32
ENDBRANCH  28  30
ENDBRANCH  23  24
BRANCH  23  34
ATOM     34  O   UNL     1       3.334   2.630  18.475  0.00  0.00    +0.000 OA
ATOM     35  H   UNL     1       3.453   2.838  19.417  0.00  0.00    +0.000 HD
ENDBRANCH  23  34
ENDBRANCH   4  23
TORSDOF 12
ENDMDL
MODEL 4
REMARK VINA RESULT:      -8.0      1.542      2.310
REMARK  Name = 
REMARK  14 active torsions:
REMARK  status: ('A' for Active; 'I' for Inactive)
REMARK    1  A    between atoms: C_1  and  C_2
REMARK    2  A    between atoms: C_2  and  C_3
REMARK    3  A    between atoms: C_3  and  C_4
REMARK    4  A    between atoms: C_5  and  O_6
REMARK    5  A    between atoms: O_6  and  C_7
REMARK    6  A    between atoms: C_7  and  C_8
REMARK    7  A    between atoms: C_11  and  C_12
REMARK    8  A    between atoms: C_12  and  O_13
REMARK    9  A    between atoms: C_12  and  C_14
REMARK   10  A    between atoms: C_18  and  C_19
REMARK   11  A    between atoms: C_19  and  O_21
REMARK   12  A    between atoms: C_27  and  C_28
REMARK   13  A    between atoms: C_28  and  C_29
REMARK   14  A    between atoms: C_31  and  O_32
REMARK                            x       y       z     vdW  Elec       q    Type
REMARK                         _______ _______ _______ _____ _____    ______ ____
ROOT
ATOM      1  C   UNL     1       1.552   7.800  20.145  0.00  0.00    +0.000 A 
ATOM      2  C   UNL     1       2.040   8.005  18.848  0.00  0.00    +0.000 A 
ATOM      3  C   UNL     1       2.514   6.939  18.079  0.00  0.00    +0.000 A 
ATOM      4  C   UNL     1       2.539   5.637  18.596  0.00  0.00    +0.000 A 
ATOM      5  C   UNL     1       2.024   5.421  19.882  0.00  0.00    +0.000 A 
ATOM      6  C   UNL     1       1.534   6.488  20.642  0.00  0.00    +0.000 A 
ENDROOT
BRANCH   1   7
ATOM      7  C   UNL     1       1.158   9.000  20.988  0.00  0.00    +0.000 C 
BRANCH   7   8
ATOM      8  O   UNL     1      -0.128   9.536  20.645  0.00  0.00    +0.000 OA
BRANCH   8  10
ATOM      9  C   UNL     1      -0.529  11.281  19.060  0.00  0.00    +0.000 A 
ATOM     10  C   UNL     1      -0.192  10.880  20.368  0.00  0.00    +0.000 A 
ATOM     11  C   UNL     1       0.026  11.847  21.357  0.00  0.00    +0.000 A 
ATOM     12  C   UNL     1      -0.065  13.205  21.075  0.00  0.00    +0.000 A 
ATOM     13  C   UNL     1      -0.358  13.637  19.787  0.00  0.00    +0.000 A 
ATOM     14  C   UNL     1      -0.598  12.667  18.789  0.00  0.00    +0.000 A 
BRANCH  13  15
ATOM     15  C   UNL     1      -0.413  15.094  19.464  0.00  0.00    +0.000 C 
ATOM     16  C   UNL     1      -1.385  16.026  20.146  0.00  0.00    +0.000 C 
ATOM     17  O   UNL     1       0.376  15.538  18.625  0.00  0.00    +0.000 OA
ENDBRANCH  13  15
BRANCH  14  18
ATOM     18  O   UNL     1      -0.908  13.039  17.500  0.00  0.00    +0.000 OA
ATOM     19  H   UNL     1      -0.334  12.535  16.880  0.00  0.00    +0.000 HD
ENDBRANCH  14  18
BRANCH   9  20
ATOM     20  C   UNL     1      -0.777  10.277  17.944  0.00  0.00    +0.000 C 
BRANCH  20  22
ATOM     21  C   UNL     1      -3.271  10.810  18.181  0.00  0.00    +0.000 C 
ATOM     22  C   UNL     1      -2.220   9.790  17.766  0.00  0.00    +0.000 C 
ENDBRANCH  20  22
ENDBRANCH   9  20
ENDBRANCH   8  10
ENDBRANCH   7   8
ENDBRANCH   1   7
BRANCH   4  23
ATOM     23  C   UNL     1       3.167   4.514  17.791  0.00  0.00    +0.000 C 
BRANCH  23  24
ATOM     24  C   UNL     1       4.667   4.641  17.536  0.00  0.00    +0.000 A 
ATOM     25  C   UNL     1       5.254   4.212  16.330  0.00  0.00    +0.000 A 
ATOM     26  C   UNL     1       6.631   4.309  16.125  0.00  0.00    +0.000 A 
ATOM     27  C   UNL     1       7.451   4.807  17.134  0.00  0.00    +0.000 A 
ATOM     28  C   UNL     1       6.899   5.205  18.357  0.00  0.00    +0.000 A 
ATOM     29  C   UNL     1       5.513   5.129  18.551  0.00  0.00    +0.000 A 
BRANCH  28  30
ATOM     30  C   UNL     1       7.815   5.748  19.390  0.00  0.00    +0.000 C 
ATOM     31  O   UNL     1       7.974   5.210  20.471  0.00  0.00    +0.000 OA
BRANCH  30  32
ATOM     32  O   UNL     1       8.428   6.902  19.050  0.00  0.00    +0.000 OA
ATOM     33  H   UNL     1       7.887   7.707  19.133  0.00  0.00    +0.000 HD
ENDBRANCH  30  32
ENDBRANCH  28  30
ENDBRANCH  23  24
BRANCH  23  34
ATOM     34  O   UNL     1       2.879   3.277  18.445  0.00  0.00    +0.000 OA
ATOM     35  H   UNL     1       1.917   3.246  18.574  0.00  0.00    +0.000 HD
ENDBRANCH  23  34
ENDBRANCH   4  23
TORSDOF 12
ENDMDL
MODEL 5
REMARK VINA RESULT:      -8.0      1.472      3.190
REMARK  Name = 
REMARK  14 active torsions:
REMARK  status: ('A' for Active; 'I' for Inactive)
REMARK    1  A    between atoms: C_1  and  C_2
REMARK    2  A    between atoms: C_2  and  C_3
REMARK    3  A    between atoms: C_3  and  C_4
REMARK    4  A    between atoms: C_5  and  O_6
REMARK    5  A    between atoms: O_6  and  C_7
REMARK    6  A    between atoms: C_7  and  C_8
REMARK    7  A    between atoms: C_11  and  C_12
REMARK    8  A    between atoms: C_12  and  O_13
REMARK    9  A    between atoms: C_12  and  C_14
REMARK   10  A    between atoms: C_18  and  C_19
REMARK   11  A    between atoms: C_19  and  O_21
REMARK   12  A    between atoms: C_27  and  C_28
REMARK   13  A    between atoms: C_28  and  C_29
REMARK   14  A    between atoms: C_31  and  O_32
REMARK                            x       y       z     vdW  Elec       q    Type
REMARK                         _______ _______ _______ _____ _____    ______ ____
ROOT
ATOM      1  C   UNL     1       1.646   8.358  19.693  0.00  0.00    +0.000 A 
ATOM      2  C   UNL     1       1.715   7.178  20.446  0.00  0.00    +0.000 A 
ATOM      3  C   UNL     1       2.268   6.012  19.909  0.00  0.00    +0.000 A 
ATOM      4  C   UNL     1       2.744   5.984  18.591  0.00  0.00    +0.000 A 
ATOM      5  C   UNL     1       2.705   7.169  17.844  0.00  0.00    +0.000 A 
ATOM      6  C   UNL     1       2.166   8.339  18.391  0.00  0.00    +0.000 A 
ENDROOT
BRANCH   1   7
ATOM      7  C   UNL     1       0.931   9.565  20.272  0.00  0.00    +0.000 C 
BRANCH   7   8
ATOM      8  O   UNL     1       0.671  10.590  19.302  0.00  0.00    +0.000 OA
BRANCH   8  10
ATOM      9  C   UNL     1      -1.405  11.759  19.504  0.00  0.00    +0.000 A 
ATOM     10  C   UNL     1      -0.630  10.752  18.895  0.00  0.00    +0.000 A 
ATOM     11  C   UNL     1      -1.184   9.974  17.870  0.00  0.00    +0.000 A 
ATOM     12  C   UNL     1      -2.494  10.160  17.447  0.00  0.00    +0.000 A 
ATOM     13  C   UNL     1      -3.299  11.119  18.051  0.00  0.00    +0.000 A 
ATOM     14  C   UNL     1      -2.742  11.920  19.072  0.00  0.00    +0.000 A 
BRANCH  13  15
ATOM     15  C   UNL     1      -4.722  11.295  17.633  0.00  0.00    +0.000 C 
ATOM     16  C   UNL     1      -5.868  10.797  18.478  0.00  0.00    +0.000 C 
ATOM     17  O   UNL     1      -4.952  11.881  16.572  0.00  0.00    +0.000 OA
ENDBRANCH  13  15
BRANCH  14  18
ATOM     18  O   UNL     1      -3.488  12.895  19.693  0.00  0.00    +0.000 OA
ATOM     19  H   UNL     1      -2.898  13.652  19.913  0.00  0.00    +0.000 HD
ENDBRANCH  14  18
BRANCH   9  20
ATOM     20  C   UNL     1      -0.859  12.635  20.622  0.00  0.00    +0.000 C 
BRANCH  20  22
ATOM     21  C   UNL     1      -0.009  14.144  18.735  0.00  0.00    +0.000 C 
ATOM     22  C   UNL     1      -0.332  14.017  20.216  0.00  0.00    +0.000 C 
ENDBRANCH  20  22
ENDBRANCH   9  20
ENDBRANCH   8  10
ENDBRANCH   7   8
ENDBRANCH   1   7
BRANCH   4  23
ATOM     23  C   UNL     1       3.230   4.679  17.989  0.00  0.00    +0.000 C 
BRANCH  23  24
ATOM     24  C   UNL     1       4.698   4.649  17.571  0.00  0.00    +0.000 A 
ATOM     25  C   UNL     1       5.741   4.765  18.509  0.00  0.00    +0.000 A 
ATOM     26  C   UNL     1       7.077   4.765  18.107  0.00  0.00    +0.000 A 
ATOM     27  C   UNL     1       7.395   4.681  16.754  0.00  0.00    +0.000 A 
ATOM     28  C   UNL     1       6.378   4.603  15.795  0.00  0.00    +0.000 A 
ATOM     29  C   UNL     1       5.038   4.579  16.205  0.00  0.00    +0.000 A 
BRANCH  28  30
ATOM     30  C   UNL     1       6.772   4.494  14.369  0.00  0.00    +0.000 C 
ATOM     31  O   UNL     1       7.457   5.335  13.814  0.00  0.00    +0.000 OA
BRANCH  30  32
ATOM     32  O   UNL     1       6.283   3.410  13.730  0.00  0.00    +0.000 OA
ATOM     33  H   UNL     1       6.874   2.637  13.698  0.00  0.00    +0.000 HD
ENDBRANCH  30  32
ENDBRANCH  28  30
ENDBRANCH  23  24
BRANCH  23  34
ATOM     34  O   UNL     1       2.959   3.628  18.916  0.00  0.00    +0.000 OA
ATOM     35  H   UNL     1       1.993   3.523  18.947  0.00  0.00    +0.000 HD
ENDBRANCH  23  34
ENDBRANCH   4  23
TORSDOF 12
ENDMDL
MODEL 6
REMARK VINA RESULT:      -8.0      1.743      3.306
REMARK  Name = 
REMARK  14 active torsions:
REMARK  status: ('A' for Active; 'I' for Inactive)
REMARK    1  A    between atoms: C_1  and  C_2
REMARK    2  A    between atoms: C_2  and  C_3
REMARK    3  A    between atoms: C_3  and  C_4
REMARK    4  A    between atoms: C_5  and  O_6
REMARK    5  A    between atoms: O_6  and  C_7
REMARK    6  A    between atoms: C_7  and  C_8
REMARK    7  A    between atoms: C_11  and  C_12
REMARK    8  A    between atoms: C_12  and  O_13
REMARK    9  A    between atoms: C_12  and  C_14
REMARK   10  A    between atoms: C_18  and  C_19
REMARK   11  A    between atoms: C_19  and  O_21
REMARK   12  A    between atoms: C_27  and  C_28
REMARK   13  A    between atoms: C_28  and  C_29
REMARK   14  A    between atoms: C_31  and  O_32
REMARK                            x       y       z     vdW  Elec       q    Type
REMARK                         _______ _______ _______ _____ _____    ______ ____
ROOT
ATOM      1  C   UNL     1       1.590   8.582  19.660  0.00  0.00    +0.000 A 
ATOM      2  C   UNL     1       1.746   7.434  20.447  0.00  0.00    +0.000 A 
ATOM      3  C   UNL     1       2.292   6.263  19.914  0.00  0.00    +0.000 A 
ATOM      4  C   UNL     1       2.675   6.197  18.568  0.00  0.00    +0.000 A 
ATOM      5  C   UNL     1       2.550   7.353  17.784  0.00  0.00    +0.000 A 
ATOM      6  C   UNL     1       2.018   8.528  18.325  0.00  0.00    +0.000 A 
ENDROOT
BRANCH   1   7
ATOM      7  C   UNL     1       0.885   9.793  20.244  0.00  0.00    +0.000 C 
BRANCH   7   8
ATOM      8  O   UNL     1       0.538  10.778  19.261  0.00  0.00    +0.000 OA
BRANCH   8  10
ATOM      9  C   UNL     1      -1.438  12.046  19.712  0.00  0.00    +0.000 A 
ATOM     10  C   UNL     1      -0.798  10.991  19.031  0.00  0.00    +0.000 A 
ATOM     11  C   UNL     1      -1.520  10.218  18.113  0.00  0.00    +0.000 A 
ATOM     12  C   UNL     1      -2.867  10.456  17.867  0.00  0.00    +0.000 A 
ATOM     13  C   UNL     1      -3.540  11.463  18.548  0.00  0.00    +0.000 A 
ATOM     14  C   UNL     1      -2.814  12.259  19.462  0.00  0.00    +0.000 A 
BRANCH  13  15
ATOM     15  C   UNL     1      -4.998  11.695  18.324  0.00  0.00    +0.000 C 
ATOM     16  C   UNL     1      -5.533  12.193  17.004  0.00  0.00    +0.000 C 
ATOM     17  O   UNL     1      -5.777  11.454  19.250  0.00  0.00    +0.000 OA
ENDBRANCH  13  15
BRANCH  14  18
ATOM     18  O   UNL     1      -3.426  13.280  20.153  0.00  0.00    +0.000 OA
ATOM     19  H   UNL     1      -3.664  12.955  21.051  0.00  0.00    +0.000 HD
ENDBRANCH  14  18
BRANCH   9  20
ATOM     20  C   UNL     1      -0.707  12.919  20.721  0.00  0.00    +0.000 C 
BRANCH  20  22
ATOM     21  C   UNL     1      -1.225  13.397  23.184  0.00  0.00    +0.000 C 
ATOM     22  C   UNL     1      -0.668  12.410  22.168  0.00  0.00    +0.000 C 
ENDBRANCH  20  22
ENDBRANCH   9  20
ENDBRANCH   8  10
ENDBRANCH   7   8
ENDBRANCH   1   7
BRANCH   4  23
ATOM     23  C   UNL     1       3.154   4.883  17.980  0.00  0.00    +0.000 C 
BRANCH  23  24
ATOM     24  C   UNL     1       4.645   4.806  17.660  0.00  0.00    +0.000 A 
ATOM     25  C   UNL     1       5.626   4.912  18.663  0.00  0.00    +0.000 A 
ATOM     26  C   UNL     1       6.985   4.868  18.350  0.00  0.00    +0.000 A 
ATOM     27  C   UNL     1       7.389   4.749  17.023  0.00  0.00    +0.000 A 
ATOM     28  C   UNL     1       6.435   4.679  16.000  0.00  0.00    +0.000 A 
ATOM     29  C   UNL     1       5.071   4.700  16.321  0.00  0.00    +0.000 A 
BRANCH  28  30
ATOM     30  C   UNL     1       6.919   4.531  14.606  0.00  0.00    +0.000 C 
ATOM     31  O   UNL     1       7.692   5.323  14.094  0.00  0.00    +0.000 OA
BRANCH  30  32
ATOM     32  O   UNL     1       6.409   3.473  13.940  0.00  0.00    +0.000 OA
ATOM     33  H   UNL     1       6.919   3.177  13.166  0.00  0.00    +0.000 HD
ENDBRANCH  30  32
ENDBRANCH  28  30
ENDBRANCH  23  24
BRANCH  23  34
ATOM     34  O   UNL     1       2.783   3.831  18.870  0.00  0.00    +0.000 OA
ATOM     35  H   UNL     1       3.475   3.151  18.805  0.00  0.00    +0.000 HD
ENDBRANCH  23  34
ENDBRANCH   4  23
TORSDOF 12
ENDMDL
MODEL 7
REMARK VINA RESULT:      -8.0      2.457      4.083
REMARK  Name = 
REMARK  14 active torsions:
REMARK  status: ('A' for Active; 'I' for Inactive)
REMARK    1  A    between atoms: C_1  and  C_2
REMARK    2  A    between atoms: C_2  and  C_3
REMARK    3  A    between atoms: C_3  and  C_4
REMARK    4  A    between atoms: C_5  and  O_6
REMARK    5  A    between atoms: O_6  and  C_7
REMARK    6  A    between atoms: C_7  and  C_8
REMARK    7  A    between atoms: C_11  and  C_12
REMARK    8  A    between atoms: C_12  and  O_13
REMARK    9  A    between atoms: C_12  and  C_14
REMARK   10  A    between atoms: C_18  and  C_19
REMARK   11  A    between atoms: C_19  and  O_21
REMARK   12  A    between atoms: C_27  and  C_28
REMARK   13  A    between atoms: C_28  and  C_29
REMARK   14  A    between atoms: C_31  and  O_32
REMARK                            x       y       z     vdW  Elec       q    Type
REMARK                         _______ _______ _______ _____ _____    ______ ____
ROOT
ATOM      1  C   UNL     1       1.373   9.860  18.931  0.00  0.00    +0.000 A 
ATOM      2  C   UNL     1       1.192   9.183  20.144  0.00  0.00    +0.000 A 
ATOM      3  C   UNL     1       1.628   7.865  20.306  0.00  0.00    +0.000 A 
ATOM      4  C   UNL     1       2.236   7.175  19.249  0.00  0.00    +0.000 A 
ATOM      5  C   UNL     1       2.448   7.858  18.043  0.00  0.00    +0.000 A 
ATOM      6  C   UNL     1       2.025   9.183  17.890  0.00  0.00    +0.000 A 
ENDROOT
BRANCH   1   7
ATOM      7  C   UNL     1       0.779  11.246  18.759  0.00  0.00    +0.000 C 
BRANCH   7   8
ATOM      8  O   UNL     1      -0.243  11.549  19.720  0.00  0.00    +0.000 OA
BRANCH   8  10
ATOM      9  C   UNL     1      -2.502  12.275  20.021  0.00  0.00    +0.000 A 
ATOM     10  C   UNL     1      -1.540  11.573  19.268  0.00  0.00    +0.000 A 
ATOM     11  C   UNL     1      -1.913  10.957  18.066  0.00  0.00    +0.000 A 
ATOM     12  C   UNL     1      -3.221  11.007  17.602  0.00  0.00    +0.000 A 
ATOM     13  C   UNL     1      -4.204  11.658  18.338  0.00  0.00    +0.000 A 
ATOM     14  C   UNL     1      -3.832  12.298  19.541  0.00  0.00    +0.000 A 
BRANCH  13  15
ATOM     15  C   UNL     1      -5.622  11.678  17.871  0.00  0.00    +0.000 C 
ATOM     16  C   UNL     1      -6.670  10.768  18.463  0.00  0.00    +0.000 C 
ATOM     17  O   UNL     1      -5.935  12.477  16.984  0.00  0.00    +0.000 OA
ENDBRANCH  13  15
BRANCH  14  18
ATOM     18  O   UNL     1      -4.761  12.971  20.302  0.00  0.00    +0.000 OA
ATOM     19  H   UNL     1      -5.050  12.385  21.037  0.00  0.00    +0.000 HD
ENDBRANCH  14  18
BRANCH   9  20
ATOM     20  C   UNL     1      -2.157  12.963  21.333  0.00  0.00    +0.000 C 
BRANCH  20  22
ATOM     21  C   UNL     1      -1.191  11.255  22.980  0.00  0.00    +0.000 C 
ATOM     22  C   UNL     1      -2.369  12.146  22.613  0.00  0.00    +0.000 C 
ENDBRANCH  20  22
ENDBRANCH   9  20
ENDBRANCH   8  10
ENDBRANCH   7   8
ENDBRANCH   1   7
BRANCH   4  23
ATOM     23  C   UNL     1       2.595   5.709  19.408  0.00  0.00    +0.000 C 
BRANCH  23  24
ATOM     24  C   UNL     1       3.673   5.186  18.463  0.00  0.00    +0.000 A 
ATOM     25  C   UNL     1       3.354   4.444  17.310  0.00  0.00    +0.000 A 
ATOM     26  C   UNL     1       4.353   3.948  16.472  0.00  0.00    +0.000 A 
ATOM     27  C   UNL     1       5.693   4.158  16.788  0.00  0.00    +0.000 A 
ATOM     28  C   UNL     1       6.041   4.860  17.949  0.00  0.00    +0.000 A 
ATOM     29  C   UNL     1       5.034   5.377  18.775  0.00  0.00    +0.000 A 
BRANCH  28  30
ATOM     30  C   UNL     1       7.482   5.073  18.227  0.00  0.00    +0.000 C 
ATOM     31  O   UNL     1       7.899   6.071  18.790  0.00  0.00    +0.000 OA
BRANCH  30  32
ATOM     32  O   UNL     1       8.295   4.095  17.776  0.00  0.00    +0.000 OA
ATOM     33  H   UNL     1       9.150   4.012  18.235  0.00  0.00    +0.000 HD
ENDBRANCH  30  32
ENDBRANCH  28  30
ENDBRANCH  23  24
BRANCH  23  34
ATOM     34  O   UNL     1       2.976   5.485  20.766  0.00  0.00    +0.000 OA
ATOM     35  H   UNL     1       3.942   5.387  20.773  0.00  0.00    +0.000 HD
ENDBRANCH  23  34
ENDBRANCH   4  23
TORSDOF 12
ENDMDL
MODEL 8
REMARK VINA RESULT:      -7.9      2.387      3.185
REMARK  Name = 
REMARK  14 active torsions:
REMARK  status: ('A' for Active; 'I' for Inactive)
REMARK    1  A    between atoms: C_1  and  C_2
REMARK    2  A    between atoms: C_2  and  C_3
REMARK    3  A    between atoms: C_3  and  C_4
REMARK    4  A    between atoms: C_5  and  O_6
REMARK    5  A    between atoms: O_6  and  C_7
REMARK    6  A    between atoms: C_7  and  C_8
REMARK    7  A    between atoms: C_11  and  C_12
REMARK    8  A    between atoms: C_12  and  O_13
REMARK    9  A    between atoms: C_12  and  C_14
REMARK   10  A    between atoms: C_18  and  C_19
REMARK   11  A    between atoms: C_19  and  O_21
REMARK   12  A    between atoms: C_27  and  C_28
REMARK   13  A    between atoms: C_28  and  C_29
REMARK   14  A    between atoms: C_31  and  O_32
REMARK                            x       y       z     vdW  Elec       q    Type
REMARK                         _______ _______ _______ _____ _____    ______ ____
ROOT
ATOM      1  C   UNL     1       1.528   7.837  20.581  0.00  0.00    +0.000 A 
ATOM      2  C   UNL     1       1.690   6.477  20.876  0.00  0.00    +0.000 A 
ATOM      3  C   UNL     1       2.201   5.589  19.924  0.00  0.00    +0.000 A 
ATOM      4  C   UNL     1       2.540   6.032  18.639  0.00  0.00    +0.000 A 
ATOM      5  C   UNL     1       2.409   7.397  18.349  0.00  0.00    +0.000 A 
ATOM      6  C   UNL     1       1.913   8.286  19.309  0.00  0.00    +0.000 A 
ENDROOT
BRANCH   1   7
ATOM      7  C   UNL     1       0.860   8.742  21.601  0.00  0.00    +0.000 C 
BRANCH   7   8
ATOM      8  O   UNL     1       0.943  10.134  21.264  0.00  0.00    +0.000 OA
BRANCH   8  10
ATOM      9  C   UNL     1      -0.701  11.671  20.456  0.00  0.00    +0.000 A 
ATOM     10  C   UNL     1      -0.167  10.905  21.510  0.00  0.00    +0.000 A 
ATOM     11  C   UNL     1      -0.797  10.911  22.762  0.00  0.00    +0.000 A 
ATOM     12  C   UNL     1      -1.934  11.673  22.996  0.00  0.00    +0.000 A 
ATOM     13  C   UNL     1      -2.466  12.471  21.990  0.00  0.00    +0.000 A 
ATOM     14  C   UNL     1      -1.848  12.455  20.720  0.00  0.00    +0.000 A 
BRANCH  13  15
ATOM     15  C   UNL     1      -3.661  13.329  22.247  0.00  0.00    +0.000 C 
ATOM     16  C   UNL     1      -3.636  14.452  23.255  0.00  0.00    +0.000 C 
ATOM     17  O   UNL     1      -4.687  13.113  21.596  0.00  0.00    +0.000 OA
ENDBRANCH  13  15
BRANCH  14  18
ATOM     18  O   UNL     1      -2.342  13.213  19.683  0.00  0.00    +0.000 OA
ATOM     19  H   UNL     1      -3.038  12.696  19.218  0.00  0.00    +0.000 HD
ENDBRANCH  14  18
BRANCH   9  20
ATOM     20  C   UNL     1      -0.061  11.705  19.075  0.00  0.00    +0.000 C 
BRANCH  20  22
ATOM     21  C   UNL     1       2.305  12.133  18.193  0.00  0.00    +0.000 C 
ATOM     22  C   UNL     1       1.073  12.717  18.869  0.00  0.00    +0.000 C 
ENDBRANCH  20  22
ENDBRANCH   9  20
ENDBRANCH   8  10
ENDBRANCH   7   8
ENDBRANCH   1   7
BRANCH   4  23
ATOM     23  C   UNL     1       2.981   5.033  17.585  0.00  0.00    +0.000 C 
BRANCH  23  24
ATOM     24  C   UNL     1       4.485   4.951  17.337  0.00  0.00    +0.000 A 
ATOM     25  C   UNL     1       5.021   4.230  16.255  0.00  0.00    +0.000 A 
ATOM     26  C   UNL     1       6.400   4.141  16.060  0.00  0.00    +0.000 A 
ATOM     27  C   UNL     1       7.270   4.747  16.963  0.00  0.00    +0.000 A 
ATOM     28  C   UNL     1       6.765   5.440  18.070  0.00  0.00    +0.000 A 
ATOM     29  C   UNL     1       5.379   5.547  18.249  0.00  0.00    +0.000 A 
BRANCH  28  30
ATOM     30  C   UNL     1       7.735   6.084  18.988  0.00  0.00    +0.000 C 
ATOM     31  O   UNL     1       8.308   7.124  18.711  0.00  0.00    +0.000 OA
BRANCH  30  32
ATOM     32  O   UNL     1       7.958   5.411  20.137  0.00  0.00    +0.000 OA
ATOM     33  H   UNL     1       7.720   4.467  20.126  0.00  0.00    +0.000 HD
ENDBRANCH  30  32
ENDBRANCH  28  30
ENDBRANCH  23  24
BRANCH  23  34
ATOM     34  O   UNL     1       2.467   3.749  17.941  0.00  0.00    +0.000 OA
ATOM     35  H   UNL     1       1.563   3.889  18.267  0.00  0.00    +0.000 HD
ENDBRANCH  23  34
ENDBRANCH   4  23
TORSDOF 12
ENDMDL
MODEL 9
REMARK VINA RESULT:      -7.9      2.002      2.947
REMARK  Name = 
REMARK  14 active torsions:
REMARK  status: ('A' for Active; 'I' for Inactive)
REMARK    1  A    between atoms: C_1  and  C_2
REMARK    2  A    between atoms: C_2  and  C_3
REMARK    3  A    between atoms: C_3  and  C_4
REMARK    4  A    between atoms: C_5  and  O_6
REMARK    5  A    between atoms: O_6  and  C_7
REMARK    6  A    between atoms: C_7  and  C_8
REMARK    7  A    between atoms: C_11  and  C_12
REMARK    8  A    between atoms: C_12  and  O_13
REMARK    9  A    between atoms: C_12  and  C_14
REMARK   10  A    between atoms: C_18  and  C_19
REMARK   11  A    between atoms: C_19  and  O_21
REMARK   12  A    between atoms: C_27  and  C_28
REMARK   13  A    between atoms: C_28  and  C_29
REMARK   14  A    between atoms: C_31  and  O_32
REMARK                            x       y       z     vdW  Elec       q    Type
REMARK                         _______ _______ _______ _____ _____    ______ ____
ROOT
ATOM      1  C   UNL     1       1.642   6.224  20.408  0.00  0.00    +0.000 A 
ATOM      2  C   UNL     1       2.396   6.619  19.295  0.00  0.00    +0.000 A 
ATOM      3  C   UNL     1       3.052   5.676  18.498  0.00  0.00    +0.000 A 
ATOM      4  C   UNL     1       2.996   4.311  18.808  0.00  0.00    +0.000 A 
ATOM      5  C   UNL     1       2.218   3.908  19.903  0.00  0.00    +0.000 A 
ATOM      6  C   UNL     1       1.549   4.853  20.688  0.00  0.00    +0.000 A 
ENDROOT
BRANCH   1   7
ATOM      7  C   UNL     1       1.044   7.286  21.313  0.00  0.00    +0.000 C 
BRANCH   7   8
ATOM      8  O   UNL     1       1.066   8.600  20.738  0.00  0.00    +0.000 OA
BRANCH   8  10
ATOM      9  C   UNL     1      -0.309  10.542  20.504  0.00  0.00    +0.000 A 
ATOM     10  C   UNL     1       0.272   9.554  21.324  0.00  0.00    +0.000 A 
ATOM     11  C   UNL     1      -0.005   9.540  22.697  0.00  0.00    +0.000 A 
ATOM     12  C   UNL     1      -0.830  10.494  23.279  0.00  0.00    +0.000 A 
ATOM     13  C   UNL     1      -1.389  11.506  22.508  0.00  0.00    +0.000 A 
ATOM     14  C   UNL     1      -1.131  11.515  21.120  0.00  0.00    +0.000 A 
BRANCH  13  15
ATOM     15  C   UNL     1      -2.241  12.562  23.133  0.00  0.00    +0.000 C 
ATOM     16  C   UNL     1      -3.520  12.229  23.860  0.00  0.00    +0.000 C 
ATOM     17  O   UNL     1      -1.866  13.735  23.058  0.00  0.00    +0.000 OA
ENDBRANCH  13  15
BRANCH  14  18
ATOM     18  O   UNL     1      -1.672  12.484  20.305  0.00  0.00    +0.000 OA
ATOM     19  H   UNL     1      -2.567  12.191  20.019  0.00  0.00    +0.000 HD
ENDBRANCH  14  18
BRANCH   9  20
ATOM     20  C   UNL     1      -0.046  10.609  19.007  0.00  0.00    +0.000 C 
BRANCH  20  22
ATOM     21  C   UNL     1       2.127   9.948  17.822  0.00  0.00    +0.000 C 
ATOM     22  C   UNL     1       1.365  11.028  18.576  0.00  0.00    +0.000 C 
ENDBRANCH  20  22
ENDBRANCH   9  20
ENDBRANCH   8  10
ENDBRANCH   7   8
ENDBRANCH   1   7
BRANCH   4  23
ATOM     23  C   UNL     1       3.811   3.317  18.002  0.00  0.00    +0.000 C 
BRANCH  23  24
ATOM     24  C   UNL     1       5.122   3.848  17.427  0.00  0.00    +0.000 A 
ATOM     25  C   UNL     1       6.139   4.364  18.251  0.00  0.00    +0.000 A 
ATOM     26  C   UNL     1       7.319   4.873  17.707  0.00  0.00    +0.000 A 
ATOM     27  C   UNL     1       7.491   4.902  16.325  0.00  0.00    +0.000 A 
ATOM     28  C   UNL     1       6.480   4.430  15.480  0.00  0.00    +0.000 A 
ATOM     29  C   UNL     1       5.307   3.898  16.031  0.00  0.00    +0.000 A 
BRANCH  28  30
ATOM     30  C   UNL     1       6.724   4.465  14.017  0.00  0.00    +0.000 C 
ATOM     31  O   UNL     1       6.230   3.655  13.252  0.00  0.00    +0.000 OA
BRANCH  30  32
ATOM     32  O   UNL     1       7.562   5.442  13.607  0.00  0.00    +0.000 OA
ATOM     33  H   UNL     1       8.490   5.176  13.483  0.00  0.00    +0.000 HD
ENDBRANCH  30  32
ENDBRANCH  28  30
ENDBRANCH  23  24
BRANCH  23  34
ATOM     34  O   UNL     1       4.057   2.171  18.818  0.00  0.00    +0.000 OA
ATOM     35  H   UNL     1       3.992   2.465  19.742  0.00  0.00    +0.000 HD
ENDBRANCH  23  34
ENDBRANCH   4  23
TORSDOF 12
ENDMDL
