MODEL 1
REMARK VINA RESULT:      -9.0      0.000      0.000
REMARK  Name = 
REMARK  6 active torsions:
REMARK  status: ('A' for Active; 'I' for Inactive)
REMARK    1  A    between atoms: C_2  and  C_3
REMARK    2  A    between atoms: C_4  and  C_5
REMARK    3  A    between atoms: N_12  and  C_13
REMARK    4  A    between atoms: C_13  and  C_14
REMARK    5  A    between atoms: N_18  and  C_19
REMARK    6  A    between atoms: C_19  and  C_20
REMARK                            x       y       z     vdW  Elec       q    Type
REMARK                         _______ _______ _______ _____ _____    ______ ____
ROOT
ATOM      1  C   UNL     1       4.552   3.068  19.979  0.00  0.00    +0.000 C 
ENDROOT
BRANCH   1   2
ATOM      2  C   UNL     1       3.043   3.109  19.821  0.00  0.00    +0.000 C 
ATOM      3  C   UNL     1       2.088   2.582  20.978  0.00  0.00    +0.000 C 
ATOM      4  C   UNL     1       1.090   2.520  19.793  0.00  0.00    +0.000 C 
ATOM      5  C   UNL     1       0.968   3.972  19.366  0.00  0.00    +0.000 C 
ATOM      6  N   UNL     1       2.386   4.374  19.340  0.00  0.00    +0.000 NA
ATOM      7  C   UNL     1       2.300   1.994  18.977  0.00  0.00    +0.000 C 
BRANCH   6   8
ATOM      8  C   UNL     1       2.676   5.521  20.214  0.00  0.00    +0.000 C 
BRANCH   8   9
ATOM      9  C   UNL     1       2.279   6.857  19.614  0.00  0.00    +0.000 A 
ATOM     10  C   UNL     1       2.536   7.126  18.259  0.00  0.00    +0.000 A 
ATOM     11  C   UNL     1       2.196   8.361  17.702  0.00  0.00    +0.000 A 
ATOM     12  C   UNL     1       1.588   9.337  18.488  0.00  0.00    +0.000 A 
ATOM     13  C   UNL     1       1.316   9.077  19.830  0.00  0.00    +0.000 A 
ATOM     14  C   UNL     1       1.658   7.845  20.392  0.00  0.00    +0.000 A 
ENDBRANCH   8   9
ENDBRANCH   6   8
ENDBRANCH   1   2
BRANCH   1  17
ATOM     15  O   UNL     1       5.997   5.411  19.175  0.00  0.00    +0.000 OA
ATOM     16  C   UNL     1       5.886   4.465  18.409  0.00  0.00    +0.000 C 
ATOM     17  N   UNL     1       5.205   3.305  18.702  0.00  0.00    +0.000 N 
ATOM     18  H   UNL     1       5.157   2.571  18.012  0.00  0.00    +0.000 HD
BRANCH  16  19
ATOM     19  C   UNL     1       6.463   4.469  17.031  0.00  0.00    +0.000 C 
ATOM     20  C   UNL     1       5.663   4.389  15.957  0.00  0.00    +0.000 C 
BRANCH  20  21
ATOM     21  C   UNL     1       6.185   4.389  14.584  0.00  0.00    +0.000 A 
ATOM     22  C   UNL     1       5.584   3.596  13.595  0.00  0.00    +0.000 A 
ATOM     23  C   UNL     1       6.088   3.581  12.290  0.00  0.00    +0.000 A 
ATOM     24  C   UNL     1       7.196   4.366  11.962  0.00  0.00    +0.000 A 
ATOM     25  C   UNL     1       7.784   5.155  12.945  0.00  0.00    +0.000 A 
ATOM     26  F   UNL     1       8.845   5.910  12.630  0.00  0.00    +0.000 F 
ATOM     27  C   UNL     1       7.293   5.172  14.248  0.00  0.00    +0.000 A 
ENDBRANCH  20  21
ENDBRANCH  16  19
ENDBRANCH   1  17
TORSDOF 6
ENDMDL
MODEL 2
REMARK VINA RESULT:      -8.8      0.980      1.360
REMARK  Name = 
REMARK  6 active torsions:
REMARK  status: ('A' for Active; 'I' for Inactive)
REMARK    1  A    between atoms: C_2  and  C_3
REMARK    2  A    between atoms: C_4  and  C_5
REMARK    3  A    between atoms: N_12  and  C_13
REMARK    4  A    between atoms: C_13  and  C_14
REMARK    5  A    between atoms: N_18  and  C_19
REMARK    6  A    between atoms: C_19  and  C_20
REMARK                            x       y       z     vdW  Elec       q    Type
REMARK                         _______ _______ _______ _____ _____    ______ ____
ROOT
ATOM      1  C   UNL     1       4.786   3.354  19.965  0.00  0.00    +0.000 C 
ENDROOT
BRANCH   1   2
ATOM      2  C   UNL     1       3.276   3.259  19.845  0.00  0.00    +0.000 C 
ATOM      3  C   UNL     1       2.402   2.650  21.025  0.00  0.00    +0.000 C 
ATOM      4  C   UNL     1       1.384   2.498  19.865  0.00  0.00    +0.000 C 
ATOM      5  C   UNL     1       1.122   3.932  19.444  0.00  0.00    +0.000 C 
ATOM      6  N   UNL     1       2.496   4.460  19.383  0.00  0.00    +0.000 NA
ATOM      7  C   UNL     1       2.615   2.082  19.018  0.00  0.00    +0.000 C 
BRANCH   6   8
ATOM      8  C   UNL     1       2.704   5.629  20.252  0.00  0.00    +0.000 C 
BRANCH   8   9
ATOM      9  C   UNL     1       2.314   6.945  19.603  0.00  0.00    +0.000 A 
ATOM     10  C   UNL     1       2.647   7.196  18.263  0.00  0.00    +0.000 A 
ATOM     11  C   UNL     1       2.315   8.412  17.662  0.00  0.00    +0.000 A 
ATOM     12  C   UNL     1       1.637   9.387  18.391  0.00  0.00    +0.000 A 
ATOM     13  C   UNL     1       1.289   9.144  19.719  0.00  0.00    +0.000 A 
ATOM     14  C   UNL     1       1.624   7.931  20.323  0.00  0.00    +0.000 A 
ENDBRANCH   8   9
ENDBRANCH   6   8
ENDBRANCH   1   2
BRANCH   1  17
ATOM     15  O   UNL     1       6.474   5.531  19.166  0.00  0.00    +0.000 OA
ATOM     16  C   UNL     1       6.195   4.646  18.370  0.00  0.00    +0.000 C 
ATOM     17  N   UNL     1       5.389   3.569  18.659  0.00  0.00    +0.000 N 
ATOM     18  H   UNL     1       5.206   2.882  17.944  0.00  0.00    +0.000 HD
BRANCH  16  19
ATOM     19  C   UNL     1       6.687   4.645  16.960  0.00  0.00    +0.000 C 
ATOM     20  C   UNL     1       5.874   4.283  15.956  0.00  0.00    +0.000 C 
BRANCH  20  21
ATOM     21  C   UNL     1       6.313   4.265  14.554  0.00  0.00    +0.000 A 
ATOM     22  C   UNL     1       7.344   5.112  14.120  0.00  0.00    +0.000 A 
ATOM     23  C   UNL     1       7.752   5.110  12.782  0.00  0.00    +0.000 A 
ATOM     24  C   UNL     1       7.136   4.253  11.868  0.00  0.00    +0.000 A 
ATOM     25  C   UNL     1       6.119   3.411  12.304  0.00  0.00    +0.000 A 
ATOM     26  F   UNL     1       5.529   2.588  11.427  0.00  0.00    +0.000 F 
ATOM     27  C   UNL     1       5.701   3.410  13.633  0.00  0.00    +0.000 A 
ENDBRANCH  20  21
ENDBRANCH  16  19
ENDBRANCH   1  17
TORSDOF 6
ENDMDL
MODEL 3
REMARK VINA RESULT:      -8.7      1.122      1.743
REMARK  Name = 
REMARK  6 active torsions:
REMARK  status: ('A' for Active; 'I' for Inactive)
REMARK    1  A    between atoms: C_2  and  C_3
REMARK    2  A    between atoms: C_4  and  C_5
REMARK    3  A    between atoms: N_12  and  C_13
REMARK    4  A    between atoms: C_13  and  C_14
REMARK    5  A    between atoms: N_18  and  C_19
REMARK    6  A    between atoms: C_19  and  C_20
REMARK                            x       y       z     vdW  Elec       q    Type
REMARK                         _______ _______ _______ _____ _____    ______ ____
ROOT
ATOM      1  C   UNL     1       4.471   3.358  19.954  0.00  0.00    +0.000 C 
ENDROOT
BRANCH   1   2
ATOM      2  C   UNL     1       2.975   3.379  20.209  0.00  0.00    +0.000 C 
ATOM      3  C   UNL     1       2.385   2.962  21.625  0.00  0.00    +0.000 C 
ATOM      4  C   UNL     1       1.106   2.784  20.767  0.00  0.00    +0.000 C 
ATOM      5  C   UNL     1       0.831   4.187  20.259  0.00  0.00    +0.000 C 
ATOM      6  N   UNL     1       2.176   4.590  19.811  0.00  0.00    +0.000 NA
ATOM      7  C   UNL     1       2.065   2.185  19.704  0.00  0.00    +0.000 C 
BRANCH   6   8
ATOM      8  C   UNL     1       2.657   5.816  20.465  0.00  0.00    +0.000 C 
BRANCH   8   9
ATOM      9  C   UNL     1       2.234   7.089  19.755  0.00  0.00    +0.000 A 
ATOM     10  C   UNL     1       1.521   8.080  20.449  0.00  0.00    +0.000 A 
ATOM     11  C   UNL     1       1.106   9.245  19.800  0.00  0.00    +0.000 A 
ATOM     12  C   UNL     1       1.407   9.438  18.454  0.00  0.00    +0.000 A 
ATOM     13  C   UNL     1       2.126   8.467  17.758  0.00  0.00    +0.000 A 
ATOM     14  C   UNL     1       2.538   7.300  18.402  0.00  0.00    +0.000 A 
ENDBRANCH   8   9
ENDBRANCH   6   8
ENDBRANCH   1   2
BRANCH   1  17
ATOM     15  O   UNL     1       5.675   5.482  18.448  0.00  0.00    +0.000 OA
ATOM     16  C   UNL     1       5.337   4.448  17.889  0.00  0.00    +0.000 C 
ATOM     17  N   UNL     1       4.745   3.381  18.525  0.00  0.00    +0.000 N 
ATOM     18  H   UNL     1       4.493   2.564  17.991  0.00  0.00    +0.000 HD
BRANCH  16  19
ATOM     19  C   UNL     1       5.506   4.232  16.421  0.00  0.00    +0.000 C 
ATOM     20  C   UNL     1       6.550   4.766  15.769  0.00  0.00    +0.000 C 
BRANCH  20  21
ATOM     21  C   UNL     1       6.757   4.581  14.328  0.00  0.00    +0.000 A 
ATOM     22  C   UNL     1       7.683   5.375  13.634  0.00  0.00    +0.000 A 
ATOM     23  C   UNL     1       7.871   5.214  12.257  0.00  0.00    +0.000 A 
ATOM     24  C   UNL     1       7.139   4.248  11.564  0.00  0.00    +0.000 A 
ATOM     25  C   UNL     1       6.227   3.458  12.257  0.00  0.00    +0.000 A 
ATOM     26  F   UNL     1       5.526   2.530  11.591  0.00  0.00    +0.000 F 
ATOM     27  C   UNL     1       6.029   3.616  13.626  0.00  0.00    +0.000 A 
ENDBRANCH  20  21
ENDBRANCH  16  19
ENDBRANCH   1  17
TORSDOF 6
ENDMDL
MODEL 4
REMARK VINA RESULT:      -8.1      4.618      5.766
REMARK  Name = 
REMARK  6 active torsions:
REMARK  status: ('A' for Active; 'I' for Inactive)
REMARK    1  A    between atoms: C_2  and  C_3
REMARK    2  A    between atoms: C_4  and  C_5
REMARK    3  A    between atoms: N_12  and  C_13
REMARK    4  A    between atoms: C_13  and  C_14
REMARK    5  A    between atoms: N_18  and  C_19
REMARK    6  A    between atoms: C_19  and  C_20
REMARK                            x       y       z     vdW  Elec       q    Type
REMARK                         _______ _______ _______ _____ _____    ______ ____
ROOT
ATOM      1  C   UNL     1       4.785   6.605  16.763  0.00  0.00    +0.000 C 
ENDROOT
BRANCH   1   2
ATOM      2  C   UNL     1       4.339   5.407  17.581  0.00  0.00    +0.000 C 
ATOM      3  C   UNL     1       5.382   4.582  18.452  0.00  0.00    +0.000 C 
ATOM      4  C   UNL     1       4.257   3.520  18.350  0.00  0.00    +0.000 C 
ATOM      5  C   UNL     1       3.091   4.181  19.062  0.00  0.00    +0.000 C 
ATOM      6  N   UNL     1       3.126   5.527  18.463  0.00  0.00    +0.000 NA
ATOM      7  C   UNL     1       4.118   4.004  16.882  0.00  0.00    +0.000 C 
BRANCH   6   8
ATOM      8  C   UNL     1       3.265   6.599  19.461  0.00  0.00    +0.000 C 
BRANCH   8   9
ATOM      9  C   UNL     1       2.277   7.735  19.275  0.00  0.00    +0.000 A 
ATOM     10  C   UNL     1       1.559   8.233  20.374  0.00  0.00    +0.000 A 
ATOM     11  C   UNL     1       0.630   9.263  20.211  0.00  0.00    +0.000 A 
ATOM     12  C   UNL     1       0.415   9.813  18.949  0.00  0.00    +0.000 A 
ATOM     13  C   UNL     1       1.131   9.336  17.852  0.00  0.00    +0.000 A 
ATOM     14  C   UNL     1       2.057   8.304  18.012  0.00  0.00    +0.000 A 
ENDBRANCH   8   9
ENDBRANCH   6   8
ENDBRANCH   1   2
BRANCH   1  17
ATOM     15  O   UNL     1       7.595   6.471  16.201  0.00  0.00    +0.000 OA
ATOM     16  C   UNL     1       7.181   7.195  17.095  0.00  0.00    +0.000 C 
ATOM     17  N   UNL     1       5.856   7.318  17.443  0.00  0.00    +0.000 N 
ATOM     18  H   UNL     1       5.596   7.936  18.196  0.00  0.00    +0.000 HD
BRANCH  16  19
ATOM     19  C   UNL     1       8.086   8.024  17.946  0.00  0.00    +0.000 C 
ATOM     20  C   UNL     1       8.208   9.342  17.728  0.00  0.00    +0.000 C 
BRANCH  20  21
ATOM     21  C   UNL     1       9.085  10.198  18.537  0.00  0.00    +0.000 A 
ATOM     22  C   UNL     1       8.930  10.260  19.930  0.00  0.00    +0.000 A 
ATOM     23  C   UNL     1       9.752  11.088  20.703  0.00  0.00    +0.000 A 
ATOM     24  C   UNL     1      10.744  11.854  20.087  0.00  0.00    +0.000 A 
ATOM     25  C   UNL     1      10.898  11.783  18.706  0.00  0.00    +0.000 A 
ATOM     26  F   UNL     1      11.851  12.517  18.116  0.00  0.00    +0.000 F 
ATOM     27  C   UNL     1      10.080  10.968  17.928  0.00  0.00    +0.000 A 
ENDBRANCH  20  21
ENDBRANCH  16  19
ENDBRANCH   1  17
TORSDOF 6
ENDMDL
MODEL 5
REMARK VINA RESULT:      -8.0      4.895      7.363
REMARK  Name = 
REMARK  6 active torsions:
REMARK  status: ('A' for Active; 'I' for Inactive)
REMARK    1  A    between atoms: C_2  and  C_3
REMARK    2  A    between atoms: C_4  and  C_5
REMARK    3  A    between atoms: N_12  and  C_13
REMARK    4  A    between atoms: C_13  and  C_14
REMARK    5  A    between atoms: N_18  and  C_19
REMARK    6  A    between atoms: C_19  and  C_20
REMARK                            x       y       z     vdW  Elec       q    Type
REMARK                         _______ _______ _______ _____ _____    ______ ____
ROOT
ATOM      1  C   UNL     1       7.194   4.841  18.099  0.00  0.00    +0.000 C 
ENDROOT
BRANCH   1   2
ATOM      2  C   UNL     1       5.696   4.611  18.024  0.00  0.00    +0.000 C 
ATOM      3  C   UNL     1       4.681   5.639  18.686  0.00  0.00    +0.000 C 
ATOM      4  C   UNL     1       3.746   4.406  18.584  0.00  0.00    +0.000 C 
ATOM      5  C   UNL     1       3.651   4.165  17.089  0.00  0.00    +0.000 C 
ATOM      6  N   UNL     1       5.069   4.265  16.700  0.00  0.00    +0.000 NA
ATOM      7  C   UNL     1       4.996   3.592  19.012  0.00  0.00    +0.000 C 
BRANCH   6   8
ATOM      8  C   UNL     1       5.316   5.295  15.679  0.00  0.00    +0.000 C 
BRANCH   8   9
ATOM      9  C   UNL     1       5.864   4.740  14.377  0.00  0.00    +0.000 A 
ATOM     10  C   UNL     1       5.100   3.838  13.617  0.00  0.00    +0.000 A 
ATOM     11  C   UNL     1       5.604   3.304  12.430  0.00  0.00    +0.000 A 
ATOM     12  C   UNL     1       6.870   3.671  11.982  0.00  0.00    +0.000 A 
ATOM     13  C   UNL     1       7.632   4.576  12.720  0.00  0.00    +0.000 A 
ATOM     14  C   UNL     1       7.134   5.109  13.910  0.00  0.00    +0.000 A 
ENDBRANCH   8   9
ENDBRANCH   6   8
ENDBRANCH   1   2
BRANCH   1  17
ATOM     15  O   UNL     1       7.886   7.124  16.507  0.00  0.00    +0.000 OA
ATOM     16  C   UNL     1       7.798   7.227  17.722  0.00  0.00    +0.000 C 
ATOM     17  N   UNL     1       7.482   6.188  18.567  0.00  0.00    +0.000 N 
ATOM     18  H   UNL     1       7.431   6.355  19.560  0.00  0.00    +0.000 HD
BRANCH  16  19
ATOM     19  C   UNL     1       8.055   8.508  18.444  0.00  0.00    +0.000 C 
ATOM     20  C   UNL     1       8.733   9.502  17.850  0.00  0.00    +0.000 C 
BRANCH  20  21
ATOM     21  C   UNL     1       9.010  10.779  18.520  0.00  0.00    +0.000 A 
ATOM     22  C   UNL     1       8.825  11.993  17.842  0.00  0.00    +0.000 A 
ATOM     23  C   UNL     1       9.105  13.211  18.471  0.00  0.00    +0.000 A 
ATOM     24  C   UNL     1       9.563  13.223  19.790  0.00  0.00    +0.000 A 
ATOM     25  C   UNL     1       9.738  12.017  20.461  0.00  0.00    +0.000 A 
ATOM     26  F   UNL     1      10.176  12.030  21.726  0.00  0.00    +0.000 F 
ATOM     27  C   UNL     1       9.469  10.800  19.840  0.00  0.00    +0.000 A 
ENDBRANCH  20  21
ENDBRANCH  16  19
ENDBRANCH   1  17
TORSDOF 6
ENDMDL
MODEL 6
REMARK VINA RESULT:      -7.9      4.789      7.324
REMARK  Name = 
REMARK  6 active torsions:
REMARK  status: ('A' for Active; 'I' for Inactive)
REMARK    1  A    between atoms: C_2  and  C_3
REMARK    2  A    between atoms: C_4  and  C_5
REMARK    3  A    between atoms: N_12  and  C_13
REMARK    4  A    between atoms: C_13  and  C_14
REMARK    5  A    between atoms: N_18  and  C_19
REMARK    6  A    between atoms: C_19  and  C_20
REMARK                            x       y       z     vdW  Elec       q    Type
REMARK                         _______ _______ _______ _____ _____    ______ ____
ROOT
ATOM      1  C   UNL     1       7.084   4.945  18.091  0.00  0.00    +0.000 C 
ENDROOT
BRANCH   1   2
ATOM      2  C   UNL     1       5.606   4.610  18.011  0.00  0.00    +0.000 C 
ATOM      3  C   UNL     1       4.517   5.581  18.641  0.00  0.00    +0.000 C 
ATOM      4  C   UNL     1       3.671   4.284  18.565  0.00  0.00    +0.000 C 
ATOM      5  C   UNL     1       3.605   4.000  17.075  0.00  0.00    +0.000 C 
ATOM      6  N   UNL     1       5.016   4.189  16.693  0.00  0.00    +0.000 NA
ATOM      7  C   UNL     1       4.970   3.570  19.021  0.00  0.00    +0.000 C 
BRANCH   6   8
ATOM      8  C   UNL     1       5.199   5.207  15.648  0.00  0.00    +0.000 C 
BRANCH   8   9
ATOM      9  C   UNL     1       5.809   4.663  14.369  0.00  0.00    +0.000 A 
ATOM     10  C   UNL     1       7.091   5.071  13.969  0.00  0.00    +0.000 A 
ATOM     11  C   UNL     1       7.653   4.595  12.783  0.00  0.00    +0.000 A 
ATOM     12  C   UNL     1       6.945   3.696  11.989  0.00  0.00    +0.000 A 
ATOM     13  C   UNL     1       5.676   3.272  12.382  0.00  0.00    +0.000 A 
ATOM     14  C   UNL     1       5.110   3.750  13.565  0.00  0.00    +0.000 A 
ENDBRANCH   8   9
ENDBRANCH   6   8
ENDBRANCH   1   2
BRANCH   1  17
ATOM     15  O   UNL     1       7.923   7.096  16.389  0.00  0.00    +0.000 OA
ATOM     16  C   UNL     1       7.673   7.307  17.567  0.00  0.00    +0.000 C 
ATOM     17  N   UNL     1       7.273   6.339  18.460  0.00  0.00    +0.000 N 
ATOM     18  H   UNL     1       7.087   6.595  19.417  0.00  0.00    +0.000 HD
BRANCH  16  19
ATOM     19  C   UNL     1       7.799   8.659  18.189  0.00  0.00    +0.000 C 
ATOM     20  C   UNL     1       8.996   9.257  18.282  0.00  0.00    +0.000 C 
BRANCH  20  21
ATOM     21  C   UNL     1       9.169  10.584  18.886  0.00  0.00    +0.000 A 
ATOM     22  C   UNL     1       9.410  10.714  20.262  0.00  0.00    +0.000 A 
ATOM     23  C   UNL     1       9.558  11.978  20.844  0.00  0.00    +0.000 A 
ATOM     24  C   UNL     1       9.475  13.123  20.050  0.00  0.00    +0.000 A 
ATOM     25  C   UNL     1       9.243  12.989  18.685  0.00  0.00    +0.000 A 
ATOM     26  F   UNL     1       9.165  14.089  17.923  0.00  0.00    +0.000 F 
ATOM     27  C   UNL     1       9.088  11.736  18.098  0.00  0.00    +0.000 A 
ENDBRANCH  20  21
ENDBRANCH  16  19
ENDBRANCH   1  17
TORSDOF 6
ENDMDL
MODEL 7
REMARK VINA RESULT:      -7.9      3.358      7.403
REMARK  Name = 
REMARK  6 active torsions:
REMARK  status: ('A' for Active; 'I' for Inactive)
REMARK    1  A    between atoms: C_2  and  C_3
REMARK    2  A    between atoms: C_4  and  C_5
REMARK    3  A    between atoms: N_12  and  C_13
REMARK    4  A    between atoms: C_13  and  C_14
REMARK    5  A    between atoms: N_18  and  C_19
REMARK    6  A    between atoms: C_19  and  C_20
REMARK                            x       y       z     vdW  Elec       q    Type
REMARK                         _______ _______ _______ _____ _____    ______ ____
ROOT
ATOM      1  C   UNL     1       3.705   5.279  19.861  0.00  0.00    +0.000 C 
ENDROOT
BRANCH   1   2
ATOM      2  C   UNL     1       3.008   3.965  19.556  0.00  0.00    +0.000 C 
ATOM      3  C   UNL     1       1.423   3.883  19.477  0.00  0.00    +0.000 C 
ATOM      4  C   UNL     1       1.733   2.380  19.699  0.00  0.00    +0.000 C 
ATOM      5  C   UNL     1       2.534   2.005  18.465  0.00  0.00    +0.000 C 
ATOM      6  N   UNL     1       3.485   3.129  18.399  0.00  0.00    +0.000 NA
ATOM      7  C   UNL     1       2.806   2.888  20.698  0.00  0.00    +0.000 C 
BRANCH   6   8
ATOM      8  C   UNL     1       3.428   3.858  17.123  0.00  0.00    +0.000 C 
BRANCH   8   9
ATOM      9  C   UNL     1       4.794   4.200  16.557  0.00  0.00    +0.000 A 
ATOM     10  C   UNL     1       4.951   4.429  15.181  0.00  0.00    +0.000 A 
ATOM     11  C   UNL     1       6.207   4.723  14.646  0.00  0.00    +0.000 A 
ATOM     12  C   UNL     1       7.319   4.801  15.481  0.00  0.00    +0.000 A 
ATOM     13  C   UNL     1       7.174   4.588  16.852  0.00  0.00    +0.000 A 
ATOM     14  C   UNL     1       5.920   4.290  17.389  0.00  0.00    +0.000 A 
ENDBRANCH   8   9
ENDBRANCH   6   8
ENDBRANCH   1   2
BRANCH   1  17
ATOM     15  O   UNL     1       3.483   7.279  17.817  0.00  0.00    +0.000 OA
ATOM     16  C   UNL     1       2.723   7.293  18.774  0.00  0.00    +0.000 C 
ATOM     17  N   UNL     1       2.759   6.382  19.806  0.00  0.00    +0.000 N 
ATOM     18  H   UNL     1       2.097   6.464  20.561  0.00  0.00    +0.000 HD
BRANCH  16  19
ATOM     19  C   UNL     1       1.667   8.333  18.951  0.00  0.00    +0.000 C 
ATOM     20  C   UNL     1       1.739   9.497  18.287  0.00  0.00    +0.000 C 
BRANCH  20  21
ATOM     21  C   UNL     1       0.725  10.550  18.429  0.00  0.00    +0.000 A 
ATOM     22  C   UNL     1       1.105  11.872  18.706  0.00  0.00    +0.000 A 
ATOM     23  C   UNL     1       0.141  12.874  18.859  0.00  0.00    +0.000 A 
ATOM     24  C   UNL     1      -1.214  12.562  18.728  0.00  0.00    +0.000 A 
ATOM     25  C   UNL     1      -1.586  11.251  18.447  0.00  0.00    +0.000 A 
ATOM     26  F   UNL     1      -2.886  10.953  18.320  0.00  0.00    +0.000 F 
ATOM     27  C   UNL     1      -0.633  10.246  18.299  0.00  0.00    +0.000 A 
ENDBRANCH  20  21
ENDBRANCH  16  19
ENDBRANCH   1  17
TORSDOF 6
ENDMDL
MODEL 8
REMARK VINA RESULT:      -7.8      3.798      7.835
REMARK  Name = 
REMARK  6 active torsions:
REMARK  status: ('A' for Active; 'I' for Inactive)
REMARK    1  A    between atoms: C_2  and  C_3
REMARK    2  A    between atoms: C_4  and  C_5
REMARK    3  A    between atoms: N_12  and  C_13
REMARK    4  A    between atoms: C_13  and  C_14
REMARK    5  A    between atoms: N_18  and  C_19
REMARK    6  A    between atoms: C_19  and  C_20
REMARK                            x       y       z     vdW  Elec       q    Type
REMARK                         _______ _______ _______ _____ _____    ______ ____
ROOT
ATOM      1  C   UNL     1       3.177   6.158  19.428  0.00  0.00    +0.000 C 
ENDROOT
BRANCH   1   2
ATOM      2  C   UNL     1       2.877   4.813  18.793  0.00  0.00    +0.000 C 
ATOM      3  C   UNL     1       1.671   4.645  17.772  0.00  0.00    +0.000 C 
ATOM      4  C   UNL     1       1.860   3.159  18.170  0.00  0.00    +0.000 C 
ATOM      5  C   UNL     1       3.263   2.845  17.682  0.00  0.00    +0.000 C 
ATOM      6  N   UNL     1       4.000   4.020  18.180  0.00  0.00    +0.000 NA
ATOM      7  C   UNL     1       2.081   3.710  19.603  0.00  0.00    +0.000 C 
BRANCH   6   8
ATOM      8  C   UNL     1       4.690   4.762  17.114  0.00  0.00    +0.000 C 
BRANCH   8   9
ATOM      9  C   UNL     1       5.897   5.542  17.601  0.00  0.00    +0.000 A 
ATOM     10  C   UNL     1       6.643   5.078  18.696  0.00  0.00    +0.000 A 
ATOM     11  C   UNL     1       7.742   5.800  19.167  0.00  0.00    +0.000 A 
ATOM     12  C   UNL     1       8.114   6.988  18.544  0.00  0.00    +0.000 A 
ATOM     13  C   UNL     1       7.390   7.453  17.447  0.00  0.00    +0.000 A 
ATOM     14  C   UNL     1       6.288   6.736  16.977  0.00  0.00    +0.000 A 
ENDBRANCH   8   9
ENDBRANCH   6   8
ENDBRANCH   1   2
BRANCH   1  17
ATOM     15  O   UNL     1       3.364   8.427  17.682  0.00  0.00    +0.000 OA
ATOM     16  C   UNL     1       2.312   8.175  18.251  0.00  0.00    +0.000 C 
ATOM     17  N   UNL     1       2.129   7.117  19.111  0.00  0.00    +0.000 N 
ATOM     18  H   UNL     1       1.229   6.979  19.543  0.00  0.00    +0.000 HD
BRANCH  16  19
ATOM     19  C   UNL     1       1.088   9.017  18.095  0.00  0.00    +0.000 C 
ATOM     20  C   UNL     1       0.573   9.671  19.147  0.00  0.00    +0.000 C 
BRANCH  20  21
ATOM     21  C   UNL     1      -0.628  10.510  19.043  0.00  0.00    +0.000 A 
ATOM     22  C   UNL     1      -0.965  11.401  20.072  0.00  0.00    +0.000 A 
ATOM     23  C   UNL     1      -2.118  12.189  19.984  0.00  0.00    +0.000 A 
ATOM     24  C   UNL     1      -2.939  12.098  18.859  0.00  0.00    +0.000 A 
ATOM     25  C   UNL     1      -2.597  11.217  17.837  0.00  0.00    +0.000 A 
ATOM     26  F   UNL     1      -3.385  11.130  16.757  0.00  0.00    +0.000 F 
ATOM     27  C   UNL     1      -1.455  10.424  17.919  0.00  0.00    +0.000 A 
ENDBRANCH  20  21
ENDBRANCH  16  19
ENDBRANCH   1  17
TORSDOF 6
ENDMDL
MODEL 9
REMARK VINA RESULT:      -7.8      3.674      7.699
REMARK  Name = 
REMARK  6 active torsions:
REMARK  status: ('A' for Active; 'I' for Inactive)
REMARK    1  A    between atoms: C_2  and  C_3
REMARK    2  A    between atoms: C_4  and  C_5
REMARK    3  A    between atoms: N_12  and  C_13
REMARK    4  A    between atoms: C_13  and  C_14
REMARK    5  A    between atoms: N_18  and  C_19
REMARK    6  A    between atoms: C_19  and  C_20
REMARK                            x       y       z     vdW  Elec       q    Type
REMARK                         _______ _______ _______ _____ _____    ______ ____
ROOT
ATOM      1  C   UNL     1       2.116   4.916  17.852  0.00  0.00    +0.000 C 
ENDROOT
BRANCH   1   2
ATOM      2  C   UNL     1       2.211   3.929  19.001  0.00  0.00    +0.000 C 
ATOM      3  C   UNL     1       1.547   2.489  18.895  0.00  0.00    +0.000 C 
ATOM      4  C   UNL     1       1.673   2.585  20.437  0.00  0.00    +0.000 C 
ATOM      5  C   UNL     1       3.172   2.671  20.659  0.00  0.00    +0.000 C 
ATOM      6  N   UNL     1       3.544   3.681  19.652  0.00  0.00    +0.000 NA
ATOM      7  C   UNL     1       1.241   4.063  20.246  0.00  0.00    +0.000 C 
BRANCH   6   8
ATOM      8  C   UNL     1       4.551   3.197  18.695  0.00  0.00    +0.000 C 
BRANCH   8   9
ATOM      9  C   UNL     1       5.478   4.286  18.186  0.00  0.00    +0.000 A 
ATOM     10  C   UNL     1       5.660   4.469  16.806  0.00  0.00    +0.000 A 
ATOM     11  C   UNL     1       6.527   5.453  16.326  0.00  0.00    +0.000 A 
ATOM     12  C   UNL     1       7.214   6.272  17.219  0.00  0.00    +0.000 A 
ATOM     13  C   UNL     1       7.032   6.109  18.592  0.00  0.00    +0.000 A 
ATOM     14  C   UNL     1       6.169   5.123  19.074  0.00  0.00    +0.000 A 
ENDBRANCH   8   9
ENDBRANCH   6   8
ENDBRANCH   1   2
BRANCH   1  17
ATOM     15  O   UNL     1       3.693   7.311  17.789  0.00  0.00    +0.000 OA
ATOM     16  C   UNL     1       2.565   7.331  18.258  0.00  0.00    +0.000 C 
ATOM     17  N   UNL     1       1.739   6.233  18.339  0.00  0.00    +0.000 N 
ATOM     18  H   UNL     1       0.821   6.333  18.744  0.00  0.00    +0.000 HD
BRANCH  16  19
ATOM     19  C   UNL     1       1.951   8.566  18.832  0.00  0.00    +0.000 C 
ATOM     20  C   UNL     1       1.361   8.537  20.037  0.00  0.00    +0.000 C 
BRANCH  20  21
ATOM     21  C   UNL     1       0.743   9.724  20.641  0.00  0.00    +0.000 A 
ATOM     22  C   UNL     1       0.897  10.986  20.048  0.00  0.00    +0.000 A 
ATOM     23  C   UNL     1       0.325  12.122  20.630  0.00  0.00    +0.000 A 
ATOM     24  C   UNL     1      -0.414  12.003  21.809  0.00  0.00    +0.000 A 
ATOM     25  C   UNL     1      -0.570  10.748  22.390  0.00  0.00    +0.000 A 
ATOM     26  F   UNL     1      -1.281  10.634  23.520  0.00  0.00    +0.000 F 
ATOM     27  C   UNL     1       0.001   9.612  21.821  0.00  0.00    +0.000 A 
ENDBRANCH  20  21
ENDBRANCH  16  19
ENDBRANCH   1  17
TORSDOF 6
ENDMDL
