MODEL 1
REMARK VINA RESULT:      -7.7      0.000      0.000
REMARK  Name = 
REMARK  4 active torsions:
REMARK  status: ('A' for Active; 'I' for Inactive)
REMARK    1  A    between atoms: C_2  and  C_3
REMARK    2  A    between atoms: C_11  and  O_12
REMARK    3  A    between atoms: O_12  and  C_13
REMARK    4  A    between atoms: C_13  and  C_14
REMARK                            x       y       z     vdW  Elec       q    Type
REMARK                         _______ _______ _______ _____ _____    ______ ____
ROOT
ATOM      1  O   UNL     1       4.362   7.642  17.061  0.00  0.00    +0.000 OA
ATOM      2  C   UNL     1       4.451   6.452  17.353  0.00  0.00    +0.000 C 
ATOM      3  N   UNL     1       3.630   5.899  18.330  0.00  0.00    +0.000 N 
ATOM      4  C   UNL     1       2.613   6.742  18.963  0.00  0.00    +0.000 C 
ATOM      5  C   UNL     1       1.817   5.810  19.892  0.00  0.00    +0.000 C 
ATOM      6  C   UNL     1       2.891   4.781  20.262  0.00  0.00    +0.000 C 
ATOM      7  O   UNL     1       2.468   3.581  20.891  0.00  0.00    +0.000 OA
ATOM      8  C   UNL     1       1.666   2.728  20.090  0.00  0.00    +0.000 C 
ATOM      9  C   UNL     1       2.372   2.335  18.801  0.00  0.00    +0.000 C 
ATOM     10  C   UNL     1       2.858   3.551  18.020  0.00  0.00    +0.000 C 
ATOM     11  C   UNL     1       3.590   4.559  18.920  0.00  0.00    +0.000 C 
ENDROOT
BRANCH   2  12
ATOM     12  C   UNL     1       5.415   5.626  16.571  0.00  0.00    +0.000 A 
ATOM     13  C   UNL     1       5.188   5.047  15.329  0.00  0.00    +0.000 A 
ATOM     14  C   UNL     1       6.233   4.420  14.679  0.00  0.00    +0.000 A 
ATOM     15  N   UNL     1       7.449   4.282  15.231  0.00  0.00    +0.000 NA
ATOM     16  N   UNL     1       7.663   4.758  16.484  0.00  0.00    +0.000 NA
ATOM     17  C   UNL     1       6.663   5.412  17.129  0.00  0.00    +0.000 A 
ENDBRANCH   2  12
BRANCH   5  18
ATOM     18  O   UNL     1       1.315   6.450  21.059  0.00  0.00    +0.000 OA
BRANCH  18  19
ATOM     19  C   UNL     1       1.464   7.866  21.001  0.00  0.00    +0.000 C 
BRANCH  19  20
ATOM     20  C   UNL     1       0.075   8.512  20.933  0.00  0.00    +0.000 C 
ATOM     21  C   UNL     1      -0.535   8.649  22.333  0.00  0.00    +0.000 C 
ATOM     22  C   UNL     1       0.100   9.787  23.125  0.00  0.00    +0.000 C 
ATOM     23  O   UNL     1       0.041  11.013  22.399  0.00  0.00    +0.000 OA
ATOM     24  C   UNL     1       0.728  10.948  21.150  0.00  0.00    +0.000 C 
ATOM     25  C   UNL     1       0.107   9.888  20.250  0.00  0.00    +0.000 C 
ENDBRANCH  19  20
ENDBRANCH  18  19
ENDBRANCH   5  18
TORSDOF 4
ENDMDL
MODEL 2
REMARK VINA RESULT:      -7.4      4.188      8.622
REMARK  Name = 
REMARK  4 active torsions:
REMARK  status: ('A' for Active; 'I' for Inactive)
REMARK    1  A    between atoms: C_2  and  C_3
REMARK    2  A    between atoms: C_11  and  O_12
REMARK    3  A    between atoms: O_12  and  C_13
REMARK    4  A    between atoms: C_13  and  C_14
REMARK                            x       y       z     vdW  Elec       q    Type
REMARK                         _______ _______ _______ _____ _____    ______ ____
ROOT
ATOM      1  O   UNL     1       2.146   3.337  17.101  0.00  0.00    +0.000 OA
ATOM      2  C   UNL     1       3.069   3.511  17.895  0.00  0.00    +0.000 C 
ATOM      3  N   UNL     1       4.300   3.987  17.457  0.00  0.00    +0.000 N 
ATOM      4  C   UNL     1       4.463   4.338  16.044  0.00  0.00    +0.000 C 
ATOM      5  C   UNL     1       5.878   4.930  15.922  0.00  0.00    +0.000 C 
ATOM      6  C   UNL     1       6.606   4.177  17.041  0.00  0.00    +0.000 C 
ATOM      7  O   UNL     1       7.883   4.655  17.437  0.00  0.00    +0.000 OA
ATOM      8  C   UNL     1       7.887   5.936  18.047  0.00  0.00    +0.000 C 
ATOM      9  C   UNL     1       6.988   5.979  19.275  0.00  0.00    +0.000 C 
ATOM     10  C   UNL     1       5.573   5.505  18.967  0.00  0.00    +0.000 C 
ATOM     11  C   UNL     1       5.567   4.196  18.162  0.00  0.00    +0.000 C 
ENDROOT
BRANCH   2  12
ATOM     12  C   UNL     1       2.786   3.261  19.337  0.00  0.00    +0.000 A 
ATOM     13  C   UNL     1       1.667   3.682  20.045  0.00  0.00    +0.000 A 
ATOM     14  C   UNL     1       1.494   3.254  21.346  0.00  0.00    +0.000 A 
ATOM     15  N   UNL     1       2.403   2.502  21.986  0.00  0.00    +0.000 NA
ATOM     16  N   UNL     1       3.548   2.159  21.342  0.00  0.00    +0.000 NA
ATOM     17  C   UNL     1       3.725   2.535  20.049  0.00  0.00    +0.000 A 
ENDBRANCH   2  12
BRANCH   5  18
ATOM     18  O   UNL     1       6.500   4.684  14.667  0.00  0.00    +0.000 OA
BRANCH  18  19
ATOM     19  C   UNL     1       5.876   3.616  13.959  0.00  0.00    +0.000 C 
BRANCH  19  20
ATOM     20  C   UNL     1       5.789   3.986  12.473  0.00  0.00    +0.000 C 
ATOM     21  C   UNL     1       7.176   3.956  11.819  0.00  0.00    +0.000 C 
ATOM     22  C   UNL     1       7.659   2.531  11.571  0.00  0.00    +0.000 C 
ATOM     23  O   UNL     1       6.703   1.786  10.821  0.00  0.00    +0.000 OA
ATOM     24  C   UNL     1       5.442   1.683  11.482  0.00  0.00    +0.000 C 
ATOM     25  C   UNL     1       4.835   3.063  11.699  0.00  0.00    +0.000 C 
ENDBRANCH  19  20
ENDBRANCH  18  19
ENDBRANCH   5  18
TORSDOF 4
ENDMDL
MODEL 3
REMARK VINA RESULT:      -7.3      2.546      7.216
REMARK  Name = 
REMARK  4 active torsions:
REMARK  status: ('A' for Active; 'I' for Inactive)
REMARK    1  A    between atoms: C_2  and  C_3
REMARK    2  A    between atoms: C_11  and  O_12
REMARK    3  A    between atoms: O_12  and  C_13
REMARK    4  A    between atoms: C_13  and  C_14
REMARK                            x       y       z     vdW  Elec       q    Type
REMARK                         _______ _______ _______ _____ _____    ______ ____
ROOT
ATOM      1  O   UNL     1       3.076   8.456  18.118  0.00  0.00    +0.000 OA
ATOM      2  C   UNL     1       2.368   7.743  18.826  0.00  0.00    +0.000 C 
ATOM      3  N   UNL     1       2.473   6.358  18.766  0.00  0.00    +0.000 N 
ATOM      4  C   UNL     1       3.485   5.760  17.891  0.00  0.00    +0.000 C 
ATOM      5  C   UNL     1       3.414   4.245  18.145  0.00  0.00    +0.000 C 
ATOM      6  C   UNL     1       1.938   4.081  18.523  0.00  0.00    +0.000 C 
ATOM      7  O   UNL     1       1.538   2.852  19.110  0.00  0.00    +0.000 OA
ATOM      8  C   UNL     1       2.084   2.587  20.392  0.00  0.00    +0.000 C 
ATOM      9  C   UNL     1       1.752   3.690  21.386  0.00  0.00    +0.000 C 
ATOM     10  C   UNL     1       2.158   5.067  20.873  0.00  0.00    +0.000 C 
ATOM     11  C   UNL     1       1.706   5.297  19.422  0.00  0.00    +0.000 C 
ENDROOT
BRANCH   2  12
ATOM     12  C   UNL     1       1.459   8.426  19.790  0.00  0.00    +0.000 A 
ATOM     13  C   UNL     1       1.373   8.187  21.157  0.00  0.00    +0.000 A 
ATOM     14  C   UNL     1       0.569   8.999  21.932  0.00  0.00    +0.000 A 
ATOM     15  N   UNL     1      -0.195   9.971  21.408  0.00  0.00    +0.000 NA
ATOM     16  N   UNL     1      -0.197  10.157  20.064  0.00  0.00    +0.000 NA
ATOM     17  C   UNL     1       0.614   9.397  19.283  0.00  0.00    +0.000 A 
ENDBRANCH   2  12
BRANCH   5  18
ATOM     18  O   UNL     1       3.729   3.453  17.007  0.00  0.00    +0.000 OA
BRANCH  18  19
ATOM     19  C   UNL     1       4.444   4.193  16.020  0.00  0.00    +0.000 C 
BRANCH  19  20
ATOM     20  C   UNL     1       5.874   3.647  15.926  0.00  0.00    +0.000 C 
ATOM     21  C   UNL     1       6.425   3.793  14.503  0.00  0.00    +0.000 C 
ATOM     22  C   UNL     1       6.813   5.233  14.185  0.00  0.00    +0.000 C 
ATOM     23  O   UNL     1       7.719   5.748  15.159  0.00  0.00    +0.000 OA
ATOM     24  C   UNL     1       7.169   5.751  16.476  0.00  0.00    +0.000 C 
ATOM     25  C   UNL     1       6.825   4.335  16.919  0.00  0.00    +0.000 C 
ENDBRANCH  19  20
ENDBRANCH  18  19
ENDBRANCH   5  18
TORSDOF 4
ENDMDL
MODEL 4
REMARK VINA RESULT:      -7.3      0.785      1.323
REMARK  Name = 
REMARK  4 active torsions:
REMARK  status: ('A' for Active; 'I' for Inactive)
REMARK    1  A    between atoms: C_2  and  C_3
REMARK    2  A    between atoms: C_11  and  O_12
REMARK    3  A    between atoms: O_12  and  C_13
REMARK    4  A    between atoms: C_13  and  C_14
REMARK                            x       y       z     vdW  Elec       q    Type
REMARK                         _______ _______ _______ _____ _____    ______ ____
ROOT
ATOM      1  O   UNL     1       4.446   7.644  17.373  0.00  0.00    +0.000 OA
ATOM      2  C   UNL     1       4.459   6.489  17.794  0.00  0.00    +0.000 C 
ATOM      3  N   UNL     1       3.560   6.082  18.775  0.00  0.00    +0.000 N 
ATOM      4  C   UNL     1       2.555   7.034  19.255  0.00  0.00    +0.000 C 
ATOM      5  C   UNL     1       1.665   6.245  20.229  0.00  0.00    +0.000 C 
ATOM      6  C   UNL     1       2.663   5.215  20.767  0.00  0.00    +0.000 C 
ATOM      7  O   UNL     1       2.147   4.110  21.494  0.00  0.00    +0.000 OA
ATOM      8  C   UNL     1       1.346   3.212  20.743  0.00  0.00    +0.000 C 
ATOM      9  C   UNL     1       2.099   2.651  19.545  0.00  0.00    +0.000 C 
ATOM     10  C   UNL     1       2.687   3.752  18.670  0.00  0.00    +0.000 C 
ATOM     11  C   UNL     1       3.420   4.817  19.499  0.00  0.00    +0.000 C 
ENDROOT
BRANCH   2  12
ATOM     12  C   UNL     1       5.419   5.541  17.161  0.00  0.00    +0.000 A 
ATOM     13  C   UNL     1       5.182   4.745  16.047  0.00  0.00    +0.000 A 
ATOM     14  C   UNL     1       6.224   4.017  15.507  0.00  0.00    +0.000 A 
ATOM     15  N   UNL     1       7.447   3.988  16.058  0.00  0.00    +0.000 NA
ATOM     16  N   UNL     1       7.673   4.685  17.200  0.00  0.00    +0.000 NA
ATOM     17  C   UNL     1       6.676   5.439  17.731  0.00  0.00    +0.000 A 
ENDBRANCH   2  12
BRANCH   5  18
ATOM     18  O   UNL     1       1.135   7.029  21.291  0.00  0.00    +0.000 OA
BRANCH  18  19
ATOM     19  C   UNL     1       0.594   8.264  20.828  0.00  0.00    +0.000 C 
BRANCH  19  20
ATOM     20  C   UNL     1       1.168   9.408  21.674  0.00  0.00    +0.000 C 
ATOM     21  C   UNL     1       0.916  10.764  21.005  0.00  0.00    +0.000 C 
ATOM     22  C   UNL     1      -0.536  11.211  21.148  0.00  0.00    +0.000 C 
ATOM     23  O   UNL     1      -0.942  11.210  22.514  0.00  0.00    +0.000 OA
ATOM     24  C   UNL     1      -0.848   9.919  23.117  0.00  0.00    +0.000 C 
ATOM     25  C   UNL     1       0.591   9.421  23.099  0.00  0.00    +0.000 C 
ENDBRANCH  19  20
ENDBRANCH  18  19
ENDBRANCH   5  18
TORSDOF 4
ENDMDL
MODEL 5
REMARK VINA RESULT:      -7.2      0.968      1.197
REMARK  Name = 
REMARK  4 active torsions:
REMARK  status: ('A' for Active; 'I' for Inactive)
REMARK    1  A    between atoms: C_2  and  C_3
REMARK    2  A    between atoms: C_11  and  O_12
REMARK    3  A    between atoms: O_12  and  C_13
REMARK    4  A    between atoms: C_13  and  C_14
REMARK                            x       y       z     vdW  Elec       q    Type
REMARK                         _______ _______ _______ _____ _____    ______ ____
ROOT
ATOM      1  O   UNL     1       4.321   7.728  17.193  0.00  0.00    +0.000 OA
ATOM      2  C   UNL     1       4.385   6.593  17.660  0.00  0.00    +0.000 C 
ATOM      3  N   UNL     1       3.501   6.184  18.653  0.00  0.00    +0.000 N 
ATOM      4  C   UNL     1       2.451   7.107  19.091  0.00  0.00    +0.000 C 
ATOM      5  C   UNL     1       1.593   6.316  20.094  0.00  0.00    +0.000 C 
ATOM      6  C   UNL     1       2.636   5.355  20.676  0.00  0.00    +0.000 C 
ATOM      7  O   UNL     1       2.168   4.257  21.444  0.00  0.00    +0.000 OA
ATOM      8  C   UNL     1       1.413   3.294  20.726  0.00  0.00    +0.000 C 
ATOM      9  C   UNL     1       2.198   2.722  19.554  0.00  0.00    +0.000 C 
ATOM     10  C   UNL     1       2.738   3.814  18.638  0.00  0.00    +0.000 C 
ATOM     11  C   UNL     1       3.417   4.944  19.427  0.00  0.00    +0.000 C 
ENDROOT
BRANCH   2  12
ATOM     12  C   UNL     1       5.391   5.667  17.068  0.00  0.00    +0.000 A 
ATOM     13  C   UNL     1       5.217   4.861  15.949  0.00  0.00    +0.000 A 
ATOM     14  C   UNL     1       6.295   4.157  15.452  0.00  0.00    +0.000 A 
ATOM     15  N   UNL     1       7.497   4.160  16.050  0.00  0.00    +0.000 NA
ATOM     16  N   UNL     1       7.662   4.865  17.197  0.00  0.00    +0.000 NA
ATOM     17  C   UNL     1       6.628   5.597  17.686  0.00  0.00    +0.000 A 
ENDBRANCH   2  12
BRANCH   5  18
ATOM     18  O   UNL     1       1.022   7.115  21.122  0.00  0.00    +0.000 OA
BRANCH  18  19
ATOM     19  C   UNL     1       1.328   8.498  20.958  0.00  0.00    +0.000 C 
BRANCH  19  20
ATOM     20  C   UNL     1       0.019   9.296  20.911  0.00  0.00    +0.000 C 
ATOM     21  C   UNL     1       0.120  10.567  21.763  0.00  0.00    +0.000 C 
ATOM     22  C   UNL     1       0.957  11.646  21.084  0.00  0.00    +0.000 C 
ATOM     23  O   UNL     1       0.470  11.925  19.773  0.00  0.00    +0.000 OA
ATOM     24  C   UNL     1       0.501  10.782  18.919  0.00  0.00    +0.000 C 
ATOM     25  C   UNL     1      -0.380   9.671  19.474  0.00  0.00    +0.000 C 
ENDBRANCH  19  20
ENDBRANCH  18  19
ENDBRANCH   5  18
TORSDOF 4
ENDMDL
MODEL 6
REMARK VINA RESULT:      -7.0      3.757      8.581
REMARK  Name = 
REMARK  4 active torsions:
REMARK  status: ('A' for Active; 'I' for Inactive)
REMARK    1  A    between atoms: C_2  and  C_3
REMARK    2  A    between atoms: C_11  and  O_12
REMARK    3  A    between atoms: O_12  and  C_13
REMARK    4  A    between atoms: C_13  and  C_14
REMARK                            x       y       z     vdW  Elec       q    Type
REMARK                         _______ _______ _______ _____ _____    ______ ____
ROOT
ATOM      1  O   UNL     1       3.553   1.409  17.759  0.00  0.00    +0.000 OA
ATOM      2  C   UNL     1       3.531   2.522  18.281  0.00  0.00    +0.000 C 
ATOM      3  N   UNL     1       4.095   3.618  17.637  0.00  0.00    +0.000 N 
ATOM      4  C   UNL     1       4.662   3.440  16.297  0.00  0.00    +0.000 C 
ATOM      5  C   UNL     1       5.086   4.843  15.834  0.00  0.00    +0.000 C 
ATOM      6  C   UNL     1       5.419   5.505  17.175  0.00  0.00    +0.000 C 
ATOM      7  O   UNL     1       5.584   6.915  17.194  0.00  0.00    +0.000 OA
ATOM      8  C   UNL     1       4.415   7.665  16.906  0.00  0.00    +0.000 C 
ATOM      9  C   UNL     1       3.280   7.331  17.864  0.00  0.00    +0.000 C 
ATOM     10  C   UNL     1       2.994   5.834  17.914  0.00  0.00    +0.000 C 
ATOM     11  C   UNL     1       4.279   5.007  18.064  0.00  0.00    +0.000 C 
ENDROOT
BRANCH   2  12
ATOM     12  C   UNL     1       2.817   2.652  19.583  0.00  0.00    +0.000 A 
ATOM     13  C   UNL     1       1.481   2.989  19.763  0.00  0.00    +0.000 A 
ATOM     14  C   UNL     1       0.940   2.938  21.033  0.00  0.00    +0.000 A 
ATOM     15  N   UNL     1       1.673   2.647  22.119  0.00  0.00    +0.000 NA
ATOM     16  N   UNL     1       3.001   2.408  21.975  0.00  0.00    +0.000 NA
ATOM     17  C   UNL     1       3.550   2.414  20.733  0.00  0.00    +0.000 A 
ENDBRANCH   2  12
BRANCH   5  18
ATOM     18  O   UNL     1       6.222   4.849  14.978  0.00  0.00    +0.000 OA
BRANCH  18  19
ATOM     19  C   UNL     1       6.261   3.705  14.129  0.00  0.00    +0.000 C 
BRANCH  19  20
ATOM     20  C   UNL     1       6.044   4.152  12.678  0.00  0.00    +0.000 C 
ATOM     21  C   UNL     1       7.338   4.028  11.866  0.00  0.00    +0.000 C 
ATOM     22  C   UNL     1       7.653   2.579  11.511  0.00  0.00    +0.000 C 
ATOM     23  O   UNL     1       6.552   1.961  10.849  0.00  0.00    +0.000 OA
ATOM     24  C   UNL     1       5.370   1.940  11.649  0.00  0.00    +0.000 C 
ATOM     25  C   UNL     1       4.925   3.357  11.987  0.00  0.00    +0.000 C 
ENDBRANCH  19  20
ENDBRANCH  18  19
ENDBRANCH   5  18
TORSDOF 4
ENDMDL
MODEL 7
REMARK VINA RESULT:      -6.9      2.679      7.141
REMARK  Name = 
REMARK  4 active torsions:
REMARK  status: ('A' for Active; 'I' for Inactive)
REMARK    1  A    between atoms: C_2  and  C_3
REMARK    2  A    between atoms: C_11  and  O_12
REMARK    3  A    between atoms: O_12  and  C_13
REMARK    4  A    between atoms: C_13  and  C_14
REMARK                            x       y       z     vdW  Elec       q    Type
REMARK                         _______ _______ _______ _____ _____    ______ ____
ROOT
ATOM      1  O   UNL     1       3.421   8.438  17.864  0.00  0.00    +0.000 OA
ATOM      2  C   UNL     1       2.542   7.798  18.439  0.00  0.00    +0.000 C 
ATOM      3  N   UNL     1       2.547   6.408  18.415  0.00  0.00    +0.000 N 
ATOM      4  C   UNL     1       3.650   5.714  17.745  0.00  0.00    +0.000 C 
ATOM      5  C   UNL     1       3.415   4.215  17.999  0.00  0.00    +0.000 C 
ATOM      6  C   UNL     1       1.886   4.173  18.104  0.00  0.00    +0.000 C 
ATOM      7  O   UNL     1       1.291   2.993  18.621  0.00  0.00    +0.000 OA
ATOM      8  C   UNL     1       1.574   2.720  19.984  0.00  0.00    +0.000 C 
ATOM      9  C   UNL     1       1.155   3.870  20.889  0.00  0.00    +0.000 C 
ATOM     10  C   UNL     1       1.755   5.198  20.443  0.00  0.00    +0.000 C 
ATOM     11  C   UNL     1       1.593   5.425  18.932  0.00  0.00    +0.000 C 
ENDROOT
BRANCH   2  12
ATOM     12  C   UNL     1       1.531   8.572  19.214  0.00  0.00    +0.000 A 
ATOM     13  C   UNL     1       0.589   9.452  18.695  0.00  0.00    +0.000 A 
ATOM     14  C   UNL     1      -0.364   9.990  19.538  0.00  0.00    +0.000 A 
ATOM     15  N   UNL     1      -0.376   9.754  20.859  0.00  0.00    +0.000 NA
ATOM     16  N   UNL     1       0.593   8.973  21.399  0.00  0.00    +0.000 NA
ATOM     17  C   UNL     1       1.519   8.401  20.587  0.00  0.00    +0.000 A 
ENDBRANCH   2  12
BRANCH   5  18
ATOM     18  O   UNL     1       3.867   3.373  16.946  0.00  0.00    +0.000 OA
BRANCH  18  19
ATOM     19  C   UNL     1       4.528   4.107  15.918  0.00  0.00    +0.000 C 
BRANCH  19  20
ATOM     20  C   UNL     1       5.969   3.599  15.791  0.00  0.00    +0.000 C 
ATOM     21  C   UNL     1       6.501   3.809  14.368  0.00  0.00    +0.000 C 
ATOM     22  C   UNL     1       6.852   5.268  14.098  0.00  0.00    +0.000 C 
ATOM     23  O   UNL     1       7.755   5.770  15.081  0.00  0.00    +0.000 OA
ATOM     24  C   UNL     1       7.219   5.714  16.402  0.00  0.00    +0.000 C 
ATOM     25  C   UNL     1       6.914   4.275  16.798  0.00  0.00    +0.000 C 
ENDBRANCH  19  20
ENDBRANCH  18  19
ENDBRANCH   5  18
TORSDOF 4
ENDMDL
MODEL 8
REMARK VINA RESULT:      -6.8      3.923      8.504
REMARK  Name = 
REMARK  4 active torsions:
REMARK  status: ('A' for Active; 'I' for Inactive)
REMARK    1  A    between atoms: C_2  and  C_3
REMARK    2  A    between atoms: C_11  and  O_12
REMARK    3  A    between atoms: O_12  and  C_13
REMARK    4  A    between atoms: C_13  and  C_14
REMARK                            x       y       z     vdW  Elec       q    Type
REMARK                         _______ _______ _______ _____ _____    ______ ____
ROOT
ATOM      1  O   UNL     1       2.150   3.664  16.581  0.00  0.00    +0.000 OA
ATOM      2  C   UNL     1       2.976   3.780  17.484  0.00  0.00    +0.000 C 
ATOM      3  N   UNL     1       4.291   4.131  17.201  0.00  0.00    +0.000 N 
ATOM      4  C   UNL     1       4.665   4.424  15.814  0.00  0.00    +0.000 C 
ATOM      5  C   UNL     1       6.131   4.884  15.865  0.00  0.00    +0.000 C 
ATOM      6  C   UNL     1       6.639   4.104  17.083  0.00  0.00    +0.000 C 
ATOM      7  O   UNL     1       7.894   4.479  17.632  0.00  0.00    +0.000 OA
ATOM      8  C   UNL     1       7.937   5.773  18.213  0.00  0.00    +0.000 C 
ATOM      9  C   UNL     1       6.897   5.933  19.313  0.00  0.00    +0.000 C 
ATOM     10  C   UNL     1       5.495   5.577  18.833  0.00  0.00    +0.000 C 
ATOM     11  C   UNL     1       5.472   4.249  18.060  0.00  0.00    +0.000 C 
ENDROOT
BRANCH   2  12
ATOM     12  C   UNL     1       2.490   3.600  18.881  0.00  0.00    +0.000 A 
ATOM     13  C   UNL     1       2.112   4.607  19.761  0.00  0.00    +0.000 A 
ATOM     14  C   UNL     1       1.559   4.263  20.979  0.00  0.00    +0.000 A 
ATOM     15  N   UNL     1       1.436   2.989  21.383  0.00  0.00    +0.000 NA
ATOM     16  N   UNL     1       1.887   1.995  20.577  0.00  0.00    +0.000 NA
ATOM     17  C   UNL     1       2.400   2.304  19.358  0.00  0.00    +0.000 A 
ENDBRANCH   2  12
BRANCH   5  18
ATOM     18  O   UNL     1       6.883   4.546  14.707  0.00  0.00    +0.000 OA
BRANCH  18  19
ATOM     19  C   UNL     1       6.255   3.522  13.939  0.00  0.00    +0.000 C 
BRANCH  19  20
ATOM     20  C   UNL     1       6.403   3.854  12.449  0.00  0.00    +0.000 C 
ATOM     21  C   UNL     1       7.011   2.673  11.682  0.00  0.00    +0.000 C 
ATOM     22  C   UNL     1       6.002   1.550  11.468  0.00  0.00    +0.000 C 
ATOM     23  O   UNL     1       4.818   2.036  10.840  0.00  0.00    +0.000 OA
ATOM     24  C   UNL     1       4.157   3.040  11.610  0.00  0.00    +0.000 C 
ATOM     25  C   UNL     1       5.063   4.248  11.807  0.00  0.00    +0.000 C 
ENDBRANCH  19  20
ENDBRANCH  18  19
ENDBRANCH   5  18
TORSDOF 4
ENDMDL
MODEL 9
REMARK VINA RESULT:      -6.7      2.597      7.207
REMARK  Name = 
REMARK  4 active torsions:
REMARK  status: ('A' for Active; 'I' for Inactive)
REMARK    1  A    between atoms: C_2  and  C_3
REMARK    2  A    between atoms: C_11  and  O_12
REMARK    3  A    between atoms: O_12  and  C_13
REMARK    4  A    between atoms: C_13  and  C_14
REMARK                            x       y       z     vdW  Elec       q    Type
REMARK                         _______ _______ _______ _____ _____    ______ ____
ROOT
ATOM      1  O   UNL     1       2.408   8.771  18.884  0.00  0.00    +0.000 OA
ATOM      2  C   UNL     1       1.905   7.921  19.617  0.00  0.00    +0.000 C 
ATOM      3  N   UNL     1       2.098   6.567  19.368  0.00  0.00    +0.000 N 
ATOM      4  C   UNL     1       2.962   6.166  18.254  0.00  0.00    +0.000 C 
ATOM      5  C   UNL     1       3.054   4.633  18.329  0.00  0.00    +0.000 C 
ATOM      6  C   UNL     1       1.695   4.289  18.948  0.00  0.00    +0.000 C 
ATOM      7  O   UNL     1       1.508   2.971  19.442  0.00  0.00    +0.000 OA
ATOM      8  C   UNL     1       2.310   2.624  20.559  0.00  0.00    +0.000 C 
ATOM      9  C   UNL     1       2.097   3.577  21.726  0.00  0.00    +0.000 C 
ATOM     10  C   UNL     1       2.293   5.033  21.321  0.00  0.00    +0.000 C 
ATOM     11  C   UNL     1       1.553   5.373  20.018  0.00  0.00    +0.000 C 
ENDROOT
BRANCH   2  12
ATOM     12  C   UNL     1       1.153   8.406  20.808  0.00  0.00    +0.000 A 
ATOM     13  C   UNL     1      -0.194   8.194  21.079  0.00  0.00    +0.000 A 
ATOM     14  C   UNL     1      -0.708   8.600  22.294  0.00  0.00    +0.000 A 
ATOM     15  N   UNL     1       0.025   9.262  23.203  0.00  0.00    +0.000 NA
ATOM     16  N   UNL     1       1.316   9.563  22.918  0.00  0.00    +0.000 NA
ATOM     17  C   UNL     1       1.858   9.141  21.746  0.00  0.00    +0.000 A 
ENDBRANCH   2  12
BRANCH   5  18
ATOM     18  O   UNL     1       3.200   4.001  17.063  0.00  0.00    +0.000 OA
BRANCH  18  19
ATOM     19  C   UNL     1       4.562   3.934  16.650  0.00  0.00    +0.000 C 
BRANCH  19  20
ATOM     20  C   UNL     1       4.830   5.047  15.629  0.00  0.00    +0.000 C 
ATOM     21  C   UNL     1       5.627   6.193  16.263  0.00  0.00    +0.000 C 
ATOM     22  C   UNL     1       7.097   5.831  16.451  0.00  0.00    +0.000 C 
ATOM     23  O   UNL     1       7.680   5.395  15.225  0.00  0.00    +0.000 OA
ATOM     24  C   UNL     1       7.036   4.239  14.689  0.00  0.00    +0.000 C 
ATOM     25  C   UNL     1       5.573   4.529  14.387  0.00  0.00    +0.000 C 
ENDBRANCH  19  20
ENDBRANCH  18  19
ENDBRANCH   5  18
TORSDOF 4
ENDMDL
