MODEL 1
REMARK VINA RESULT:      -8.3      0.000      0.000
REMARK  Name = 
REMARK  9 active torsions:
REMARK  status: ('A' for Active; 'I' for Inactive)
REMARK    1  A    between atoms: C_1  and  C_2
REMARK    2  A    between atoms: C_2  and  N_3
REMARK    3  A    between atoms: C_4  and  S_5
REMARK    4  A    between atoms: S_5  and  C_6
REMARK    5  A    between atoms: C_6  and  C_7
REMARK    6  A    between atoms: C_7  and  O_8
REMARK    7  A    between atoms: O_8  and  C_9
REMARK    8  A    between atoms: C_18  and  C_19
REMARK    9  A    between atoms: C_21  and  C_22
REMARK                            x       y       z     vdW  Elec       q    Type
REMARK                         _______ _______ _______ _____ _____    ______ ____
ROOT
ATOM      1  N   UNL     1       1.405   8.877  19.701  0.00  0.00    +0.000 N 
ATOM      2  C   UNL     1       2.039   7.859  19.026  0.00  0.00    +0.000 A 
ATOM      3  N   UNL     1       2.080   8.129  17.747  0.00  0.00    +0.000 NA
ATOM      4  N   UNL     1       1.473   9.340  17.564  0.00  0.00    +0.000 NA
ATOM      5  C   UNL     1       1.037   9.802  18.728  0.00  0.00    +0.000 A 
ENDROOT
BRANCH   5   6
ATOM      6  C   UNL     1       0.330  11.097  18.888  0.00  0.00    +0.000 A 
ATOM      7  C   UNL     1      -1.015  11.111  19.262  0.00  0.00    +0.000 A 
ATOM      8  C   UNL     1      -1.696  12.304  19.462  0.00  0.00    +0.000 A 
ATOM      9  N   UNL     1      -1.058  13.489  19.380  0.00  0.00    +0.000 NA
ATOM     10  C   UNL     1       0.248  13.509  19.075  0.00  0.00    +0.000 A 
ATOM     11  C   UNL     1       0.876  14.748  19.060  0.00  0.00    +0.000 A 
ATOM     12  C   UNL     1       2.221  14.893  18.723  0.00  0.00    +0.000 A 
ATOM     13  C   UNL     1       2.958  13.778  18.363  0.00  0.00    +0.000 A 
ATOM     14  C   UNL     1       2.354  12.518  18.385  0.00  0.00    +0.000 A 
ATOM     15  C   UNL     1       0.998  12.351  18.774  0.00  0.00    +0.000 A 
BRANCH   8  16
ATOM     16  C   UNL     1      -3.156  12.346  19.710  0.00  0.00    +0.000 A 
ATOM     17  C   UNL     1      -3.702  12.803  20.927  0.00  0.00    +0.000 A 
ATOM     18  C   UNL     1      -5.076  12.747  21.181  0.00  0.00    +0.000 A 
ATOM     19  C   UNL     1      -5.943  12.249  20.215  0.00  0.00    +0.000 A 
ATOM     20  C   UNL     1      -5.437  11.820  18.992  0.00  0.00    +0.000 A 
ATOM     21  C   UNL     1      -4.061  11.870  18.744  0.00  0.00    +0.000 A 
ENDBRANCH   8  16
ENDBRANCH   5   6
BRANCH   1  23
ATOM     22  C   UNL     1      -0.263   8.341  21.477  0.00  0.00    +0.000 C 
ATOM     23  C   UNL     1       1.113   8.898  21.122  0.00  0.00    +0.000 C 
ENDBRANCH   1  23
BRANCH   2  24
ATOM     24  S   UNL     1       2.678   6.433  19.771  0.00  0.00    +0.000 S 
BRANCH  24  25
ATOM     25  C   UNL     1       2.861   5.302  18.346  0.00  0.00    +0.000 C 
BRANCH  25  26
ATOM     26  C   UNL     1       3.845   4.163  18.633  0.00  0.00    +0.000 C 
BRANCH  26  27
ATOM     27  O   UNL     1       4.862   4.153  17.623  0.00  0.00    +0.000 OA
BRANCH  27  28
ATOM     28  C   UNL     1       5.863   5.088  17.728  0.00  0.00    +0.000 A 
ATOM     29  C   UNL     1       6.662   4.919  18.872  0.00  0.00    +0.000 A 
ATOM     30  C   UNL     1       7.686   5.822  19.190  0.00  0.00    +0.000 A 
ATOM     31  C   UNL     1       7.921   6.913  18.364  0.00  0.00    +0.000 A 
ATOM     32  C   UNL     1       7.132   7.104  17.232  0.00  0.00    +0.000 A 
ATOM     33  C   UNL     1       6.097   6.209  16.916  0.00  0.00    +0.000 A 
ATOM     34 CL   UNL     1       5.130   6.668  15.559  0.00  0.00    +0.000 Cl
ENDBRANCH  27  28
ENDBRANCH  26  27
ENDBRANCH  25  26
ENDBRANCH  24  25
ENDBRANCH   2  24
TORSDOF 8
ENDMDL
MODEL 2
REMARK VINA RESULT:      -8.1      1.222      1.619
REMARK  Name = 
REMARK  9 active torsions:
REMARK  status: ('A' for Active; 'I' for Inactive)
REMARK    1  A    between atoms: C_1  and  C_2
REMARK    2  A    between atoms: C_2  and  N_3
REMARK    3  A    between atoms: C_4  and  S_5
REMARK    4  A    between atoms: S_5  and  C_6
REMARK    5  A    between atoms: C_6  and  C_7
REMARK    6  A    between atoms: C_7  and  O_8
REMARK    7  A    between atoms: O_8  and  C_9
REMARK    8  A    between atoms: C_18  and  C_19
REMARK    9  A    between atoms: C_21  and  C_22
REMARK                            x       y       z     vdW  Elec       q    Type
REMARK                         _______ _______ _______ _____ _____    ______ ____
ROOT
ATOM      1  N   UNL     1       1.374   8.666  19.562  0.00  0.00    +0.000 N 
ATOM      2  C   UNL     1       2.214   7.732  19.000  0.00  0.00    +0.000 A 
ATOM      3  N   UNL     1       2.564   8.112  17.799  0.00  0.00    +0.000 NA
ATOM      4  N   UNL     1       1.959   9.313  17.556  0.00  0.00    +0.000 NA
ATOM      5  C   UNL     1       1.217   9.659  18.598  0.00  0.00    +0.000 A 
ENDROOT
BRANCH   5   6
ATOM      6  C   UNL     1       0.423  10.912  18.667  0.00  0.00    +0.000 A 
ATOM      7  C   UNL     1      -0.959  10.848  18.853  0.00  0.00    +0.000 A 
ATOM      8  C   UNL     1      -1.726  11.998  18.964  0.00  0.00    +0.000 A 
ATOM      9  N   UNL     1      -1.151  13.217  18.975  0.00  0.00    +0.000 NA
ATOM     10  C   UNL     1       0.182  13.313  18.851  0.00  0.00    +0.000 A 
ATOM     11  C   UNL     1       0.736  14.584  18.927  0.00  0.00    +0.000 A 
ATOM     12  C   UNL     1       2.104  14.807  18.778  0.00  0.00    +0.000 A 
ATOM     13  C   UNL     1       2.943  13.738  18.517  0.00  0.00    +0.000 A 
ATOM     14  C   UNL     1       2.414  12.447  18.450  0.00  0.00    +0.000 A 
ATOM     15  C   UNL     1       1.029  12.201  18.650  0.00  0.00    +0.000 A 
BRANCH   8  16
ATOM     16  C   UNL     1      -3.207  11.958  19.011  0.00  0.00    +0.000 A 
ATOM     17  C   UNL     1      -3.946  12.567  20.045  0.00  0.00    +0.000 A 
ATOM     18  C   UNL     1      -5.336  12.438  20.127  0.00  0.00    +0.000 A 
ATOM     19  C   UNL     1      -6.026  11.710  19.163  0.00  0.00    +0.000 A 
ATOM     20  C   UNL     1      -5.327  11.123  18.113  0.00  0.00    +0.000 A 
ATOM     21  C   UNL     1      -3.936  11.248  18.039  0.00  0.00    +0.000 A 
ENDBRANCH   8  16
ENDBRANCH   5   6
BRANCH   1  23
ATOM     22  C   UNL     1       1.457   9.301  21.973  0.00  0.00    +0.000 C 
ATOM     23  C   UNL     1       0.729   8.556  20.857  0.00  0.00    +0.000 C 
ENDBRANCH   1  23
BRANCH   2  24
ATOM     24  S   UNL     1       2.718   6.270  19.776  0.00  0.00    +0.000 S 
BRANCH  24  25
ATOM     25  C   UNL     1       2.203   4.995  18.570  0.00  0.00    +0.000 C 
BRANCH  25  26
ATOM     26  C   UNL     1       3.165   3.802  18.543  0.00  0.00    +0.000 C 
BRANCH  26  27
ATOM     27  O   UNL     1       4.486   4.256  18.865  0.00  0.00    +0.000 OA
BRANCH  27  28
ATOM     28  C   UNL     1       5.357   4.448  17.822  0.00  0.00    +0.000 A 
ATOM     29  C   UNL     1       4.913   3.878  16.615  0.00  0.00    +0.000 A 
ATOM     30  C   UNL     1       5.704   3.905  15.458  0.00  0.00    +0.000 A 
ATOM     31  C   UNL     1       6.957   4.504  15.495  0.00  0.00    +0.000 A 
ATOM     32  C   UNL     1       7.419   5.063  16.685  0.00  0.00    +0.000 A 
ATOM     33  C   UNL     1       6.636   5.028  17.850  0.00  0.00    +0.000 A 
ATOM     34 CL   UNL     1       7.414   5.642  19.266  0.00  0.00    +0.000 Cl
ENDBRANCH  27  28
ENDBRANCH  26  27
ENDBRANCH  25  26
ENDBRANCH  24  25
ENDBRANCH   2  24
TORSDOF 8
ENDMDL
MODEL 3
REMARK VINA RESULT:      -8.1      1.449      3.871
REMARK  Name = 
REMARK  9 active torsions:
REMARK  status: ('A' for Active; 'I' for Inactive)
REMARK    1  A    between atoms: C_1  and  C_2
REMARK    2  A    between atoms: C_2  and  N_3
REMARK    3  A    between atoms: C_4  and  S_5
REMARK    4  A    between atoms: S_5  and  C_6
REMARK    5  A    between atoms: C_6  and  C_7
REMARK    6  A    between atoms: C_7  and  O_8
REMARK    7  A    between atoms: O_8  and  C_9
REMARK    8  A    between atoms: C_18  and  C_19
REMARK    9  A    between atoms: C_21  and  C_22
REMARK                            x       y       z     vdW  Elec       q    Type
REMARK                         _______ _______ _______ _____ _____    ______ ____
ROOT
ATOM      1  N   UNL     1       1.627   8.308  19.549  0.00  0.00    +0.000 N 
ATOM      2  C   UNL     1       2.454   7.366  18.981  0.00  0.00    +0.000 A 
ATOM      3  N   UNL     1       2.830   7.761  17.793  0.00  0.00    +0.000 NA
ATOM      4  N   UNL     1       2.255   8.980  17.565  0.00  0.00    +0.000 NA
ATOM      5  C   UNL     1       1.506   9.322  18.603  0.00  0.00    +0.000 A 
ENDROOT
BRANCH   5   6
ATOM      6  C   UNL     1       0.739  10.591  18.685  0.00  0.00    +0.000 A 
ATOM      7  C   UNL     1       1.403  11.784  18.978  0.00  0.00    +0.000 A 
ATOM      8  C   UNL     1       0.726  12.994  19.021  0.00  0.00    +0.000 A 
ATOM      9  N   UNL     1      -0.582  13.069  18.704  0.00  0.00    +0.000 NA
ATOM     10  C   UNL     1      -1.239  11.948  18.366  0.00  0.00    +0.000 A 
ATOM     11  C   UNL     1      -2.569  12.082  17.990  0.00  0.00    +0.000 A 
ATOM     12  C   UNL     1      -3.358  10.983  17.653  0.00  0.00    +0.000 A 
ATOM     13  C   UNL     1      -2.818   9.711  17.719  0.00  0.00    +0.000 A 
ATOM     14  C   UNL     1      -1.478   9.549  18.080  0.00  0.00    +0.000 A 
ATOM     15  C   UNL     1      -0.650  10.665  18.377  0.00  0.00    +0.000 A 
BRANCH   8  16
ATOM     16  C   UNL     1       1.376  14.246  19.474  0.00  0.00    +0.000 A 
ATOM     17  C   UNL     1       1.247  14.729  20.793  0.00  0.00    +0.000 A 
ATOM     18  C   UNL     1       1.786  15.960  21.179  0.00  0.00    +0.000 A 
ATOM     19  C   UNL     1       2.486  16.733  20.259  0.00  0.00    +0.000 A 
ATOM     20  C   UNL     1       2.657  16.268  18.958  0.00  0.00    +0.000 A 
ATOM     21  C   UNL     1       2.109  15.040  18.574  0.00  0.00    +0.000 A 
ENDBRANCH   8  16
ENDBRANCH   5   6
BRANCH   1  23
ATOM     22  C   UNL     1       1.439   9.196  21.873  0.00  0.00    +0.000 C 
ATOM     23  C   UNL     1       0.960   8.187  20.833  0.00  0.00    +0.000 C 
ENDBRANCH   1  23
BRANCH   2  24
ATOM     24  S   UNL     1       2.914   5.878  19.735  0.00  0.00    +0.000 S 
BRANCH  24  25
ATOM     25  C   UNL     1       2.972   4.727  18.316  0.00  0.00    +0.000 C 
BRANCH  25  26
ATOM     26  C   UNL     1       4.156   3.757  18.404  0.00  0.00    +0.000 C 
BRANCH  26  27
ATOM     27  O   UNL     1       5.065   4.026  17.328  0.00  0.00    +0.000 OA
BRANCH  27  28
ATOM     28  C   UNL     1       5.982   5.031  17.515  0.00  0.00    +0.000 A 
ATOM     29  C   UNL     1       6.780   4.848  18.659  0.00  0.00    +0.000 A 
ATOM     30  C   UNL     1       7.721   5.809  19.056  0.00  0.00    +0.000 A 
ATOM     31  C   UNL     1       7.873   6.972  18.312  0.00  0.00    +0.000 A 
ATOM     32  C   UNL     1       7.083   7.175  17.183  0.00  0.00    +0.000 A 
ATOM     33  C   UNL     1       6.130   6.223  16.787  0.00  0.00    +0.000 A 
ATOM     34 CL   UNL     1       5.144   6.694  15.449  0.00  0.00    +0.000 Cl
ENDBRANCH  27  28
ENDBRANCH  26  27
ENDBRANCH  25  26
ENDBRANCH  24  25
ENDBRANCH   2  24
TORSDOF 8
ENDMDL
MODEL 4
REMARK VINA RESULT:      -7.9      1.784      4.243
REMARK  Name = 
REMARK  9 active torsions:
REMARK  status: ('A' for Active; 'I' for Inactive)
REMARK    1  A    between atoms: C_1  and  C_2
REMARK    2  A    between atoms: C_2  and  N_3
REMARK    3  A    between atoms: C_4  and  S_5
REMARK    4  A    between atoms: S_5  and  C_6
REMARK    5  A    between atoms: C_6  and  C_7
REMARK    6  A    between atoms: C_7  and  O_8
REMARK    7  A    between atoms: O_8  and  C_9
REMARK    8  A    between atoms: C_18  and  C_19
REMARK    9  A    between atoms: C_21  and  C_22
REMARK                            x       y       z     vdW  Elec       q    Type
REMARK                         _______ _______ _______ _____ _____    ______ ____
ROOT
ATOM      1  N   UNL     1       1.523   8.383  19.613  0.00  0.00    +0.000 N 
ATOM      2  C   UNL     1       2.344   7.404  19.102  0.00  0.00    +0.000 A 
ATOM      3  N   UNL     1       2.744   7.737  17.903  0.00  0.00    +0.000 NA
ATOM      4  N   UNL     1       2.191   8.952  17.609  0.00  0.00    +0.000 NA
ATOM      5  C   UNL     1       1.431   9.353  18.619  0.00  0.00    +0.000 A 
ENDROOT
BRANCH   5   6
ATOM      6  C   UNL     1       0.683  10.635  18.629  0.00  0.00    +0.000 A 
ATOM      7  C   UNL     1       1.369  11.837  18.809  0.00  0.00    +0.000 A 
ATOM      8  C   UNL     1       0.708  13.057  18.782  0.00  0.00    +0.000 A 
ATOM      9  N   UNL     1      -0.609  13.126  18.503  0.00  0.00    +0.000 NA
ATOM     10  C   UNL     1      -1.289  11.993  18.273  0.00  0.00    +0.000 A 
ATOM     11  C   UNL     1      -2.630  12.117  17.931  0.00  0.00    +0.000 A 
ATOM     12  C   UNL     1      -3.442  11.007  17.704  0.00  0.00    +0.000 A 
ATOM     13  C   UNL     1      -2.915   9.735  17.848  0.00  0.00    +0.000 A 
ATOM     14  C   UNL     1      -1.566   9.583  18.176  0.00  0.00    +0.000 A 
ATOM     15  C   UNL     1      -0.715  10.705  18.361  0.00  0.00    +0.000 A 
BRANCH   8  16
ATOM     16  C   UNL     1       1.388  14.331  19.118  0.00  0.00    +0.000 A 
ATOM     17  C   UNL     1       0.723  15.573  19.082  0.00  0.00    +0.000 A 
ATOM     18  C   UNL     1       1.402  16.774  19.309  0.00  0.00    +0.000 A 
ATOM     19  C   UNL     1       2.762  16.762  19.596  0.00  0.00    +0.000 A 
ATOM     20  C   UNL     1       3.439  15.549  19.669  0.00  0.00    +0.000 A 
ATOM     21  C   UNL     1       2.758  14.350  19.434  0.00  0.00    +0.000 A 
ENDBRANCH   8  16
ENDBRANCH   5   6
BRANCH   1  23
ATOM     22  C   UNL     1       1.450   9.235  21.956  0.00  0.00    +0.000 C 
ATOM     23  C   UNL     1       0.836   8.332  20.890  0.00  0.00    +0.000 C 
ENDBRANCH   1  23
BRANCH   2  24
ATOM     24  S   UNL     1       2.771   5.946  19.932  0.00  0.00    +0.000 S 
BRANCH  24  25
ATOM     25  C   UNL     1       2.203   4.657  18.767  0.00  0.00    +0.000 C 
BRANCH  25  26
ATOM     26  C   UNL     1       3.249   3.554  18.568  0.00  0.00    +0.000 C 
BRANCH  26  27
ATOM     27  O   UNL     1       4.546   4.075  18.886  0.00  0.00    +0.000 OA
BRANCH  27  28
ATOM     28  C   UNL     1       5.373   4.387  17.835  0.00  0.00    +0.000 A 
ATOM     29  C   UNL     1       4.947   3.841  16.612  0.00  0.00    +0.000 A 
ATOM     30  C   UNL     1       5.704   3.988  15.441  0.00  0.00    +0.000 A 
ATOM     31  C   UNL     1       6.905   4.686  15.482  0.00  0.00    +0.000 A 
ATOM     32  C   UNL     1       7.349   5.223  16.688  0.00  0.00    +0.000 A 
ATOM     33  C   UNL     1       6.601   5.068  17.866  0.00  0.00    +0.000 A 
ATOM     34 CL   UNL     1       7.361   5.677  19.294  0.00  0.00    +0.000 Cl
ENDBRANCH  27  28
ENDBRANCH  26  27
ENDBRANCH  25  26
ENDBRANCH  24  25
ENDBRANCH   2  24
TORSDOF 8
ENDMDL
MODEL 5
REMARK VINA RESULT:      -7.9      1.310      1.924
REMARK  Name = 
REMARK  9 active torsions:
REMARK  status: ('A' for Active; 'I' for Inactive)
REMARK    1  A    between atoms: C_1  and  C_2
REMARK    2  A    between atoms: C_2  and  N_3
REMARK    3  A    between atoms: C_4  and  S_5
REMARK    4  A    between atoms: S_5  and  C_6
REMARK    5  A    between atoms: C_6  and  C_7
REMARK    6  A    between atoms: C_7  and  O_8
REMARK    7  A    between atoms: O_8  and  C_9
REMARK    8  A    between atoms: C_18  and  C_19
REMARK    9  A    between atoms: C_21  and  C_22
REMARK                            x       y       z     vdW  Elec       q    Type
REMARK                         _______ _______ _______ _____ _____    ______ ____
ROOT
ATOM      1  N   UNL     1       1.401   8.863  19.768  0.00  0.00    +0.000 N 
ATOM      2  C   UNL     1       2.028   7.834  19.105  0.00  0.00    +0.000 A 
ATOM      3  N   UNL     1       2.079   8.092  17.825  0.00  0.00    +0.000 NA
ATOM      4  N   UNL     1       1.486   9.308  17.628  0.00  0.00    +0.000 NA
ATOM      5  C   UNL     1       1.049   9.784  18.786  0.00  0.00    +0.000 A 
ENDROOT
BRANCH   5   6
ATOM      6  C   UNL     1       0.356  11.089  18.932  0.00  0.00    +0.000 A 
ATOM      7  C   UNL     1      -0.979  11.123  19.341  0.00  0.00    +0.000 A 
ATOM      8  C   UNL     1      -1.646  12.325  19.529  0.00  0.00    +0.000 A 
ATOM      9  N   UNL     1      -1.003  13.503  19.398  0.00  0.00    +0.000 NA
ATOM     10  C   UNL     1       0.295  13.505  19.058  0.00  0.00    +0.000 A 
ATOM     11  C   UNL     1       0.931  14.739  18.994  0.00  0.00    +0.000 A 
ATOM     12  C   UNL     1       2.267  14.865  18.617  0.00  0.00    +0.000 A 
ATOM     13  C   UNL     1       2.986  13.735  18.266  0.00  0.00    +0.000 A 
ATOM     14  C   UNL     1       2.375  12.481  18.337  0.00  0.00    +0.000 A 
ATOM     15  C   UNL     1       1.029  12.334  18.767  0.00  0.00    +0.000 A 
BRANCH   8  16
ATOM     16  C   UNL     1      -3.098  12.385  19.815  0.00  0.00    +0.000 A 
ATOM     17  C   UNL     1      -4.070  11.982  18.877  0.00  0.00    +0.000 A 
ATOM     18  C   UNL     1      -5.437  12.135  19.126  0.00  0.00    +0.000 A 
ATOM     19  C   UNL     1      -5.870  12.679  20.330  0.00  0.00    +0.000 A 
ATOM     20  C   UNL     1      -4.935  13.058  21.289  0.00  0.00    +0.000 A 
ATOM     21  C   UNL     1      -3.568  12.911  21.033  0.00  0.00    +0.000 A 
ENDBRANCH   8  16
ENDBRANCH   5   6
BRANCH   1  23
ATOM     22  C   UNL     1      -0.275   8.342  21.540  0.00  0.00    +0.000 C 
ATOM     23  C   UNL     1       1.101   8.899  21.188  0.00  0.00    +0.000 C 
ENDBRANCH   1  23
BRANCH   2  24
ATOM     24  S   UNL     1       2.646   6.406  19.865  0.00  0.00    +0.000 S 
BRANCH  24  25
ATOM     25  C   UNL     1       3.923   5.858  18.676  0.00  0.00    +0.000 C 
BRANCH  25  26
ATOM     26  C   UNL     1       3.553   4.533  17.999  0.00  0.00    +0.000 C 
BRANCH  26  27
ATOM     27  O   UNL     1       4.750   3.790  17.736  0.00  0.00    +0.000 OA
BRANCH  27  28
ATOM     28  C   UNL     1       5.525   4.198  16.678  0.00  0.00    +0.000 A 
ATOM     29  C   UNL     1       4.902   4.016  15.431  0.00  0.00    +0.000 A 
ATOM     30  C   UNL     1       5.567   4.303  14.231  0.00  0.00    +0.000 A 
ATOM     31  C   UNL     1       6.873   4.776  14.265  0.00  0.00    +0.000 A 
ATOM     32  C   UNL     1       7.511   4.951  15.491  0.00  0.00    +0.000 A 
ATOM     33  C   UNL     1       6.854   4.653  16.696  0.00  0.00    +0.000 A 
ATOM     34 CL   UNL     1       7.833   4.796  18.112  0.00  0.00    +0.000 Cl
ENDBRANCH  27  28
ENDBRANCH  26  27
ENDBRANCH  25  26
ENDBRANCH  24  25
ENDBRANCH   2  24
TORSDOF 8
ENDMDL
MODEL 6
REMARK VINA RESULT:      -7.9      1.233      1.829
REMARK  Name = 
REMARK  9 active torsions:
REMARK  status: ('A' for Active; 'I' for Inactive)
REMARK    1  A    between atoms: C_1  and  C_2
REMARK    2  A    between atoms: C_2  and  N_3
REMARK    3  A    between atoms: C_4  and  S_5
REMARK    4  A    between atoms: S_5  and  C_6
REMARK    5  A    between atoms: C_6  and  C_7
REMARK    6  A    between atoms: C_7  and  O_8
REMARK    7  A    between atoms: O_8  and  C_9
REMARK    8  A    between atoms: C_18  and  C_19
REMARK    9  A    between atoms: C_21  and  C_22
REMARK                            x       y       z     vdW  Elec       q    Type
REMARK                         _______ _______ _______ _____ _____    ______ ____
ROOT
ATOM      1  N   UNL     1       1.297   8.634  19.623  0.00  0.00    +0.000 N 
ATOM      2  C   UNL     1       2.142   7.678  19.109  0.00  0.00    +0.000 A 
ATOM      3  N   UNL     1       2.508   8.009  17.898  0.00  0.00    +0.000 NA
ATOM      4  N   UNL     1       1.907   9.201  17.601  0.00  0.00    +0.000 NA
ATOM      5  C   UNL     1       1.153   9.588  18.620  0.00  0.00    +0.000 A 
ENDROOT
BRANCH   5   6
ATOM      6  C   UNL     1       0.361  10.843  18.630  0.00  0.00    +0.000 A 
ATOM      7  C   UNL     1      -1.028  10.785  18.755  0.00  0.00    +0.000 A 
ATOM      8  C   UNL     1      -1.797  11.939  18.810  0.00  0.00    +0.000 A 
ATOM      9  N   UNL     1      -1.219  13.157  18.824  0.00  0.00    +0.000 NA
ATOM     10  C   UNL     1       0.118  13.248  18.759  0.00  0.00    +0.000 A 
ATOM     11  C   UNL     1       0.672  14.520  18.836  0.00  0.00    +0.000 A 
ATOM     12  C   UNL     1       2.046  14.737  18.743  0.00  0.00    +0.000 A 
ATOM     13  C   UNL     1       2.893  13.662  18.540  0.00  0.00    +0.000 A 
ATOM     14  C   UNL     1       2.364  12.371  18.474  0.00  0.00    +0.000 A 
ATOM     15  C   UNL     1       0.971  12.131  18.616  0.00  0.00    +0.000 A 
BRANCH   8  16
ATOM     16  C   UNL     1      -3.278  11.903  18.792  0.00  0.00    +0.000 A 
ATOM     17  C   UNL     1      -4.006  11.369  17.709  0.00  0.00    +0.000 A 
ATOM     18  C   UNL     1      -5.402  11.429  17.664  0.00  0.00    +0.000 A 
ATOM     19  C   UNL     1      -6.109  12.009  18.712  0.00  0.00    +0.000 A 
ATOM     20  C   UNL     1      -5.419  12.516  19.809  0.00  0.00    +0.000 A 
ATOM     21  C   UNL     1      -4.022  12.461  19.847  0.00  0.00    +0.000 A 
ENDBRANCH   8  16
ENDBRANCH   5   6
BRANCH   1  23
ATOM     22  C   UNL     1       1.424   9.238  22.040  0.00  0.00    +0.000 C 
ATOM     23  C   UNL     1       0.636   8.575  20.914  0.00  0.00    +0.000 C 
ENDBRANCH   1  23
BRANCH   2  24
ATOM     24  S   UNL     1       2.634   6.246  19.947  0.00  0.00    +0.000 S 
BRANCH  24  25
ATOM     25  C   UNL     1       4.021   5.650  18.914  0.00  0.00    +0.000 C 
BRANCH  25  26
ATOM     26  C   UNL     1       4.393   4.196  19.227  0.00  0.00    +0.000 C 
BRANCH  26  27
ATOM     27  O   UNL     1       5.737   3.951  18.791  0.00  0.00    +0.000 OA
BRANCH  27  28
ATOM     28  C   UNL     1       6.091   4.423  17.550  0.00  0.00    +0.000 A 
ATOM     29  C   UNL     1       5.599   3.634  16.496  0.00  0.00    +0.000 A 
ATOM     30  C   UNL     1       5.921   3.914  15.160  0.00  0.00    +0.000 A 
ATOM     31  C   UNL     1       6.746   4.991  14.863  0.00  0.00    +0.000 A 
ATOM     32  C   UNL     1       7.252   5.777  15.896  0.00  0.00    +0.000 A 
ATOM     33  C   UNL     1       6.943   5.494  17.236  0.00  0.00    +0.000 A 
ATOM     34 CL   UNL     1       7.762   6.481  18.394  0.00  0.00    +0.000 Cl
ENDBRANCH  27  28
ENDBRANCH  26  27
ENDBRANCH  25  26
ENDBRANCH  24  25
ENDBRANCH   2  24
TORSDOF 8
ENDMDL
MODEL 7
REMARK VINA RESULT:      -7.8      1.660      2.991
REMARK  Name = 
REMARK  9 active torsions:
REMARK  status: ('A' for Active; 'I' for Inactive)
REMARK    1  A    between atoms: C_1  and  C_2
REMARK    2  A    between atoms: C_2  and  N_3
REMARK    3  A    between atoms: C_4  and  S_5
REMARK    4  A    between atoms: S_5  and  C_6
REMARK    5  A    between atoms: C_6  and  C_7
REMARK    6  A    between atoms: C_7  and  O_8
REMARK    7  A    between atoms: O_8  and  C_9
REMARK    8  A    between atoms: C_18  and  C_19
REMARK    9  A    between atoms: C_21  and  C_22
REMARK                            x       y       z     vdW  Elec       q    Type
REMARK                         _______ _______ _______ _____ _____    ______ ____
ROOT
ATOM      1  N   UNL     1       1.505   8.901  19.563  0.00  0.00    +0.000 N 
ATOM      2  C   UNL     1       2.236   7.947  18.894  0.00  0.00    +0.000 A 
ATOM      3  N   UNL     1       2.238   8.203  17.612  0.00  0.00    +0.000 NA
ATOM      4  N   UNL     1       1.506   9.342  17.421  0.00  0.00    +0.000 NA
ATOM      5  C   UNL     1       1.035   9.771  18.583  0.00  0.00    +0.000 A 
ENDROOT
BRANCH   5   6
ATOM      6  C   UNL     1       0.199  10.987  18.736  0.00  0.00    +0.000 A 
ATOM      7  C   UNL     1      -1.188  10.867  18.848  0.00  0.00    +0.000 A 
ATOM      8  C   UNL     1      -1.997  11.978  19.034  0.00  0.00    +0.000 A 
ATOM      9  N   UNL     1      -1.463  13.206  19.192  0.00  0.00    +0.000 NA
ATOM     10  C   UNL     1      -0.130  13.351  19.144  0.00  0.00    +0.000 A 
ATOM     11  C   UNL     1       0.378  14.623  19.372  0.00  0.00    +0.000 A 
ATOM     12  C   UNL     1       1.744  14.898  19.312  0.00  0.00    +0.000 A 
ATOM     13  C   UNL     1       2.629  13.884  18.988  0.00  0.00    +0.000 A 
ATOM     14  C   UNL     1       2.146  12.592  18.769  0.00  0.00    +0.000 A 
ATOM     15  C   UNL     1       0.762  12.289  18.876  0.00  0.00    +0.000 A 
BRANCH   8  16
ATOM     16  C   UNL     1      -3.476  11.892  19.004  0.00  0.00    +0.000 A 
ATOM     17  C   UNL     1      -4.170  11.170  18.012  0.00  0.00    +0.000 A 
ATOM     18  C   UNL     1      -5.567  11.178  17.942  0.00  0.00    +0.000 A 
ATOM     19  C   UNL     1      -6.307  11.894  18.876  0.00  0.00    +0.000 A 
ATOM     20  C   UNL     1      -5.651  12.591  19.887  0.00  0.00    +0.000 A 
ATOM     21  C   UNL     1      -4.254  12.587  19.948  0.00  0.00    +0.000 A 
ENDBRANCH   8  16
ENDBRANCH   5   6
BRANCH   1  23
ATOM     22  C   UNL     1      -0.162   8.379  21.344  0.00  0.00    +0.000 C 
ATOM     23  C   UNL     1       1.224   8.909  20.987  0.00  0.00    +0.000 C 
ENDBRANCH   1  23
BRANCH   2  24
ATOM     24  S   UNL     1       3.026   6.604  19.649  0.00  0.00    +0.000 S 
BRANCH  24  25
ATOM     25  C   UNL     1       4.129   6.007  18.318  0.00  0.00    +0.000 C 
BRANCH  25  26
ATOM     26  C   UNL     1       4.995   4.825  18.770  0.00  0.00    +0.000 C 
BRANCH  26  27
ATOM     27  O   UNL     1       4.267   3.606  18.571  0.00  0.00    +0.000 OA
BRANCH  27  28
ATOM     28  C   UNL     1       3.184   3.381  19.385  0.00  0.00    +0.000 A 
ATOM     29  C   UNL     1       3.534   2.862  20.644  0.00  0.00    +0.000 A 
ATOM     30  C   UNL     1       2.558   2.496  21.582  0.00  0.00    +0.000 A 
ATOM     31  C   UNL     1       1.213   2.643  21.269  0.00  0.00    +0.000 A 
ATOM     32  C   UNL     1       0.847   3.144  20.021  0.00  0.00    +0.000 A 
ATOM     33  C   UNL     1       1.820   3.500  19.073  0.00  0.00    +0.000 A 
ATOM     34 CL   UNL     1       1.194   3.973  17.533  0.00  0.00    +0.000 Cl
ENDBRANCH  27  28
ENDBRANCH  26  27
ENDBRANCH  25  26
ENDBRANCH  24  25
ENDBRANCH   2  24
TORSDOF 8
ENDMDL
MODEL 8
REMARK VINA RESULT:      -7.8      1.760      3.321
REMARK  Name = 
REMARK  9 active torsions:
REMARK  status: ('A' for Active; 'I' for Inactive)
REMARK    1  A    between atoms: C_1  and  C_2
REMARK    2  A    between atoms: C_2  and  N_3
REMARK    3  A    between atoms: C_4  and  S_5
REMARK    4  A    between atoms: S_5  and  C_6
REMARK    5  A    between atoms: C_6  and  C_7
REMARK    6  A    between atoms: C_7  and  O_8
REMARK    7  A    between atoms: O_8  and  C_9
REMARK    8  A    between atoms: C_18  and  C_19
REMARK    9  A    between atoms: C_21  and  C_22
REMARK                            x       y       z     vdW  Elec       q    Type
REMARK                         _______ _______ _______ _____ _____    ______ ____
ROOT
ATOM      1  N   UNL     1       1.190   8.582  19.732  0.00  0.00    +0.000 N 
ATOM      2  C   UNL     1       2.191   7.941  19.040  0.00  0.00    +0.000 A 
ATOM      3  N   UNL     1       2.350   8.497  17.867  0.00  0.00    +0.000 NA
ATOM      4  N   UNL     1       1.450   9.522  17.775  0.00  0.00    +0.000 NA
ATOM      5  C   UNL     1       0.723   9.580  18.881  0.00  0.00    +0.000 A 
ENDROOT
BRANCH   5   6
ATOM      6  C   UNL     1      -0.348  10.581  19.113  0.00  0.00    +0.000 A 
ATOM      7  C   UNL     1      -0.161  11.590  20.059  0.00  0.00    +0.000 A 
ATOM      8  C   UNL     1      -1.123  12.567  20.272  0.00  0.00    +0.000 A 
ATOM      9  N   UNL     1      -2.238  12.620  19.515  0.00  0.00    +0.000 NA
ATOM     10  C   UNL     1      -2.424  11.696  18.560  0.00  0.00    +0.000 A 
ATOM     11  C   UNL     1      -3.557  11.825  17.767  0.00  0.00    +0.000 A 
ATOM     12  C   UNL     1      -3.871  10.904  16.768  0.00  0.00    +0.000 A 
ATOM     13  C   UNL     1      -3.050   9.808  16.570  0.00  0.00    +0.000 A 
ATOM     14  C   UNL     1      -1.896   9.662  17.344  0.00  0.00    +0.000 A 
ATOM     15  C   UNL     1      -1.539  10.619  18.331  0.00  0.00    +0.000 A 
BRANCH   8  16
ATOM     16  C   UNL     1      -1.014  13.556  21.371  0.00  0.00    +0.000 A 
ATOM     17  C   UNL     1      -0.452  14.835  21.182  0.00  0.00    +0.000 A 
ATOM     18  C   UNL     1      -0.269  15.719  22.249  0.00  0.00    +0.000 A 
ATOM     19  C   UNL     1      -0.662  15.354  23.532  0.00  0.00    +0.000 A 
ATOM     20  C   UNL     1      -1.249  14.110  23.744  0.00  0.00    +0.000 A 
ATOM     21  C   UNL     1      -1.423  13.225  22.675  0.00  0.00    +0.000 A 
ENDBRANCH   8  16
ENDBRANCH   5   6
BRANCH   1  23
ATOM     22  C   UNL     1       1.263   9.032  22.185  0.00  0.00    +0.000 C 
ATOM     23  C   UNL     1       0.687   8.203  21.040  0.00  0.00    +0.000 C 
ENDBRANCH   1  23
BRANCH   2  24
ATOM     24  S   UNL     1       3.096   6.593  19.641  0.00  0.00    +0.000 S 
BRANCH  24  25
ATOM     25  C   UNL     1       2.782   5.318  18.368  0.00  0.00    +0.000 C 
BRANCH  25  26
ATOM     26  C   UNL     1       3.747   4.133  18.485  0.00  0.00    +0.000 C 
BRANCH  26  27
ATOM     27  O   UNL     1       4.716   4.209  17.431  0.00  0.00    +0.000 OA
BRANCH  27  28
ATOM     28  C   UNL     1       5.745   5.105  17.586  0.00  0.00    +0.000 A 
ATOM     29  C   UNL     1       6.511   4.876  18.742  0.00  0.00    +0.000 A 
ATOM     30  C   UNL     1       7.557   5.734  19.110  0.00  0.00    +0.000 A 
ATOM     31  C   UNL     1       7.849   6.840  18.321  0.00  0.00    +0.000 A 
ATOM     32  C   UNL     1       7.092   7.089  17.178  0.00  0.00    +0.000 A 
ATOM     33  C   UNL     1       6.035   6.241  16.812  0.00  0.00    +0.000 A 
ATOM     34 CL   UNL     1       5.117   6.771  15.448  0.00  0.00    +0.000 Cl
ENDBRANCH  27  28
ENDBRANCH  26  27
ENDBRANCH  25  26
ENDBRANCH  24  25
ENDBRANCH   2  24
TORSDOF 8
ENDMDL
MODEL 9
REMARK VINA RESULT:      -7.6      1.905      3.898
REMARK  Name = 
REMARK  9 active torsions:
REMARK  status: ('A' for Active; 'I' for Inactive)
REMARK    1  A    between atoms: C_1  and  C_2
REMARK    2  A    between atoms: C_2  and  N_3
REMARK    3  A    between atoms: C_4  and  S_5
REMARK    4  A    between atoms: S_5  and  C_6
REMARK    5  A    between atoms: C_6  and  C_7
REMARK    6  A    between atoms: C_7  and  O_8
REMARK    7  A    between atoms: O_8  and  C_9
REMARK    8  A    between atoms: C_18  and  C_19
REMARK    9  A    between atoms: C_21  and  C_22
REMARK                            x       y       z     vdW  Elec       q    Type
REMARK                         _______ _______ _______ _____ _____    ______ ____
ROOT
ATOM      1  N   UNL     1       1.425   8.581  19.554  0.00  0.00    +0.000 N 
ATOM      2  C   UNL     1       2.332   7.878  18.795  0.00  0.00    +0.000 A 
ATOM      3  N   UNL     1       2.517   8.480  17.649  0.00  0.00    +0.000 NA
ATOM      4  N   UNL     1       1.731   9.598  17.643  0.00  0.00    +0.000 NA
ATOM      5  C   UNL     1       1.045   9.670  18.775  0.00  0.00    +0.000 A 
ENDROOT
BRANCH   5   6
ATOM      6  C   UNL     1       0.094  10.763  19.096  0.00  0.00    +0.000 A 
ATOM      7  C   UNL     1       0.546  11.898  19.772  0.00  0.00    +0.000 A 
ATOM      8  C   UNL     1      -0.305  12.959  20.051  0.00  0.00    +0.000 A 
ATOM      9  N   UNL     1      -1.578  12.961  19.609  0.00  0.00    +0.000 NA
ATOM     10  C   UNL     1      -2.030  11.909  18.909  0.00  0.00    +0.000 A 
ATOM     11  C   UNL     1      -3.329  11.981  18.423  0.00  0.00    +0.000 A 
ATOM     12  C   UNL     1      -3.915  10.934  17.714  0.00  0.00    +0.000 A 
ATOM     13  C   UNL     1      -3.199   9.768  17.506  0.00  0.00    +0.000 A 
ATOM     14  C   UNL     1      -1.885   9.674  17.971  0.00  0.00    +0.000 A 
ATOM     15  C   UNL     1      -1.260  10.753  18.651  0.00  0.00    +0.000 A 
BRANCH   8  16
ATOM     16  C   UNL     1       0.111  14.103  20.895  0.00  0.00    +0.000 A 
ATOM     17  C   UNL     1       1.466  14.409  21.137  0.00  0.00    +0.000 A 
ATOM     18  C   UNL     1       1.841  15.433  22.013  0.00  0.00    +0.000 A 
ATOM     19  C   UNL     1       0.868  16.190  22.656  0.00  0.00    +0.000 A 
ATOM     20  C   UNL     1      -0.478  15.932  22.414  0.00  0.00    +0.000 A 
ATOM     21  C   UNL     1      -0.849  14.902  21.543  0.00  0.00    +0.000 A 
ENDBRANCH   8  16
ENDBRANCH   5   6
BRANCH   1  23
ATOM     22  C   UNL     1       1.420   9.058  22.003  0.00  0.00    +0.000 C 
ATOM     23  C   UNL     1       0.921   8.184  20.856  0.00  0.00    +0.000 C 
ENDBRANCH   1  23
BRANCH   2  24
ATOM     24  S   UNL     1       3.103   6.410  19.292  0.00  0.00    +0.000 S 
BRANCH  24  25
ATOM     25  C   UNL     1       1.992   5.135  18.598  0.00  0.00    +0.000 C 
BRANCH  25  26
ATOM     26  C   UNL     1       2.724   4.186  17.643  0.00  0.00    +0.000 C 
BRANCH  26  27
ATOM     27  O   UNL     1       4.046   3.945  18.142  0.00  0.00    +0.000 OA
BRANCH  27  28
ATOM     28  C   UNL     1       5.098   4.306  17.338  0.00  0.00    +0.000 A 
ATOM     29  C   UNL     1       4.956   3.873  16.008  0.00  0.00    +0.000 A 
ATOM     30  C   UNL     1       5.965   4.081  15.057  0.00  0.00    +0.000 A 
ATOM     31  C   UNL     1       7.137   4.728  15.429  0.00  0.00    +0.000 A 
ATOM     32  C   UNL     1       7.301   5.154  16.745  0.00  0.00    +0.000 A 
ATOM     33  C   UNL     1       6.299   4.936  17.704  0.00  0.00    +0.000 A 
ATOM     34 CL   UNL     1       6.721   5.403  19.314  0.00  0.00    +0.000 Cl
ENDBRANCH  27  28
ENDBRANCH  26  27
ENDBRANCH  25  26
ENDBRANCH  24  25
ENDBRANCH   2  24
TORSDOF 8
ENDMDL
