MODEL 1
REMARK VINA RESULT:      -6.2      0.000      0.000
REMARK  Name = 
REMARK  5 active torsions:
REMARK  status: ('A' for Active; 'I' for Inactive)
REMARK    1  A    between atoms: O_1  and  C_2
REMARK    2  A    between atoms: C_2  and  C_3
REMARK    3  A    between atoms: C_7  and  C_8
REMARK    4  A    between atoms: C_12  and  O_13
REMARK    5  A    between atoms: C_14  and  O_15
REMARK                            x       y       z     vdW  Elec       q    Type
REMARK                         _______ _______ _______ _____ _____    ______ ____
ROOT
ATOM      1  C   UNL     1       6.628   5.029  18.792  0.00  0.00    +0.000 C 
ATOM      2  O   UNL     1       5.455   5.761  19.163  0.00  0.00    +0.000 OA
ATOM      3  C   UNL     1       4.221   5.231  18.709  0.00  0.00    +0.000 C 
ATOM      4  S   UNL     1       3.644   3.794  19.630  0.00  0.00    +0.000 S 
ATOM      5  C   UNL     1       2.775   3.251  18.211  0.00  0.00    +0.000 C 
ATOM      6  N   UNL     1       3.027   3.825  17.083  0.00  0.00    +0.000 NA
ATOM      7  C   UNL     1       4.172   4.771  17.248  0.00  0.00    +0.000 C 
ATOM      8  C   UNL     1       5.472   4.075  16.794  0.00  0.00    +0.000 C 
ATOM      9  C   UNL     1       6.716   4.840  17.274  0.00  0.00    +0.000 C 
ENDROOT
BRANCH   5  10
ATOM     10  C   UNL     1       1.761   2.158  18.385  0.00  0.00    +0.000 C 
ATOM     11  F   UNL     1       0.668   2.580  19.086  0.00  0.00    +0.000 F 
ENDBRANCH   5  10
BRANCH   8  12
ATOM     12  O   UNL     1       5.493   3.921  15.368  0.00  0.00    +0.000 OA
ATOM     13  H   UNL     1       5.151   3.034  15.151  0.00  0.00    +0.000 HD
ENDBRANCH   8  12
BRANCH   9  14
ATOM     14  O   UNL     1       7.906   4.128  16.921  0.00  0.00    +0.000 OA
ATOM     15  H   UNL     1       7.698   3.178  16.875  0.00  0.00    +0.000 HD
ENDBRANCH   9  14
BRANCH   1  16
ATOM     16  C   UNL     1       7.850   5.777  19.348  0.00  0.00    +0.000 C 
BRANCH  16  17
ATOM     17  O   UNL     1       8.116   5.396  20.699  0.00  0.00    +0.000 OA
ATOM     18  H   UNL     1       7.721   6.082  21.267  0.00  0.00    +0.000 HD
ENDBRANCH  16  17
ENDBRANCH   1  16
TORSDOF 5
ENDMDL
MODEL 2
REMARK VINA RESULT:      -6.1      2.037      2.696
REMARK  Name = 
REMARK  5 active torsions:
REMARK  status: ('A' for Active; 'I' for Inactive)
REMARK    1  A    between atoms: O_1  and  C_2
REMARK    2  A    between atoms: C_2  and  C_3
REMARK    3  A    between atoms: C_7  and  C_8
REMARK    4  A    between atoms: C_12  and  O_13
REMARK    5  A    between atoms: C_14  and  O_15
REMARK                            x       y       z     vdW  Elec       q    Type
REMARK                         _______ _______ _______ _____ _____    ______ ____
ROOT
ATOM      1  C   UNL     1       5.818   4.717  17.159  0.00  0.00    +0.000 C 
ATOM      2  O   UNL     1       5.969   4.269  18.510  0.00  0.00    +0.000 OA
ATOM      3  C   UNL     1       4.813   4.354  19.327  0.00  0.00    +0.000 C 
ATOM      4  S   UNL     1       3.585   3.074  19.014  0.00  0.00    +0.000 S 
ATOM      5  C   UNL     1       2.333   4.156  19.583  0.00  0.00    +0.000 C 
ATOM      6  N   UNL     1       2.629   5.402  19.745  0.00  0.00    +0.000 NA
ATOM      7  C   UNL     1       4.011   5.657  19.240  0.00  0.00    +0.000 C 
ATOM      8  C   UNL     1       3.929   6.218  17.805  0.00  0.00    +0.000 C 
ATOM      9  C   UNL     1       5.293   6.155  17.098  0.00  0.00    +0.000 C 
ENDROOT
BRANCH   5  10
ATOM     10  C   UNL     1       0.981   3.573  19.877  0.00  0.00    +0.000 C 
ATOM     11  F   UNL     1       0.873   3.157  21.172  0.00  0.00    +0.000 F 
ENDBRANCH   5  10
BRANCH   8  12
ATOM     12  O   UNL     1       3.425   7.561  17.813  0.00  0.00    +0.000 OA
ATOM     13  H   UNL     1       3.015   7.728  18.681  0.00  0.00    +0.000 HD
ENDBRANCH   8  12
BRANCH   9  14
ATOM     14  O   UNL     1       5.172   6.593  15.742  0.00  0.00    +0.000 OA
ATOM     15  H   UNL     1       5.431   5.861  15.154  0.00  0.00    +0.000 HD
ENDBRANCH   9  14
BRANCH   1  16
ATOM     16  C   UNL     1       7.178   4.574  16.457  0.00  0.00    +0.000 C 
BRANCH  16  17
ATOM     17  O   UNL     1       8.176   4.098  17.362  0.00  0.00    +0.000 OA
ATOM     18  H   UNL     1       7.837   4.253  18.262  0.00  0.00    +0.000 HD
ENDBRANCH  16  17
ENDBRANCH   1  16
TORSDOF 5
ENDMDL
MODEL 3
REMARK VINA RESULT:      -6.0      3.416      4.791
REMARK  Name = 
REMARK  5 active torsions:
REMARK  status: ('A' for Active; 'I' for Inactive)
REMARK    1  A    between atoms: O_1  and  C_2
REMARK    2  A    between atoms: C_2  and  C_3
REMARK    3  A    between atoms: C_7  and  C_8
REMARK    4  A    between atoms: C_12  and  O_13
REMARK    5  A    between atoms: C_14  and  O_15
REMARK                            x       y       z     vdW  Elec       q    Type
REMARK                         _______ _______ _______ _____ _____    ______ ____
ROOT
ATOM      1  C   UNL     1       2.133   3.802  19.814  0.00  0.00    +0.000 C 
ATOM      2  O   UNL     1       3.176   4.701  20.206  0.00  0.00    +0.000 OA
ATOM      3  C   UNL     1       4.206   4.912  19.255  0.00  0.00    +0.000 C 
ATOM      4  S   UNL     1       3.750   5.997  17.891  0.00  0.00    +0.000 S 
ATOM      5  C   UNL     1       4.921   5.188  16.874  0.00  0.00    +0.000 C 
ATOM      6  N   UNL     1       5.435   4.081  17.294  0.00  0.00    +0.000 NA
ATOM      7  C   UNL     1       4.756   3.663  18.557  0.00  0.00    +0.000 C 
ATOM      8  C   UNL     1       3.661   2.629  18.225  0.00  0.00    +0.000 C 
ATOM      9  C   UNL     1       2.693   2.437  19.404  0.00  0.00    +0.000 C 
ENDROOT
BRANCH   5  10
ATOM     10  C   UNL     1       5.285   5.837  15.569  0.00  0.00    +0.000 C 
ATOM     11  F   UNL     1       4.828   7.120  15.491  0.00  0.00    +0.000 F 
ENDBRANCH   5  10
BRANCH   8  12
ATOM     12  O   UNL     1       4.245   1.376  17.841  0.00  0.00    +0.000 OA
ATOM     13  H   UNL     1       4.818   1.071  18.569  0.00  0.00    +0.000 HD
ENDBRANCH   8  12
BRANCH   9  14
ATOM     14  O   UNL     1       1.635   1.544  19.039  0.00  0.00    +0.000 OA
ATOM     15  H   UNL     1       1.386   1.719  18.115  0.00  0.00    +0.000 HD
ENDBRANCH   9  14
BRANCH   1  16
ATOM     16  C   UNL     1       1.143   3.687  20.985  0.00  0.00    +0.000 C 
BRANCH  16  17
ATOM     17  O   UNL     1       1.594   2.736  21.950  0.00  0.00    +0.000 OA
ATOM     18  H   UNL     1       0.800   2.385  22.391  0.00  0.00    +0.000 HD
ENDBRANCH  16  17
ENDBRANCH   1  16
TORSDOF 5
ENDMDL
MODEL 4
REMARK VINA RESULT:      -6.0      1.997      2.239
REMARK  Name = 
REMARK  5 active torsions:
REMARK  status: ('A' for Active; 'I' for Inactive)
REMARK    1  A    between atoms: O_1  and  C_2
REMARK    2  A    between atoms: C_2  and  C_3
REMARK    3  A    between atoms: C_7  and  C_8
REMARK    4  A    between atoms: C_12  and  O_13
REMARK    5  A    between atoms: C_14  and  O_15
REMARK                            x       y       z     vdW  Elec       q    Type
REMARK                         _______ _______ _______ _____ _____    ______ ____
ROOT
ATOM      1  C   UNL     1       5.721   6.061  17.968  0.00  0.00    +0.000 C 
ATOM      2  O   UNL     1       4.525   6.709  17.519  0.00  0.00    +0.000 OA
ATOM      3  C   UNL     1       3.308   6.052  17.826  0.00  0.00    +0.000 C 
ATOM      4  S   UNL     1       2.784   6.219  19.542  0.00  0.00    +0.000 S 
ATOM      5  C   UNL     1       1.928   4.698  19.414  0.00  0.00    +0.000 C 
ATOM      6  N   UNL     1       2.155   3.953  18.385  0.00  0.00    +0.000 NA
ATOM      7  C   UNL     1       3.269   4.539  17.580  0.00  0.00    +0.000 C 
ATOM      8  C   UNL     1       4.589   3.835  17.954  0.00  0.00    +0.000 C 
ATOM      9  C   UNL     1       5.809   4.623  17.449  0.00  0.00    +0.000 C 
ENDROOT
BRANCH   5  10
ATOM     10  C   UNL     1       0.951   4.349  20.500  0.00  0.00    +0.000 C 
ATOM     11  F   UNL     1       1.015   3.029  20.841  0.00  0.00    +0.000 F 
ENDBRANCH   5  10
BRANCH   8  12
ATOM     12  O   UNL     1       4.609   2.493  17.448  0.00  0.00    +0.000 OA
ATOM     13  H   UNL     1       3.939   1.974  17.930  0.00  0.00    +0.000 HD
ENDBRANCH   8  12
BRANCH   9  14
ATOM     14  O   UNL     1       7.020   4.000  17.886  0.00  0.00    +0.000 OA
ATOM     15  H   UNL     1       7.106   3.139  17.440  0.00  0.00    +0.000 HD
ENDBRANCH   9  14
BRANCH   1  16
ATOM     16  C   UNL     1       6.919   6.909  17.512  0.00  0.00    +0.000 C 
BRANCH  16  17
ATOM     17  O   UNL     1       7.481   6.398  16.302  0.00  0.00    +0.000 OA
ATOM     18  H   UNL     1       8.130   5.719  16.559  0.00  0.00    +0.000 HD
ENDBRANCH  16  17
ENDBRANCH   1  16
TORSDOF 5
ENDMDL
MODEL 5
REMARK VINA RESULT:      -6.0      3.627      5.269
REMARK  Name = 
REMARK  5 active torsions:
REMARK  status: ('A' for Active; 'I' for Inactive)
REMARK    1  A    between atoms: O_1  and  C_2
REMARK    2  A    between atoms: C_2  and  C_3
REMARK    3  A    between atoms: C_7  and  C_8
REMARK    4  A    between atoms: C_12  and  O_13
REMARK    5  A    between atoms: C_14  and  O_15
REMARK                            x       y       z     vdW  Elec       q    Type
REMARK                         _______ _______ _______ _____ _____    ______ ____
ROOT
ATOM      1  C   UNL     1       2.203   3.746  18.488  0.00  0.00    +0.000 C 
ATOM      2  O   UNL     1       2.402   5.026  19.097  0.00  0.00    +0.000 OA
ATOM      3  C   UNL     1       3.746   5.462  19.205  0.00  0.00    +0.000 C 
ATOM      4  S   UNL     1       4.462   6.058  17.663  0.00  0.00    +0.000 S 
ATOM      5  C   UNL     1       6.051   5.609  18.243  0.00  0.00    +0.000 C 
ATOM      6  N   UNL     1       6.130   4.866  19.296  0.00  0.00    +0.000 NA
ATOM      7  C   UNL     1       4.761   4.426  19.701  0.00  0.00    +0.000 C 
ATOM      8  C   UNL     1       4.499   3.013  19.143  0.00  0.00    +0.000 C 
ATOM      9  C   UNL     1       3.005   2.653  19.202  0.00  0.00    +0.000 C 
ENDROOT
BRANCH   5  10
ATOM     10  C   UNL     1       7.244   6.133  17.497  0.00  0.00    +0.000 C 
ATOM     11  F   UNL     1       8.124   6.772  18.323  0.00  0.00    +0.000 F 
ENDBRANCH   5  10
BRANCH   8  12
ATOM     12  O   UNL     1       5.282   2.036  19.844  0.00  0.00    +0.000 OA
ATOM     13  H   UNL     1       5.694   2.471  20.613  0.00  0.00    +0.000 HD
ENDBRANCH   8  12
BRANCH   9  14
ATOM     14  O   UNL     1       2.775   1.378  18.595  0.00  0.00    +0.000 OA
ATOM     15  H   UNL     1       2.274   0.823  19.218  0.00  0.00    +0.000 HD
ENDBRANCH   9  14
BRANCH   1  16
ATOM     16  C   UNL     1       0.695   3.447  18.496  0.00  0.00    +0.000 C 
BRANCH  16  17
ATOM     17  O   UNL     1       0.306   2.789  19.702  0.00  0.00    +0.000 OA
ATOM     18  H   UNL     1       1.036   2.191  19.944  0.00  0.00    +0.000 HD
ENDBRANCH  16  17
ENDBRANCH   1  16
TORSDOF 5
ENDMDL
MODEL 6
REMARK VINA RESULT:      -6.0      1.922      3.322
REMARK  Name = 
REMARK  5 active torsions:
REMARK  status: ('A' for Active; 'I' for Inactive)
REMARK    1  A    between atoms: O_1  and  C_2
REMARK    2  A    between atoms: C_2  and  C_3
REMARK    3  A    between atoms: C_7  and  C_8
REMARK    4  A    between atoms: C_12  and  O_13
REMARK    5  A    between atoms: C_14  and  O_15
REMARK                            x       y       z     vdW  Elec       q    Type
REMARK                         _______ _______ _______ _____ _____    ______ ____
ROOT
ATOM      1  C   UNL     1       5.719   4.538  16.330  0.00  0.00    +0.000 C 
ATOM      2  O   UNL     1       4.841   3.446  16.628  0.00  0.00    +0.000 OA
ATOM      3  C   UNL     1       4.145   3.526  17.860  0.00  0.00    +0.000 C 
ATOM      4  S   UNL     1       2.756   4.674  17.858  0.00  0.00    +0.000 S 
ATOM      5  C   UNL     1       2.955   4.897  19.582  0.00  0.00    +0.000 C 
ATOM      6  N   UNL     1       4.033   4.451  20.136  0.00  0.00    +0.000 NA
ATOM      7  C   UNL     1       4.966   3.952  19.082  0.00  0.00    +0.000 C 
ATOM      8  C   UNL     1       5.998   5.052  18.758  0.00  0.00    +0.000 C 
ATOM      9  C   UNL     1       6.744   4.755  17.447  0.00  0.00    +0.000 C 
ENDROOT
BRANCH   5  10
ATOM     10  C   UNL     1       1.848   5.577  20.335  0.00  0.00    +0.000 C 
ATOM     11  F   UNL     1       0.801   4.735  20.576  0.00  0.00    +0.000 F 
ENDBRANCH   5  10
BRANCH   8  12
ATOM     12  O   UNL     1       6.924   5.214  19.841  0.00  0.00    +0.000 OA
ATOM     13  H   UNL     1       7.269   4.335  20.082  0.00  0.00    +0.000 HD
ENDBRANCH   8  12
BRANCH   9  14
ATOM     14  O   UNL     1       7.627   5.833  17.121  0.00  0.00    +0.000 OA
ATOM     15  H   UNL     1       8.051   6.145  17.940  0.00  0.00    +0.000 HD
ENDBRANCH   9  14
BRANCH   1  16
ATOM     16  C   UNL     1       6.395   4.247  14.980  0.00  0.00    +0.000 C 
BRANCH  16  17
ATOM     17  O   UNL     1       7.024   5.418  14.458  0.00  0.00    +0.000 OA
ATOM     18  H   UNL     1       7.830   5.563  14.985  0.00  0.00    +0.000 HD
ENDBRANCH  16  17
ENDBRANCH   1  16
TORSDOF 5
ENDMDL
MODEL 7
REMARK VINA RESULT:      -5.9      3.469      5.233
REMARK  Name = 
REMARK  5 active torsions:
REMARK  status: ('A' for Active; 'I' for Inactive)
REMARK    1  A    between atoms: O_1  and  C_2
REMARK    2  A    between atoms: C_2  and  C_3
REMARK    3  A    between atoms: C_7  and  C_8
REMARK    4  A    between atoms: C_12  and  O_13
REMARK    5  A    between atoms: C_14  and  O_15
REMARK                            x       y       z     vdW  Elec       q    Type
REMARK                         _______ _______ _______ _____ _____    ______ ____
ROOT
ATOM      1  C   UNL     1       4.048   2.969  18.409  0.00  0.00    +0.000 C 
ATOM      2  O   UNL     1       4.207   3.354  17.039  0.00  0.00    +0.000 OA
ATOM      3  C   UNL     1       4.737   4.648  16.813  0.00  0.00    +0.000 C 
ATOM      4  S   UNL     1       6.514   4.781  17.081  0.00  0.00    +0.000 S 
ATOM      5  C   UNL     1       6.315   6.477  17.464  0.00  0.00    +0.000 C 
ATOM      6  N   UNL     1       5.121   6.923  17.666  0.00  0.00    +0.000 NA
ATOM      7  C   UNL     1       4.156   5.782  17.664  0.00  0.00    +0.000 C 
ATOM      8  C   UNL     1       3.873   5.357  19.120  0.00  0.00    +0.000 C 
ATOM      9  C   UNL     1       3.193   3.979  19.181  0.00  0.00    +0.000 C 
ENDROOT
BRANCH   5  10
ATOM     10  C   UNL     1       7.547   7.334  17.516  0.00  0.00    +0.000 C 
ATOM     11  F   UNL     1       8.286   7.102  18.640  0.00  0.00    +0.000 F 
ENDBRANCH   5  10
BRANCH   8  12
ATOM     12  O   UNL     1       3.077   6.344  19.791  0.00  0.00    +0.000 OA
ATOM     13  H   UNL     1       2.156   6.027  19.816  0.00  0.00    +0.000 HD
ENDBRANCH   8  12
BRANCH   9  14
ATOM     14  O   UNL     1       3.026   3.567  20.541  0.00  0.00    +0.000 OA
ATOM     15  H   UNL     1       2.181   3.089  20.618  0.00  0.00    +0.000 HD
ENDBRANCH   9  14
BRANCH   1  16
ATOM     16  C   UNL     1       3.435   1.560  18.438  0.00  0.00    +0.000 C 
BRANCH  16  17
ATOM     17  O   UNL     1       2.012   1.619  18.549  0.00  0.00    +0.000 OA
ATOM     18  H   UNL     1       1.685   0.706  18.454  0.00  0.00    +0.000 HD
ENDBRANCH  16  17
ENDBRANCH   1  16
TORSDOF 5
ENDMDL
MODEL 8
REMARK VINA RESULT:      -5.9      3.780      4.943
REMARK  Name = 
REMARK  5 active torsions:
REMARK  status: ('A' for Active; 'I' for Inactive)
REMARK    1  A    between atoms: O_1  and  C_2
REMARK    2  A    between atoms: C_2  and  C_3
REMARK    3  A    between atoms: C_7  and  C_8
REMARK    4  A    between atoms: C_12  and  O_13
REMARK    5  A    between atoms: C_14  and  O_15
REMARK                            x       y       z     vdW  Elec       q    Type
REMARK                         _______ _______ _______ _____ _____    ______ ____
ROOT
ATOM      1  C   UNL     1       4.276   4.757  17.842  0.00  0.00    +0.000 C 
ATOM      2  O   UNL     1       4.302   5.953  17.054  0.00  0.00    +0.000 OA
ATOM      3  C   UNL     1       5.349   6.049  16.104  0.00  0.00    +0.000 C 
ATOM      4  S   UNL     1       5.104   5.051  14.624  0.00  0.00    +0.000 S 
ATOM      5  C   UNL     1       6.839   4.957  14.418  0.00  0.00    +0.000 C 
ATOM      6  N   UNL     1       7.593   5.337  15.394  0.00  0.00    +0.000 NA
ATOM      7  C   UNL     1       6.747   5.648  16.586  0.00  0.00    +0.000 C 
ATOM      8  C   UNL     1       6.731   4.426  17.527  0.00  0.00    +0.000 C 
ATOM      9  C   UNL     1       5.606   4.534  18.569  0.00  0.00    +0.000 C 
ENDROOT
BRANCH   5  10
ATOM     10  C   UNL     1       7.364   4.458  13.102  0.00  0.00    +0.000 C 
ATOM     11  F   UNL     1       8.101   5.406  12.452  0.00  0.00    +0.000 F 
ENDBRANCH   5  10
BRANCH   8  12
ATOM     12  O   UNL     1       8.003   4.264  18.171  0.00  0.00    +0.000 OA
ATOM     13  H   UNL     1       8.181   3.310  18.260  0.00  0.00    +0.000 HD
ENDBRANCH   8  12
BRANCH   9  14
ATOM     14  O   UNL     1       5.553   3.349  19.369  0.00  0.00    +0.000 OA
ATOM     15  H   UNL     1       6.253   3.397  20.043  0.00  0.00    +0.000 HD
ENDBRANCH   9  14
BRANCH   1  16
ATOM     16  C   UNL     1       3.097   4.862  18.823  0.00  0.00    +0.000 C 
BRANCH  16  17
ATOM     17  O   UNL     1       3.498   5.484  20.045  0.00  0.00    +0.000 OA
ATOM     18  H   UNL     1       3.311   6.436  19.950  0.00  0.00    +0.000 HD
ENDBRANCH  16  17
ENDBRANCH   1  16
TORSDOF 5
ENDMDL
MODEL 9
REMARK VINA RESULT:      -5.8      1.468      1.584
REMARK  Name = 
REMARK  5 active torsions:
REMARK  status: ('A' for Active; 'I' for Inactive)
REMARK    1  A    between atoms: O_1  and  C_2
REMARK    2  A    between atoms: C_2  and  C_3
REMARK    3  A    between atoms: C_7  and  C_8
REMARK    4  A    between atoms: C_12  and  O_13
REMARK    5  A    between atoms: C_14  and  O_15
REMARK                            x       y       z     vdW  Elec       q    Type
REMARK                         _______ _______ _______ _____ _____    ______ ____
ROOT
ATOM      1  C   UNL     1       6.644   5.963  18.044  0.00  0.00    +0.000 C 
ATOM      2  O   UNL     1       5.460   6.712  17.745  0.00  0.00    +0.000 OA
ATOM      3  C   UNL     1       4.274   5.958  17.567  0.00  0.00    +0.000 C 
ATOM      4  S   UNL     1       3.536   5.358  19.098  0.00  0.00    +0.000 S 
ATOM      5  C   UNL     1       2.831   4.020  18.217  0.00  0.00    +0.000 C 
ATOM      6  N   UNL     1       3.242   3.796  17.014  0.00  0.00    +0.000 NA
ATOM      7  C   UNL     1       4.390   4.698  16.701  0.00  0.00    +0.000 C 
ATOM      8  C   UNL     1       5.710   3.933  16.928  0.00  0.00    +0.000 C 
ATOM      9  C   UNL     1       6.912   4.890  16.984  0.00  0.00    +0.000 C 
ENDROOT
BRANCH   5  10
ATOM     10  C   UNL     1       1.764   3.214  18.901  0.00  0.00    +0.000 C 
ATOM     11  F   UNL     1       0.954   3.991  19.677  0.00  0.00    +0.000 F 
ENDBRANCH   5  10
BRANCH   8  12
ATOM     12  O   UNL     1       5.902   2.940  15.910  0.00  0.00    +0.000 OA
ATOM     13  H   UNL     1       5.750   3.358  15.043  0.00  0.00    +0.000 HD
ENDBRANCH   8  12
BRANCH   9  14
ATOM     14  O   UNL     1       8.110   4.169  17.286  0.00  0.00    +0.000 OA
ATOM     15  H   UNL     1       8.521   4.564  18.075  0.00  0.00    +0.000 HD
ENDBRANCH   9  14
BRANCH   1  16
ATOM     16  C   UNL     1       7.813   6.953  18.167  0.00  0.00    +0.000 C 
BRANCH  16  17
ATOM     17  O   UNL     1       7.796   7.905  17.103  0.00  0.00    +0.000 OA
ATOM     18  H   UNL     1       7.080   7.638  16.498  0.00  0.00    +0.000 HD
ENDBRANCH  16  17
ENDBRANCH   1  16
TORSDOF 5
ENDMDL
