MODEL 1
REMARK VINA RESULT:      -6.6      0.000      0.000
REMARK  Name = 
REMARK  7 active torsions:
REMARK  status: ('A' for Active; 'I' for Inactive)
REMARK    1  A    between atoms: C_1  and  C_2
REMARK    2  A    between atoms: C_2  and  N_3
REMARK    3  A    between atoms: C_10  and  C_11
REMARK    4  A    between atoms: C_14  and  O_15
REMARK    5  A    between atoms: O_15  and  C_16
REMARK    6  A    between atoms: N_24  and  C_25
REMARK    7  A    between atoms: C_25  and  C_26
REMARK                            x       y       z     vdW  Elec       q    Type
REMARK                         _______ _______ _______ _____ _____    ______ ____
ROOT
ATOM      1  N   UNL     1       0.666  11.428  19.206  0.00  0.00    +0.000 N 
ATOM      2  C   UNL     1       1.466  12.404  18.716  0.00  0.00    +0.000 C 
ATOM      3  O   UNL     1       2.575  12.265  18.229  0.00  0.00    +0.000 OA
ATOM      4  C   UNL     1       0.745  13.706  18.749  0.00  0.00    +0.000 C 
ATOM      5  C   UNL     1      -0.702  13.309  19.069  0.00  0.00    +0.000 C 
ATOM      6  C   UNL     1      -0.639  11.811  19.218  0.00  0.00    +0.000 C 
ATOM      7  O   UNL     1      -1.599  11.062  19.264  0.00  0.00    +0.000 OA
ATOM      8  C   UNL     1      -1.068  14.068  20.340  0.00  0.00    +0.000 C 
ATOM      9  N   UNL     1       0.249  14.369  20.994  0.00  0.00    +0.000 NA
ATOM     10  C   UNL     1       1.242  14.648  19.869  0.00  0.00    +0.000 C 
ATOM     11  C   UNL     1       1.038  16.087  19.379  0.00  0.00    +0.000 C 
ATOM     12  C   UNL     1       2.177  16.439  18.439  0.00  0.00    +0.000 C 
ATOM     13  C   UNL     1       3.404  16.601  19.298  0.00  0.00    +0.000 C 
ATOM     14  N   UNL     1       3.810  15.355  19.908  0.00  0.00    +0.000 N 
ATOM     15  C   UNL     1       2.817  14.421  20.350  0.00  0.00    +0.000 C 
ATOM     16  O   UNL     1       3.111  13.417  21.004  0.00  0.00    +0.000 OA
ATOM     17  H   UNL     1       0.581  13.538  21.491  0.00  0.00    +0.000 HD
ENDROOT
BRANCH   8  18
ATOM     18  C   UNL     1      -2.193  13.406  21.146  0.00  0.00    +0.000 A 
ATOM     19  C   UNL     1      -3.541  13.545  20.805  0.00  0.00    +0.000 A 
ATOM     20  C   UNL     1      -4.555  13.146  21.694  0.00  0.00    +0.000 A 
ATOM     21  C   UNL     1      -4.269  12.560  22.927  0.00  0.00    +0.000 A 
ATOM     22  C   UNL     1      -2.936  12.362  23.273  0.00  0.00    +0.000 A 
ATOM     23  C   UNL     1      -1.912  12.788  22.392  0.00  0.00    +0.000 A 
BRANCH  21  24
ATOM     24  O   UNL     1      -5.362  12.317  23.710  0.00  0.00    +0.000 OA
ATOM     25  C   UNL     1      -6.552  13.046  23.438  0.00  0.00    +0.000 C 
ENDBRANCH  21  24
ENDBRANCH   8  18
BRANCH   1  27
ATOM     26  C   UNL     1       1.220   9.324  18.124  0.00  0.00    +0.000 C 
ATOM     27  C   UNL     1       1.103  10.070  19.448  0.00  0.00    +0.000 C 
ENDBRANCH   1  27
BRANCH  14  28
ATOM     28  C   UNL     1       5.281  15.060  19.822  0.00  0.00    +0.000 C 
BRANCH  28  29
ATOM     29  C   UNL     1       6.216  15.612  18.666  0.00  0.00    +0.000 C 
ATOM     30  C   UNL     1       7.473  16.366  19.208  0.00  0.00    +0.000 C 
ATOM     31  C   UNL     1       8.577  15.435  19.722  0.00  0.00    +0.000 C 
ATOM     32  C   UNL     1       9.010  14.394  18.694  0.00  0.00    +0.000 C 
ATOM     33  C   UNL     1       7.850  13.732  17.958  0.00  0.00    +0.000 C 
ATOM     34  C   UNL     1       6.725  14.683  17.555  0.00  0.00    +0.000 C 
ENDBRANCH  28  29
ENDBRANCH  14  28
TORSDOF 5
ENDMDL
MODEL 2
REMARK VINA RESULT:      -6.3      0.830      1.267
REMARK  Name = 
REMARK  7 active torsions:
REMARK  status: ('A' for Active; 'I' for Inactive)
REMARK    1  A    between atoms: C_1  and  C_2
REMARK    2  A    between atoms: C_2  and  N_3
REMARK    3  A    between atoms: C_10  and  C_11
REMARK    4  A    between atoms: C_14  and  O_15
REMARK    5  A    between atoms: O_15  and  C_16
REMARK    6  A    between atoms: N_24  and  C_25
REMARK    7  A    between atoms: C_25  and  C_26
REMARK                            x       y       z     vdW  Elec       q    Type
REMARK                         _______ _______ _______ _____ _____    ______ ____
ROOT
ATOM      1  N   UNL     1       0.628  11.822  19.420  0.00  0.00    +0.000 N 
ATOM      2  C   UNL     1       1.502  12.646  18.795  0.00  0.00    +0.000 C 
ATOM      3  O   UNL     1       2.561  12.332  18.280  0.00  0.00    +0.000 OA
ATOM      4  C   UNL     1       0.929  14.017  18.717  0.00  0.00    +0.000 C 
ATOM      5  C   UNL     1      -0.534  13.821  19.137  0.00  0.00    +0.000 C 
ATOM      6  C   UNL     1      -0.626  12.349  19.444  0.00  0.00    +0.000 C 
ATOM      7  O   UNL     1      -1.657  11.723  19.611  0.00  0.00    +0.000 OA
ATOM      8  C   UNL     1      -0.748  14.744  20.334  0.00  0.00    +0.000 C 
ATOM      9  N   UNL     1       0.627  14.958  20.897  0.00  0.00    +0.000 NA
ATOM     10  C   UNL     1       1.583  15.006  19.708  0.00  0.00    +0.000 C 
ATOM     11  C   UNL     1       1.511  16.401  19.074  0.00  0.00    +0.000 C 
ATOM     12  C   UNL     1       2.630  16.524  18.056  0.00  0.00    +0.000 C 
ATOM     13  C   UNL     1       3.911  16.633  18.841  0.00  0.00    +0.000 C 
ATOM     14  N   UNL     1       4.212  15.418  19.565  0.00  0.00    +0.000 N 
ATOM     15  C   UNL     1       3.148  14.653  20.145  0.00  0.00    +0.000 C 
ATOM     16  O   UNL     1       3.366  13.695  20.890  0.00  0.00    +0.000 OA
ATOM     17  H   UNL     1       0.893  14.151  21.466  0.00  0.00    +0.000 HD
ENDROOT
BRANCH   8  18
ATOM     18  C   UNL     1      -1.893  14.300  21.252  0.00  0.00    +0.000 A 
ATOM     19  C   UNL     1      -1.672  13.609  22.446  0.00  0.00    +0.000 A 
ATOM     20  C   UNL     1      -2.735  12.995  23.133  0.00  0.00    +0.000 A 
ATOM     21  C   UNL     1      -4.053  13.082  22.684  0.00  0.00    +0.000 A 
ATOM     22  C   UNL     1      -4.312  13.807  21.526  0.00  0.00    +0.000 A 
ATOM     23  C   UNL     1      -3.240  14.402  20.816  0.00  0.00    +0.000 A 
BRANCH  21  24
ATOM     24  O   UNL     1      -4.951  12.354  23.412  0.00  0.00    +0.000 OA
ATOM     25  C   UNL     1      -4.765  12.280  24.820  0.00  0.00    +0.000 C 
ENDBRANCH  21  24
ENDBRANCH   8  18
BRANCH   1  27
ATOM     26  C   UNL     1       0.881  10.311  21.305  0.00  0.00    +0.000 C 
ATOM     27  C   UNL     1       0.926  10.454  19.789  0.00  0.00    +0.000 C 
ENDBRANCH   1  27
BRANCH  14  28
ATOM     28  C   UNL     1       5.635  14.951  19.450  0.00  0.00    +0.000 C 
BRANCH  28  29
ATOM     29  C   UNL     1       6.506  15.119  18.135  0.00  0.00    +0.000 C 
ATOM     30  C   UNL     1       7.610  16.217  18.273  0.00  0.00    +0.000 C 
ATOM     31  C   UNL     1       8.831  15.766  19.083  0.00  0.00    +0.000 C 
ATOM     32  C   UNL     1       9.456  14.478  18.557  0.00  0.00    +0.000 C 
ATOM     33  C   UNL     1       8.440  13.397  18.201  0.00  0.00    +0.000 C 
ATOM     34  C   UNL     1       7.191  13.909  17.485  0.00  0.00    +0.000 C 
ENDBRANCH  28  29
ENDBRANCH  14  28
TORSDOF 5
ENDMDL
MODEL 3
REMARK VINA RESULT:      -6.3      2.549      8.784
REMARK  Name = 
REMARK  7 active torsions:
REMARK  status: ('A' for Active; 'I' for Inactive)
REMARK    1  A    between atoms: C_1  and  C_2
REMARK    2  A    between atoms: C_2  and  N_3
REMARK    3  A    between atoms: C_10  and  C_11
REMARK    4  A    between atoms: C_14  and  O_15
REMARK    5  A    between atoms: O_15  and  C_16
REMARK    6  A    between atoms: N_24  and  C_25
REMARK    7  A    between atoms: C_25  and  C_26
REMARK                            x       y       z     vdW  Elec       q    Type
REMARK                         _______ _______ _______ _____ _____    ______ ____
ROOT
ATOM      1  N   UNL     1      -0.066  12.150  21.605  0.00  0.00    +0.000 N 
ATOM      2  C   UNL     1      -1.281  12.488  22.099  0.00  0.00    +0.000 C 
ATOM      3  O   UNL     1      -2.077  11.748  22.649  0.00  0.00    +0.000 OA
ATOM      4  C   UNL     1      -1.479  13.958  21.977  0.00  0.00    +0.000 C 
ATOM      5  C   UNL     1      -0.086  14.480  21.597  0.00  0.00    +0.000 C 
ATOM      6  C   UNL     1       0.753  13.232  21.509  0.00  0.00    +0.000 C 
ATOM      7  O   UNL     1       1.969  13.199  21.441  0.00  0.00    +0.000 OA
ATOM      8  C   UNL     1      -0.271  15.227  20.279  0.00  0.00    +0.000 C 
ATOM      9  N   UNL     1      -1.520  14.644  19.685  0.00  0.00    +0.000 NA
ATOM     10  C   UNL     1      -2.461  14.348  20.849  0.00  0.00    +0.000 C 
ATOM     11  C   UNL     1      -3.146  15.653  21.273  0.00  0.00    +0.000 C 
ATOM     12  C   UNL     1      -4.251  15.318  22.257  0.00  0.00    +0.000 C 
ATOM     13  C   UNL     1      -5.350  14.665  21.459  0.00  0.00    +0.000 C 
ATOM     14  N   UNL     1      -4.944  13.386  20.920  0.00  0.00    +0.000 N 
ATOM     15  C   UNL     1      -3.599  13.200  20.462  0.00  0.00    +0.000 C 
ATOM     16  O   UNL     1      -3.249  12.180  19.864  0.00  0.00    +0.000 OA
ATOM     17  H   UNL     1      -1.300  13.749  19.239  0.00  0.00    +0.000 HD
ENDROOT
BRANCH   8  18
ATOM     18  C   UNL     1       1.011  15.314  19.441  0.00  0.00    +0.000 A 
ATOM     19  C   UNL     1       1.362  14.337  18.506  0.00  0.00    +0.000 A 
ATOM     20  C   UNL     1       2.650  14.307  17.941  0.00  0.00    +0.000 A 
ATOM     21  C   UNL     1       3.615  15.266  18.253  0.00  0.00    +0.000 A 
ATOM     22  C   UNL     1       3.279  16.280  19.142  0.00  0.00    +0.000 A 
ATOM     23  C   UNL     1       1.992  16.297  19.733  0.00  0.00    +0.000 A 
BRANCH  21  24
ATOM     24  O   UNL     1       4.842  15.041  17.693  0.00  0.00    +0.000 OA
ATOM     25  C   UNL     1       5.971  15.004  18.556  0.00  0.00    +0.000 C 
ENDBRANCH  21  24
ENDBRANCH   8  18
BRANCH   1  27
ATOM     26  C   UNL     1       0.270  10.380  19.975  0.00  0.00    +0.000 C 
ATOM     27  C   UNL     1       0.389  10.786  21.439  0.00  0.00    +0.000 C 
ENDBRANCH   1  27
BRANCH  14  28
ATOM     28  C   UNL     1      -5.947  12.281  21.095  0.00  0.00    +0.000 C 
BRANCH  28  29
ATOM     29  C   UNL     1      -6.999  11.872  19.980  0.00  0.00    +0.000 C 
ATOM     30  C   UNL     1      -7.556  13.099  19.190  0.00  0.00    +0.000 C 
ATOM     31  C   UNL     1      -6.585  13.649  18.140  0.00  0.00    +0.000 C 
ATOM     32  C   UNL     1      -6.100  12.587  17.158  0.00  0.00    +0.000 C 
ATOM     33  C   UNL     1      -5.714  11.266  17.816  0.00  0.00    +0.000 C 
ATOM     34  C   UNL     1      -6.656  10.809  18.927  0.00  0.00    +0.000 C 
ENDBRANCH  28  29
ENDBRANCH  14  28
TORSDOF 5
ENDMDL
MODEL 4
REMARK VINA RESULT:      -6.3      1.211      1.635
REMARK  Name = 
REMARK  7 active torsions:
REMARK  status: ('A' for Active; 'I' for Inactive)
REMARK    1  A    between atoms: C_1  and  C_2
REMARK    2  A    between atoms: C_2  and  N_3
REMARK    3  A    between atoms: C_10  and  C_11
REMARK    4  A    between atoms: C_14  and  O_15
REMARK    5  A    between atoms: O_15  and  C_16
REMARK    6  A    between atoms: N_24  and  C_25
REMARK    7  A    between atoms: C_25  and  C_26
REMARK                            x       y       z     vdW  Elec       q    Type
REMARK                         _______ _______ _______ _____ _____    ______ ____
ROOT
ATOM      1  N   UNL     1       0.620  11.516  19.194  0.00  0.00    +0.000 N 
ATOM      2  C   UNL     1       1.454  12.494  18.766  0.00  0.00    +0.000 C 
ATOM      3  O   UNL     1       2.576  12.350  18.312  0.00  0.00    +0.000 OA
ATOM      4  C   UNL     1       0.755  13.806  18.820  0.00  0.00    +0.000 C 
ATOM      5  C   UNL     1      -0.709  13.426  19.077  0.00  0.00    +0.000 C 
ATOM      6  C   UNL     1      -0.678  11.923  19.176  0.00  0.00    +0.000 C 
ATOM      7  O   UNL     1      -1.652  11.191  19.164  0.00  0.00    +0.000 OA
ATOM      8  C   UNL     1      -1.105  14.148  20.361  0.00  0.00    +0.000 C 
ATOM      9  N   UNL     1       0.194  14.401  21.069  0.00  0.00    +0.000 NA
ATOM     10  C   UNL     1       1.229  14.700  19.989  0.00  0.00    +0.000 C 
ATOM     11  C   UNL     1       1.068  16.158  19.542  0.00  0.00    +0.000 C 
ATOM     12  C   UNL     1       2.244  16.521  18.654  0.00  0.00    +0.000 C 
ATOM     13  C   UNL     1       3.444  16.631  19.558  0.00  0.00    +0.000 C 
ATOM     14  N   UNL     1       3.807  15.357  20.138  0.00  0.00    +0.000 N 
ATOM     15  C   UNL     1       2.783  14.428  20.514  0.00  0.00    +0.000 C 
ATOM     16  O   UNL     1       3.037  13.397  21.141  0.00  0.00    +0.000 OA
ATOM     17  H   UNL     1       0.494  13.548  21.547  0.00  0.00    +0.000 HD
ENDROOT
BRANCH   8  18
ATOM     18  C   UNL     1      -2.268  13.480  21.105  0.00  0.00    +0.000 A 
ATOM     19  C   UNL     1      -3.601  13.649  20.719  0.00  0.00    +0.000 A 
ATOM     20  C   UNL     1      -4.653  13.240  21.558  0.00  0.00    +0.000 A 
ATOM     21  C   UNL     1      -4.420  12.614  22.783  0.00  0.00    +0.000 A 
ATOM     22  C   UNL     1      -3.105  12.386  23.171  0.00  0.00    +0.000 A 
ATOM     23  C   UNL     1      -2.043  12.822  22.342  0.00  0.00    +0.000 A 
BRANCH  21  24
ATOM     24  O   UNL     1      -5.546  12.365  23.518  0.00  0.00    +0.000 OA
ATOM     25  C   UNL     1      -6.787  12.846  23.019  0.00  0.00    +0.000 C 
ENDBRANCH  21  24
ENDBRANCH   8  18
BRANCH   1  27
ATOM     26  C   UNL     1       1.153   9.435  18.059  0.00  0.00    +0.000 C 
ATOM     27  C   UNL     1       1.024  10.142  19.403  0.00  0.00    +0.000 C 
ENDBRANCH   1  27
BRANCH  14  28
ATOM     28  C   UNL     1       5.274  15.037  20.091  0.00  0.00    +0.000 C 
BRANCH  28  29
ATOM     29  C   UNL     1       6.292  15.436  21.242  0.00  0.00    +0.000 C 
ATOM     30  C   UNL     1       5.867  14.894  22.644  0.00  0.00    +0.000 C 
ATOM     31  C   UNL     1       6.154  13.401  22.841  0.00  0.00    +0.000 C 
ATOM     32  C   UNL     1       7.608  13.029  22.569  0.00  0.00    +0.000 C 
ATOM     33  C   UNL     1       8.187  13.672  21.313  0.00  0.00    +0.000 C 
ATOM     34  C   UNL     1       7.791  15.133  21.106  0.00  0.00    +0.000 C 
ENDBRANCH  28  29
ENDBRANCH  14  28
TORSDOF 5
ENDMDL
MODEL 5
REMARK VINA RESULT:      -6.3      3.188      5.990
REMARK  Name = 
REMARK  7 active torsions:
REMARK  status: ('A' for Active; 'I' for Inactive)
REMARK    1  A    between atoms: C_1  and  C_2
REMARK    2  A    between atoms: C_2  and  N_3
REMARK    3  A    between atoms: C_10  and  C_11
REMARK    4  A    between atoms: C_14  and  O_15
REMARK    5  A    between atoms: O_15  and  C_16
REMARK    6  A    between atoms: N_24  and  C_25
REMARK    7  A    between atoms: C_25  and  C_26
REMARK                            x       y       z     vdW  Elec       q    Type
REMARK                         _______ _______ _______ _____ _____    ______ ____
ROOT
ATOM      1  N   UNL     1       0.351  13.662  19.723  0.00  0.00    +0.000 N 
ATOM      2  C   UNL     1       1.137  12.615  20.072  0.00  0.00    +0.000 C 
ATOM      3  O   UNL     1       2.220  12.323  19.595  0.00  0.00    +0.000 OA
ATOM      4  C   UNL     1       0.536  11.904  21.233  0.00  0.00    +0.000 C 
ATOM      5  C   UNL     1      -0.577  12.852  21.701  0.00  0.00    +0.000 C 
ATOM      6  C   UNL     1      -0.509  13.996  20.723  0.00  0.00    +0.000 C 
ATOM      7  O   UNL     1      -1.072  15.069  20.846  0.00  0.00    +0.000 OA
ATOM      8  C   UNL     1      -1.864  12.035  21.650  0.00  0.00    +0.000 C 
ATOM      9  N   UNL     1      -1.578  10.939  20.664  0.00  0.00    +0.000 NA
ATOM     10  C   UNL     1      -0.113  10.555  20.851  0.00  0.00    +0.000 C 
ATOM     11  C   UNL     1       0.002   9.632  22.070  0.00  0.00    +0.000 C 
ATOM     12  C   UNL     1       1.408   9.060  22.108  0.00  0.00    +0.000 C 
ATOM     13  C   UNL     1       1.492   8.060  20.984  0.00  0.00    +0.000 C 
ATOM     14  N   UNL     1       1.392   8.690  19.686  0.00  0.00    +0.000 N 
ATOM     15  C   UNL     1       0.519   9.812  19.505  0.00  0.00    +0.000 C 
ATOM     16  O   UNL     1       0.291  10.287  18.389  0.00  0.00    +0.000 OA
ATOM     17  H   UNL     1      -1.677  11.302  19.712  0.00  0.00    +0.000 HD
ENDROOT
BRANCH   8  18
ATOM     18  C   UNL     1      -3.127  12.892  21.500  0.00  0.00    +0.000 A 
ATOM     19  C   UNL     1      -3.699  13.578  22.575  0.00  0.00    +0.000 A 
ATOM     20  C   UNL     1      -4.983  14.142  22.471  0.00  0.00    +0.000 A 
ATOM     21  C   UNL     1      -5.723  14.082  21.290  0.00  0.00    +0.000 A 
ATOM     22  C   UNL     1      -5.159  13.451  20.186  0.00  0.00    +0.000 A 
ATOM     23  C   UNL     1      -3.878  12.858  20.296  0.00  0.00    +0.000 A 
BRANCH  21  24
ATOM     24  O   UNL     1      -6.986  14.595  21.382  0.00  0.00    +0.000 OA
ATOM     25  C   UNL     1      -7.593  14.643  22.667  0.00  0.00    +0.000 C 
ENDBRANCH  21  24
ENDBRANCH   8  18
BRANCH   1  27
ATOM     26  C   UNL     1       1.610  15.547  18.849  0.00  0.00    +0.000 C 
ATOM     27  C   UNL     1       0.566  14.478  18.547  0.00  0.00    +0.000 C 
ENDBRANCH   1  27
BRANCH  14  28
ATOM     28  C   UNL     1       2.404   8.225  18.679  0.00  0.00    +0.000 C 
BRANCH  28  29
ATOM     29  C   UNL     1       2.432   6.754  18.085  0.00  0.00    +0.000 C 
ATOM     30  C   UNL     1       3.733   6.450  17.275  0.00  0.00    +0.000 C 
ATOM     31  C   UNL     1       4.957   6.171  18.154  0.00  0.00    +0.000 C 
ATOM     32  C   UNL     1       4.720   5.061  19.174  0.00  0.00    +0.000 C 
ATOM     33  C   UNL     1       3.376   5.154  19.889  0.00  0.00    +0.000 C 
ATOM     34  C   UNL     1       2.202   5.535  18.990  0.00  0.00    +0.000 C 
ENDBRANCH  28  29
ENDBRANCH  14  28
TORSDOF 5
ENDMDL
MODEL 6
REMARK VINA RESULT:      -6.3      3.202      8.763
REMARK  Name = 
REMARK  7 active torsions:
REMARK  status: ('A' for Active; 'I' for Inactive)
REMARK    1  A    between atoms: C_1  and  C_2
REMARK    2  A    between atoms: C_2  and  N_3
REMARK    3  A    between atoms: C_10  and  C_11
REMARK    4  A    between atoms: C_14  and  O_15
REMARK    5  A    between atoms: O_15  and  C_16
REMARK    6  A    between atoms: N_24  and  C_25
REMARK    7  A    between atoms: C_25  and  C_26
REMARK                            x       y       z     vdW  Elec       q    Type
REMARK                         _______ _______ _______ _____ _____    ______ ____
ROOT
ATOM      1  N   UNL     1       0.911  13.466  19.432  0.00  0.00    +0.000 N 
ATOM      2  C   UNL     1      -0.376  13.880  19.356  0.00  0.00    +0.000 C 
ATOM      3  O   UNL     1      -0.806  14.985  19.638  0.00  0.00    +0.000 OA
ATOM      4  C   UNL     1      -1.213  12.805  18.757  0.00  0.00    +0.000 C 
ATOM      5  C   UNL     1      -0.184  11.798  18.228  0.00  0.00    +0.000 C 
ATOM      6  C   UNL     1       1.141  12.400  18.618  0.00  0.00    +0.000 C 
ATOM      7  O   UNL     1       2.232  12.039  18.213  0.00  0.00    +0.000 OA
ATOM      8  C   UNL     1      -0.515  10.472  18.908  0.00  0.00    +0.000 C 
ATOM      9  N   UNL     1      -1.261  10.861  20.151  0.00  0.00    +0.000 NA
ATOM     10  C   UNL     1      -2.104  12.080  19.791  0.00  0.00    +0.000 C 
ATOM     11  C   UNL     1      -3.365  11.609  19.056  0.00  0.00    +0.000 C 
ATOM     12  C   UNL     1      -4.310  12.788  18.918  0.00  0.00    +0.000 C 
ATOM     13  C   UNL     1      -4.865  13.054  20.293  0.00  0.00    +0.000 C 
ATOM     14  N   UNL     1      -3.846  13.511  21.212  0.00  0.00    +0.000 N 
ATOM     15  C   UNL     1      -2.520  12.974  21.130  0.00  0.00    +0.000 C 
ATOM     16  O   UNL     1      -1.662  13.225  21.980  0.00  0.00    +0.000 OA
ATOM     17  H   UNL     1      -0.596  11.155  20.871  0.00  0.00    +0.000 HD
ENDROOT
BRANCH   8  18
ATOM     18  C   UNL     1       0.680   9.515  18.996  0.00  0.00    +0.000 A 
ATOM     19  C   UNL     1       1.366   9.066  17.864  0.00  0.00    +0.000 A 
ATOM     20  C   UNL     1       2.283   8.003  17.950  0.00  0.00    +0.000 A 
ATOM     21  C   UNL     1       2.581   7.380  19.163  0.00  0.00    +0.000 A 
ATOM     22  C   UNL     1       1.952   7.839  20.315  0.00  0.00    +0.000 A 
ATOM     23  C   UNL     1       1.008   8.891  20.228  0.00  0.00    +0.000 A 
BRANCH  21  24
ATOM     24  O   UNL     1       3.419   6.306  19.060  0.00  0.00    +0.000 OA
ATOM     25  C   UNL     1       3.067   5.270  18.152  0.00  0.00    +0.000 C 
ENDBRANCH  21  24
ENDBRANCH   8  18
BRANCH   1  27
ATOM     26  C   UNL     1       1.717  14.216  21.597  0.00  0.00    +0.000 C 
ATOM     27  C   UNL     1       1.962  14.209  20.093  0.00  0.00    +0.000 C 
ENDBRANCH   1  27
BRANCH  14  28
ATOM     28  C   UNL     1      -4.237  14.696  22.049  0.00  0.00    +0.000 C 
BRANCH  28  29
ATOM     29  C   UNL     1      -4.600  14.594  23.590  0.00  0.00    +0.000 C 
ATOM     30  C   UNL     1      -5.694  15.622  24.026  0.00  0.00    +0.000 C 
ATOM     31  C   UNL     1      -7.115  15.223  23.615  0.00  0.00    +0.000 C 
ATOM     32  C   UNL     1      -7.507  13.828  24.093  0.00  0.00    +0.000 C 
ATOM     33  C   UNL     1      -6.420  12.777  23.891  0.00  0.00    +0.000 C 
ATOM     34  C   UNL     1      -5.006  13.253  24.216  0.00  0.00    +0.000 C 
ENDBRANCH  28  29
ENDBRANCH  14  28
TORSDOF 5
ENDMDL
MODEL 7
REMARK VINA RESULT:      -6.3      2.895      9.141
REMARK  Name = 
REMARK  7 active torsions:
REMARK  status: ('A' for Active; 'I' for Inactive)
REMARK    1  A    between atoms: C_1  and  C_2
REMARK    2  A    between atoms: C_2  and  N_3
REMARK    3  A    between atoms: C_10  and  C_11
REMARK    4  A    between atoms: C_14  and  O_15
REMARK    5  A    between atoms: O_15  and  C_16
REMARK    6  A    between atoms: N_24  and  C_25
REMARK    7  A    between atoms: C_25  and  C_26
REMARK                            x       y       z     vdW  Elec       q    Type
REMARK                         _______ _______ _______ _____ _____    ______ ____
ROOT
ATOM      1  N   UNL     1      -0.434  12.868  22.111  0.00  0.00    +0.000 N 
ATOM      2  C   UNL     1      -1.614  12.923  22.773  0.00  0.00    +0.000 C 
ATOM      3  O   UNL     1      -2.243  11.982  23.225  0.00  0.00    +0.000 OA
ATOM      4  C   UNL     1      -2.003  14.344  22.984  0.00  0.00    +0.000 C 
ATOM      5  C   UNL     1      -0.740  15.125  22.597  0.00  0.00    +0.000 C 
ATOM      6  C   UNL     1       0.229  14.054  22.171  0.00  0.00    +0.000 C 
ATOM      7  O   UNL     1       1.423  14.210  21.986  0.00  0.00    +0.000 OA
ATOM      8  C   UNL     1      -1.170  16.083  21.490  0.00  0.00    +0.000 C 
ATOM      9  N   UNL     1      -2.400  15.455  20.903  0.00  0.00    +0.000 NA
ATOM     10  C   UNL     1      -3.153  14.803  22.059  0.00  0.00    +0.000 C 
ATOM     11  C   UNL     1      -3.937  15.887  22.810  0.00  0.00    +0.000 C 
ATOM     12  C   UNL     1      -4.868  15.208  23.798  0.00  0.00    +0.000 C 
ATOM     13  C   UNL     1      -5.965  14.574  22.984  0.00  0.00    +0.000 C 
ATOM     14  N   UNL     1      -5.474  13.499  22.151  0.00  0.00    +0.000 N 
ATOM     15  C   UNL     1      -4.180  13.603  21.544  0.00  0.00    +0.000 C 
ATOM     16  O   UNL     1      -3.782  12.781  20.714  0.00  0.00    +0.000 OA
ATOM     17  H   UNL     1      -2.128  14.707  20.259  0.00  0.00    +0.000 HD
ENDROOT
BRANCH   8  18
ATOM     18  C   UNL     1      -0.017  16.517  20.576  0.00  0.00    +0.000 A 
ATOM     19  C   UNL     1       0.186  15.961  19.311  0.00  0.00    +0.000 A 
ATOM     20  C   UNL     1       1.382  16.188  18.605  0.00  0.00    +0.000 A 
ATOM     21  C   UNL     1       2.393  17.005  19.110  0.00  0.00    +0.000 A 
ATOM     22  C   UNL     1       2.198  17.614  20.345  0.00  0.00    +0.000 A 
ATOM     23  C   UNL     1       1.008  17.366  21.070  0.00  0.00    +0.000 A 
BRANCH  21  24
ATOM     24  O   UNL     1       3.526  17.046  18.347  0.00  0.00    +0.000 OA
ATOM     25  C   UNL     1       3.809  15.930  17.513  0.00  0.00    +0.000 C 
ENDBRANCH  21  24
ENDBRANCH   8  18
BRANCH   1  27
ATOM     26  C   UNL     1      -0.389  11.327  20.233  0.00  0.00    +0.000 C 
ATOM     27  C   UNL     1       0.161  11.643  21.619  0.00  0.00    +0.000 C 
ENDBRANCH   1  27
BRANCH  14  28
ATOM     28  C   UNL     1      -6.306  12.248  22.179  0.00  0.00    +0.000 C 
BRANCH  28  29
ATOM     29  C   UNL     1      -7.550  12.005  21.225  0.00  0.00    +0.000 C 
ATOM     30  C   UNL     1      -7.512  12.893  19.939  0.00  0.00    +0.000 C 
ATOM     31  C   UNL     1      -6.533  12.391  18.872  0.00  0.00    +0.000 C 
ATOM     32  C   UNL     1      -6.768  10.936  18.480  0.00  0.00    +0.000 C 
ATOM     33  C   UNL     1      -7.015  10.008  19.666  0.00  0.00    +0.000 C 
ATOM     34  C   UNL     1      -7.915  10.591  20.753  0.00  0.00    +0.000 C 
ENDBRANCH  28  29
ENDBRANCH  14  28
TORSDOF 5
ENDMDL
MODEL 8
REMARK VINA RESULT:      -6.3      3.061      7.622
REMARK  Name = 
REMARK  7 active torsions:
REMARK  status: ('A' for Active; 'I' for Inactive)
REMARK    1  A    between atoms: C_1  and  C_2
REMARK    2  A    between atoms: C_2  and  N_3
REMARK    3  A    between atoms: C_10  and  C_11
REMARK    4  A    between atoms: C_14  and  O_15
REMARK    5  A    between atoms: O_15  and  C_16
REMARK    6  A    between atoms: N_24  and  C_25
REMARK    7  A    between atoms: C_25  and  C_26
REMARK                            x       y       z     vdW  Elec       q    Type
REMARK                         _______ _______ _______ _____ _____    ______ ____
ROOT
ATOM      1  N   UNL     1       1.844  13.628  19.466  0.00  0.00    +0.000 N 
ATOM      2  C   UNL     1       0.679  14.269  19.722  0.00  0.00    +0.000 C 
ATOM      3  O   UNL     1       0.540  15.443  20.016  0.00  0.00    +0.000 OA
ATOM      4  C   UNL     1      -0.463  13.345  19.480  0.00  0.00    +0.000 C 
ATOM      5  C   UNL     1       0.185  12.148  18.771  0.00  0.00    +0.000 C 
ATOM      6  C   UNL     1       1.646  12.510  18.716  0.00  0.00    +0.000 C 
ATOM      7  O   UNL     1       2.494  11.941  18.051  0.00  0.00    +0.000 OA
ATOM      8  C   UNL     1      -0.146  10.930  19.629  0.00  0.00    +0.000 C 
ATOM      9  N   UNL     1      -0.419  11.492  20.994  0.00  0.00    +0.000 NA
ATOM     10  C   UNL     1      -1.117  12.833  20.783  0.00  0.00    +0.000 C 
ATOM     11  C   UNL     1      -2.598  12.575  20.478  0.00  0.00    +0.000 C 
ATOM     12  C   UNL     1      -3.334  13.902  20.511  0.00  0.00    +0.000 C 
ATOM     13  C   UNL     1      -3.407  14.313  21.959  0.00  0.00    +0.000 C 
ATOM     14  N   UNL     1      -2.102  14.608  22.509  0.00  0.00    +0.000 N 
ATOM     15  C   UNL     1      -0.967  13.834  22.101  0.00  0.00    +0.000 C 
ATOM     16  O   UNL     1       0.132  13.953  22.648  0.00  0.00    +0.000 OA
ATOM     17  H   UNL     1       0.467  11.685  21.467  0.00  0.00    +0.000 HD
ENDROOT
BRANCH   8  18
ATOM     18  C   UNL     1       0.846   9.774  19.458  0.00  0.00    +0.000 A 
ATOM     19  C   UNL     1       1.296   9.351  18.204  0.00  0.00    +0.000 A 
ATOM     20  C   UNL     1       1.997   8.140  18.059  0.00  0.00    +0.000 A 
ATOM     21  C   UNL     1       2.312   7.333  19.153  0.00  0.00    +0.000 A 
ATOM     22  C   UNL     1       1.923   7.754  20.420  0.00  0.00    +0.000 A 
ATOM     23  C   UNL     1       1.192   8.958  20.567  0.00  0.00    +0.000 A 
BRANCH  21  24
ATOM     24  O   UNL     1       2.912   6.148  18.832  0.00  0.00    +0.000 OA
ATOM     25  C   UNL     1       2.233   5.278  17.936  0.00  0.00    +0.000 C 
ENDBRANCH  21  24
ENDBRANCH   8  18
BRANCH   1  27
ATOM     26  C   UNL     1       3.447  14.108  21.228  0.00  0.00    +0.000 C 
ATOM     27  C   UNL     1       3.152  14.188  19.735  0.00  0.00    +0.000 C 
ENDBRANCH   1  27
BRANCH  14  28
ATOM     28  C   UNL     1      -2.029  15.872  23.316  0.00  0.00    +0.000 C 
BRANCH  28  29
ATOM     29  C   UNL     1      -2.688  16.033  24.750  0.00  0.00    +0.000 C 
ATOM     30  C   UNL     1      -1.897  15.282  25.870  0.00  0.00    +0.000 C 
ATOM     31  C   UNL     1      -0.624  16.007  26.320  0.00  0.00    +0.000 C 
ATOM     32  C   UNL     1      -0.878  17.448  26.753  0.00  0.00    +0.000 C 
ATOM     33  C   UNL     1      -1.808  18.220  25.822  0.00  0.00    +0.000 C 
ATOM     34  C   UNL     1      -3.009  17.422  25.318  0.00  0.00    +0.000 C 
ENDBRANCH  28  29
ENDBRANCH  14  28
TORSDOF 5
ENDMDL
MODEL 9
REMARK VINA RESULT:      -6.2      2.871      8.232
REMARK  Name = 
REMARK  7 active torsions:
REMARK  status: ('A' for Active; 'I' for Inactive)
REMARK    1  A    between atoms: C_1  and  C_2
REMARK    2  A    between atoms: C_2  and  N_3
REMARK    3  A    between atoms: C_10  and  C_11
REMARK    4  A    between atoms: C_14  and  O_15
REMARK    5  A    between atoms: O_15  and  C_16
REMARK    6  A    between atoms: N_24  and  C_25
REMARK    7  A    between atoms: C_25  and  C_26
REMARK                            x       y       z     vdW  Elec       q    Type
REMARK                         _______ _______ _______ _____ _____    ______ ____
ROOT
ATOM      1  N   UNL     1       1.158  13.690  20.585  0.00  0.00    +0.000 N 
ATOM      2  C   UNL     1      -0.091  14.188  20.746  0.00  0.00    +0.000 C 
ATOM      3  O   UNL     1      -0.398  15.222  21.314  0.00  0.00    +0.000 OA
ATOM      4  C   UNL     1      -1.068  13.334  20.018  0.00  0.00    +0.000 C 
ATOM      5  C   UNL     1      -0.181  12.416  19.166  0.00  0.00    +0.000 C 
ATOM      6  C   UNL     1       1.220  12.829  19.533  0.00  0.00    +0.000 C 
ATOM      7  O   UNL     1       2.234  12.506  18.939  0.00  0.00    +0.000 OA
ATOM      8  C   UNL     1      -0.558  10.991  19.564  0.00  0.00    +0.000 C 
ATOM      9  N   UNL     1      -1.149  11.126  20.937  0.00  0.00    +0.000 NA
ATOM     10  C   UNL     1      -1.917  12.445  20.955  0.00  0.00    +0.000 C 
ATOM     11  C   UNL     1      -3.276  12.234  20.276  0.00  0.00    +0.000 C 
ATOM     12  C   UNL     1      -4.127  13.468  20.511  0.00  0.00    +0.000 C 
ATOM     13  C   UNL     1      -4.526  13.441  21.963  0.00  0.00    +0.000 C 
ATOM     14  N   UNL     1      -3.391  13.611  22.843  0.00  0.00    +0.000 N 
ATOM     15  C   UNL     1      -2.128  13.028  22.497  0.00  0.00    +0.000 C 
ATOM     16  O   UNL     1      -1.176  13.022  23.282  0.00  0.00    +0.000 OA
ATOM     17  H   UNL     1      -0.397  11.204  21.626  0.00  0.00    +0.000 HD
ENDROOT
BRANCH   8  18
ATOM     18  C   UNL     1       0.555   9.969  19.303  0.00  0.00    +0.000 A 
ATOM     19  C   UNL     1       1.010   9.668  18.016  0.00  0.00    +0.000 A 
ATOM     20  C   UNL     1       1.841   8.557  17.786  0.00  0.00    +0.000 A 
ATOM     21  C   UNL     1       2.281   7.735  18.824  0.00  0.00    +0.000 A 
ATOM     22  C   UNL     1       1.886   8.039  20.122  0.00  0.00    +0.000 A 
ATOM     23  C   UNL     1       1.027   9.141  20.355  0.00  0.00    +0.000 A 
BRANCH  21  24
ATOM     24  O   UNL     1       3.003   6.646  18.421  0.00  0.00    +0.000 OA
ATOM     25  C   UNL     1       3.324   5.663  19.396  0.00  0.00    +0.000 C 
ENDBRANCH  21  24
ENDBRANCH   8  18
BRANCH   1  27
ATOM     26  C   UNL     1       2.890  15.393  20.522  0.00  0.00    +0.000 C 
ATOM     27  C   UNL     1       2.326  14.194  21.276  0.00  0.00    +0.000 C 
ENDBRANCH   1  27
BRANCH  14  28
ATOM     28  C   UNL     1      -3.601  14.591  23.962  0.00  0.00    +0.000 C 
BRANCH  28  29
ATOM     29  C   UNL     1      -3.069  16.085  23.925  0.00  0.00    +0.000 C 
ATOM     30  C   UNL     1      -3.454  16.835  22.610  0.00  0.00    +0.000 C 
ATOM     31  C   UNL     1      -4.913  17.302  22.570  0.00  0.00    +0.000 C 
ATOM     32  C   UNL     1      -5.303  18.153  23.775  0.00  0.00    +0.000 C 
ATOM     33  C   UNL     1      -4.801  17.606  25.107  0.00  0.00    +0.000 C 
ATOM     34  C   UNL     1      -3.375  17.057  25.073  0.00  0.00    +0.000 C 
ENDBRANCH  28  29
ENDBRANCH  14  28
TORSDOF 5
ENDMDL
