MODEL 1
REMARK VINA RESULT:      -8.3      0.000      0.000
REMARK  Name = 
REMARK  8 active torsions:
REMARK  status: ('A' for Active; 'I' for Inactive)
REMARK    1  A    between atoms: C_1  and  O_2
REMARK    2  A    between atoms: O_2  and  C_3
REMARK    3  A    between atoms: C_8  and  C_9
REMARK    4  A    between atoms: N_14  and  C_15
REMARK    5  A    between atoms: C_16  and  C_17
REMARK    6  A    between atoms: C_16  and  C_18
REMARK    7  A    between atoms: N_21  and  C_22
REMARK    8  A    between atoms: C_22  and  C_23
REMARK                            x       y       z     vdW  Elec       q    Type
REMARK                         _______ _______ _______ _____ _____    ______ ____
ROOT
ATOM      1  C   UNL     1      -0.177  10.299  20.728  0.00  0.00    +0.000 A 
ATOM      2  C   UNL     1       0.309   9.964  22.007  0.00  0.00    +0.000 A 
ATOM      3  C   UNL     1       1.164   8.893  22.196  0.00  0.00    +0.000 A 
ATOM      4  C   UNL     1       1.623   8.172  21.098  0.00  0.00    +0.000 A 
ATOM      5  C   UNL     1       1.373   8.635  19.781  0.00  0.00    +0.000 A 
ATOM      6  C   UNL     1       1.932   8.330  18.491  0.00  0.00    +0.000 A 
ATOM      7  C   UNL     1       1.125   8.997  17.581  0.00  0.00    +0.000 A 
ATOM      8  N   UNL     1       0.206   9.773  18.249  0.00  0.00    +0.000 N 
ATOM      9  C   UNL     1       0.401   9.648  19.615  0.00  0.00    +0.000 A 
ENDROOT
BRANCH   6  10
ATOM     10  C   UNL     1       3.066   7.514  18.014  0.00  0.00    +0.000 C 
ATOM     11  O   UNL     1       4.057   8.079  17.545  0.00  0.00    +0.000 OA
ATOM     12  N   UNL     1       3.102   6.140  18.290  0.00  0.00    +0.000 N 
ATOM     13  C   UNL     1       4.375   5.429  18.189  0.00  0.00    +0.000 C 
ATOM     14  C   UNL     1       4.491   4.340  19.278  0.00  0.00    +0.000 C 
ATOM     15  N   UNL     1       3.344   3.395  19.363  0.00  0.00    +0.000 NA
ATOM     16  C   UNL     1       3.425   2.405  18.291  0.00  0.00    +0.000 C 
ATOM     17  C   UNL     1       2.051   4.134  19.431  0.00  0.00    +0.000 C 
ATOM     18  C   UNL     1       1.927   4.768  20.839  0.00  0.00    +0.000 C 
ATOM     19  C   UNL     1       0.798   3.242  19.244  0.00  0.00    +0.000 C 
ATOM     20  C   UNL     1       1.946   5.257  18.371  0.00  0.00    +0.000 C 
ENDBRANCH   6  10
BRANCH   1  22
ATOM     21  C   UNL     1      -1.409  12.044  21.708  0.00  0.00    +0.000 C 
ATOM     22  O   UNL     1      -1.133  11.268  20.542  0.00  0.00    +0.000 OA
ENDBRANCH   1  22
BRANCH   8  23
ATOM     23  C   UNL     1      -0.876  10.468  17.555  0.00  0.00    +0.000 C 
BRANCH  23  24
ATOM     24  C   UNL     1      -2.097   9.604  17.153  0.00  0.00    +0.000 C 
ATOM     25  C   UNL     1      -3.316   9.740  18.078  0.00  0.00    +0.000 C 
ATOM     26  C   UNL     1      -4.103  11.040  17.910  0.00  0.00    +0.000 C 
ATOM     27  C   UNL     1      -4.472  11.336  16.461  0.00  0.00    +0.000 C 
ATOM     28  C   UNL     1      -3.290  11.195  15.509  0.00  0.00    +0.000 C 
ATOM     29  C   UNL     1      -2.522   9.886  15.699  0.00  0.00    +0.000 C 
ENDBRANCH  23  24
ENDBRANCH   8  23
TORSDOF 4
ENDMDL
MODEL 2
REMARK VINA RESULT:      -7.2      2.412      7.684
REMARK  Name = 
REMARK  8 active torsions:
REMARK  status: ('A' for Active; 'I' for Inactive)
REMARK    1  A    between atoms: C_1  and  O_2
REMARK    2  A    between atoms: O_2  and  C_3
REMARK    3  A    between atoms: C_8  and  C_9
REMARK    4  A    between atoms: N_14  and  C_15
REMARK    5  A    between atoms: C_16  and  C_17
REMARK    6  A    between atoms: C_16  and  C_18
REMARK    7  A    between atoms: N_21  and  C_22
REMARK    8  A    between atoms: C_22  and  C_23
REMARK                            x       y       z     vdW  Elec       q    Type
REMARK                         _______ _______ _______ _____ _____    ______ ____
ROOT
ATOM      1  C   UNL     1       2.971   3.545  19.998  0.00  0.00    +0.000 A 
ATOM      2  C   UNL     1       1.644   3.244  20.363  0.00  0.00    +0.000 A 
ATOM      3  C   UNL     1       0.692   4.239  20.503  0.00  0.00    +0.000 A 
ATOM      4  C   UNL     1       1.019   5.558  20.203  0.00  0.00    +0.000 A 
ATOM      5  C   UNL     1       2.256   5.865  19.582  0.00  0.00    +0.000 A 
ATOM      6  C   UNL     1       2.766   7.015  18.884  0.00  0.00    +0.000 A 
ATOM      7  C   UNL     1       4.112   6.747  18.680  0.00  0.00    +0.000 A 
ATOM      8  N   UNL     1       4.404   5.469  19.097  0.00  0.00    +0.000 N 
ATOM      9  C   UNL     1       3.251   4.861  19.567  0.00  0.00    +0.000 A 
ENDROOT
BRANCH   6  10
ATOM     10  C   UNL     1       2.188   8.291  18.417  0.00  0.00    +0.000 C 
ATOM     11  O   UNL     1       2.244   8.573  17.218  0.00  0.00    +0.000 OA
ATOM     12  N   UNL     1       1.401   9.060  19.286  0.00  0.00    +0.000 N 
ATOM     13  C   UNL     1       0.513  10.077  18.726  0.00  0.00    +0.000 C 
ATOM     14  C   UNL     1      -0.804  10.166  19.528  0.00  0.00    +0.000 C 
ATOM     15  N   UNL     1      -0.648  10.328  20.999  0.00  0.00    +0.000 NA
ATOM     16  C   UNL     1      -0.298  11.711  21.320  0.00  0.00    +0.000 C 
ATOM     17  C   UNL     1       0.287   9.306  21.550  0.00  0.00    +0.000 C 
ATOM     18  C   UNL     1      -0.436   7.936  21.550  0.00  0.00    +0.000 C 
ATOM     19  C   UNL     1       0.723   9.566  23.014  0.00  0.00    +0.000 C 
ATOM     20  C   UNL     1       1.590   9.180  20.725  0.00  0.00    +0.000 C 
ENDBRANCH   6  10
BRANCH   1  22
ATOM     21  C   UNL     1       3.730   1.522  19.074  0.00  0.00    +0.000 C 
ATOM     22  O   UNL     1       3.958   2.591  19.993  0.00  0.00    +0.000 OA
ENDBRANCH   1  22
BRANCH   8  23
ATOM     23  C   UNL     1       5.773   4.961  19.149  0.00  0.00    +0.000 C 
BRANCH  23  24
ATOM     24  C   UNL     1       6.237   4.121  17.933  0.00  0.00    +0.000 C 
ATOM     25  C   UNL     1       5.160   3.884  16.864  0.00  0.00    +0.000 C 
ATOM     26  C   UNL     1       4.852   5.098  15.987  0.00  0.00    +0.000 C 
ATOM     27  C   UNL     1       6.099   5.734  15.384  0.00  0.00    +0.000 C 
ATOM     28  C   UNL     1       7.200   5.970  16.412  0.00  0.00    +0.000 C 
ATOM     29  C   UNL     1       7.486   4.740  17.274  0.00  0.00    +0.000 C 
ENDBRANCH  23  24
ENDBRANCH   8  23
TORSDOF 4
ENDMDL
MODEL 3
REMARK VINA RESULT:      -7.0      2.372      7.451
REMARK  Name = 
REMARK  8 active torsions:
REMARK  status: ('A' for Active; 'I' for Inactive)
REMARK    1  A    between atoms: C_1  and  O_2
REMARK    2  A    between atoms: O_2  and  C_3
REMARK    3  A    between atoms: C_8  and  C_9
REMARK    4  A    between atoms: N_14  and  C_15
REMARK    5  A    between atoms: C_16  and  C_17
REMARK    6  A    between atoms: C_16  and  C_18
REMARK    7  A    between atoms: N_21  and  C_22
REMARK    8  A    between atoms: C_22  and  C_23
REMARK                            x       y       z     vdW  Elec       q    Type
REMARK                         _______ _______ _______ _____ _____    ______ ____
ROOT
ATOM      1  C   UNL     1       5.032   5.022  18.520  0.00  0.00    +0.000 A 
ATOM      2  C   UNL     1       5.824   5.329  17.397  0.00  0.00    +0.000 A 
ATOM      3  C   UNL     1       5.437   6.294  16.483  0.00  0.00    +0.000 A 
ATOM      4  C   UNL     1       4.283   7.038  16.710  0.00  0.00    +0.000 A 
ATOM      5  C   UNL     1       3.605   6.948  17.952  0.00  0.00    +0.000 A 
ATOM      6  C   UNL     1       2.617   7.758  18.613  0.00  0.00    +0.000 A 
ATOM      7  C   UNL     1       2.234   7.025  19.727  0.00  0.00    +0.000 A 
ATOM      8  N   UNL     1       3.014   5.898  19.837  0.00  0.00    +0.000 N 
ATOM      9  C   UNL     1       3.942   5.874  18.808  0.00  0.00    +0.000 A 
ENDROOT
BRANCH   6  10
ATOM     10  C   UNL     1       1.993   9.069  18.342  0.00  0.00    +0.000 C 
ATOM     11  O   UNL     1       2.038   9.530  17.199  0.00  0.00    +0.000 OA
ATOM     12  N   UNL     1       1.181   9.670  19.313  0.00  0.00    +0.000 N 
ATOM     13  C   UNL     1       0.256  10.728  18.910  0.00  0.00    +0.000 C 
ATOM     14  C   UNL     1      -1.062  10.648  19.711  0.00  0.00    +0.000 C 
ATOM     15  N   UNL     1      -0.909  10.592  21.190  0.00  0.00    +0.000 NA
ATOM     16  C   UNL     1      -0.608  11.923  21.717  0.00  0.00    +0.000 C 
ATOM     17  C   UNL     1       0.062   9.533  21.584  0.00  0.00    +0.000 C 
ATOM     18  C   UNL     1      -0.611   8.154  21.375  0.00  0.00    +0.000 C 
ATOM     19  C   UNL     1       0.491   9.585  23.073  0.00  0.00    +0.000 C 
ATOM     20  C   UNL     1       1.368   9.578  20.755  0.00  0.00    +0.000 C 
ENDBRANCH   6  10
BRANCH   1  22
ATOM     21  C   UNL     1       4.841   2.711  18.904  0.00  0.00    +0.000 C 
ATOM     22  O   UNL     1       5.329   3.974  19.357  0.00  0.00    +0.000 OA
ENDBRANCH   1  22
BRANCH   8  23
ATOM     23  C   UNL     1       2.741   4.855  20.824  0.00  0.00    +0.000 C 
BRANCH  23  24
ATOM     24  C   UNL     1       1.335   4.208  20.764  0.00  0.00    +0.000 C 
ATOM     25  C   UNL     1       0.678   4.223  19.375  0.00  0.00    +0.000 C 
ATOM     26  C   UNL     1       1.254   3.212  18.385  0.00  0.00    +0.000 C 
ATOM     27  C   UNL     1       1.328   1.797  18.947  0.00  0.00    +0.000 C 
ATOM     28  C   UNL     1       1.960   1.742  20.333  0.00  0.00    +0.000 C 
ATOM     29  C   UNL     1       1.365   2.764  21.302  0.00  0.00    +0.000 C 
ENDBRANCH  23  24
ENDBRANCH   8  23
TORSDOF 4
ENDMDL
MODEL 4
REMARK VINA RESULT:      -6.8      2.041      7.707
REMARK  Name = 
REMARK  8 active torsions:
REMARK  status: ('A' for Active; 'I' for Inactive)
REMARK    1  A    between atoms: C_1  and  O_2
REMARK    2  A    between atoms: O_2  and  C_3
REMARK    3  A    between atoms: C_8  and  C_9
REMARK    4  A    between atoms: N_14  and  C_15
REMARK    5  A    between atoms: C_16  and  C_17
REMARK    6  A    between atoms: C_16  and  C_18
REMARK    7  A    between atoms: N_21  and  C_22
REMARK    8  A    between atoms: C_22  and  C_23
REMARK                            x       y       z     vdW  Elec       q    Type
REMARK                         _______ _______ _______ _____ _____    ______ ____
ROOT
ATOM      1  C   UNL     1       2.202   4.003  18.643  0.00  0.00    +0.000 A 
ATOM      2  C   UNL     1       1.556   3.135  19.545  0.00  0.00    +0.000 A 
ATOM      3  C   UNL     1       1.224   3.542  20.825  0.00  0.00    +0.000 A 
ATOM      4  C   UNL     1       1.455   4.858  21.215  0.00  0.00    +0.000 A 
ATOM      5  C   UNL     1       1.855   5.828  20.261  0.00  0.00    +0.000 A 
ATOM      6  C   UNL     1       1.880   7.266  20.248  0.00  0.00    +0.000 A 
ATOM      7  C   UNL     1       2.553   7.605  19.083  0.00  0.00    +0.000 A 
ATOM      8  N   UNL     1       2.818   6.474  18.347  0.00  0.00    +0.000 N 
ATOM      9  C   UNL     1       2.306   5.365  19.004  0.00  0.00    +0.000 A 
ENDROOT
BRANCH   6  10
ATOM     10  C   UNL     1       1.393   8.325  21.154  0.00  0.00    +0.000 C 
ATOM     11  O   UNL     1       1.818   8.367  22.311  0.00  0.00    +0.000 OA
ATOM     12  N   UNL     1       0.631   9.385  20.644  0.00  0.00    +0.000 N 
ATOM     13  C   UNL     1       0.504  10.611  21.431  0.00  0.00    +0.000 C 
ATOM     14  C   UNL     1       0.486  11.857  20.518  0.00  0.00    +0.000 C 
ATOM     15  N   UNL     1      -0.500  11.819  19.403  0.00  0.00    +0.000 NA
ATOM     16  C   UNL     1      -1.843  12.104  19.908  0.00  0.00    +0.000 C 
ATOM     17  C   UNL     1      -0.382  10.549  18.632  0.00  0.00    +0.000 C 
ATOM     18  C   UNL     1       0.913  10.614  17.785  0.00  0.00    +0.000 C 
ATOM     19  C   UNL     1      -1.541  10.300  17.634  0.00  0.00    +0.000 C 
ATOM     20  C   UNL     1      -0.318   9.299  19.542  0.00  0.00    +0.000 C 
ENDBRANCH   6  10
BRANCH   1  22
ATOM     21  C   UNL     1       3.150   2.231  17.424  0.00  0.00    +0.000 C 
ATOM     22  O   UNL     1       2.664   3.574  17.423  0.00  0.00    +0.000 OA
ENDBRANCH   1  22
BRANCH   8  23
ATOM     23  C   UNL     1       3.651   6.502  17.148  0.00  0.00    +0.000 C 
BRANCH  23  24
ATOM     24  C   UNL     1       5.162   6.763  17.371  0.00  0.00    +0.000 C 
ATOM     25  C   UNL     1       5.828   5.845  18.407  0.00  0.00    +0.000 C 
ATOM     26  C   UNL     1       6.082   4.417  17.925  0.00  0.00    +0.000 C 
ATOM     27  C   UNL     1       6.806   4.355  16.585  0.00  0.00    +0.000 C 
ATOM     28  C   UNL     1       6.183   5.266  15.534  0.00  0.00    +0.000 C 
ATOM     29  C   UNL     1       5.941   6.688  16.043  0.00  0.00    +0.000 C 
ENDBRANCH  23  24
ENDBRANCH   8  23
TORSDOF 4
ENDMDL
MODEL 5
REMARK VINA RESULT:      -6.6      2.086      7.858
REMARK  Name = 
REMARK  8 active torsions:
REMARK  status: ('A' for Active; 'I' for Inactive)
REMARK    1  A    between atoms: C_1  and  O_2
REMARK    2  A    between atoms: O_2  and  C_3
REMARK    3  A    between atoms: C_8  and  C_9
REMARK    4  A    between atoms: N_14  and  C_15
REMARK    5  A    between atoms: C_16  and  C_17
REMARK    6  A    between atoms: C_16  and  C_18
REMARK    7  A    between atoms: N_21  and  C_22
REMARK    8  A    between atoms: C_22  and  C_23
REMARK                            x       y       z     vdW  Elec       q    Type
REMARK                         _______ _______ _______ _____ _____    ______ ____
ROOT
ATOM      1  C   UNL     1       2.023   3.800  18.333  0.00  0.00    +0.000 A 
ATOM      2  C   UNL     1       1.145   2.998  19.087  0.00  0.00    +0.000 A 
ATOM      3  C   UNL     1       0.720   3.382  20.347  0.00  0.00    +0.000 A 
ATOM      4  C   UNL     1       1.099   4.620  20.858  0.00  0.00    +0.000 A 
ATOM      5  C   UNL     1       1.758   5.564  20.031  0.00  0.00    +0.000 A 
ATOM      6  C   UNL     1       2.004   6.979  20.129  0.00  0.00    +0.000 A 
ATOM      7  C   UNL     1       2.861   7.270  19.077  0.00  0.00    +0.000 A 
ATOM      8  N   UNL     1       3.040   6.153  18.295  0.00  0.00    +0.000 N 
ATOM      9  C   UNL     1       2.288   5.106  18.803  0.00  0.00    +0.000 A 
ENDROOT
BRANCH   6  10
ATOM     10  C   UNL     1       1.574   8.049  21.050  0.00  0.00    +0.000 C 
ATOM     11  O   UNL     1       2.005   8.056  22.205  0.00  0.00    +0.000 OA
ATOM     12  N   UNL     1       0.866   9.154  20.555  0.00  0.00    +0.000 N 
ATOM     13  C   UNL     1       0.804  10.374  21.357  0.00  0.00    +0.000 C 
ATOM     14  C   UNL     1       0.846  11.630  20.459  0.00  0.00    +0.000 C 
ATOM     15  N   UNL     1      -0.144  11.657  19.348  0.00  0.00    +0.000 NA
ATOM     16  C   UNL     1      -1.469  12.003  19.860  0.00  0.00    +0.000 C 
ATOM     17  C   UNL     1      -0.093  10.392  18.561  0.00  0.00    +0.000 C 
ATOM     18  C   UNL     1       1.201  10.401  17.710  0.00  0.00    +0.000 C 
ATOM     19  C   UNL     1      -1.267  10.215  17.564  0.00  0.00    +0.000 C 
ATOM     20  C   UNL     1      -0.089   9.129  19.456  0.00  0.00    +0.000 C 
ENDBRANCH   6  10
BRANCH   1  22
ATOM     21  C   UNL     1       3.139   2.066  17.206  0.00  0.00    +0.000 C 
ATOM     22  O   UNL     1       2.563   3.371  17.145  0.00  0.00    +0.000 OA
ENDBRANCH   1  22
BRANCH   8  23
ATOM     23  C   UNL     1       4.012   6.114  17.204  0.00  0.00    +0.000 C 
BRANCH  23  24
ATOM     24  C   UNL     1       5.081   4.995  17.281  0.00  0.00    +0.000 C 
ATOM     25  C   UNL     1       6.341   5.249  16.441  0.00  0.00    +0.000 C 
ATOM     26  C   UNL     1       7.298   6.289  17.023  0.00  0.00    +0.000 C 
ATOM     27  C   UNL     1       7.650   6.030  18.483  0.00  0.00    +0.000 C 
ATOM     28  C   UNL     1       6.424   5.757  19.348  0.00  0.00    +0.000 C 
ATOM     29  C   UNL     1       5.485   4.714  18.741  0.00  0.00    +0.000 C 
ENDBRANCH  23  24
ENDBRANCH   8  23
TORSDOF 4
ENDMDL
MODEL 6
REMARK VINA RESULT:      -6.5      3.373      8.816
REMARK  Name = 
REMARK  8 active torsions:
REMARK  status: ('A' for Active; 'I' for Inactive)
REMARK    1  A    between atoms: C_1  and  O_2
REMARK    2  A    between atoms: O_2  and  C_3
REMARK    3  A    between atoms: C_8  and  C_9
REMARK    4  A    between atoms: N_14  and  C_15
REMARK    5  A    between atoms: C_16  and  C_17
REMARK    6  A    between atoms: C_16  and  C_18
REMARK    7  A    between atoms: N_21  and  C_22
REMARK    8  A    between atoms: C_22  and  C_23
REMARK                            x       y       z     vdW  Elec       q    Type
REMARK                         _______ _______ _______ _____ _____    ______ ____
ROOT
ATOM      1  C   UNL     1      -3.509  10.536  17.655  0.00  0.00    +0.000 A 
ATOM      2  C   UNL     1      -4.855  10.949  17.597  0.00  0.00    +0.000 A 
ATOM      3  C   UNL     1      -5.354  11.904  18.466  0.00  0.00    +0.000 A 
ATOM      4  C   UNL     1      -4.500  12.535  19.366  0.00  0.00    +0.000 A 
ATOM      5  C   UNL     1      -3.098  12.344  19.277  0.00  0.00    +0.000 A 
ATOM      6  C   UNL     1      -1.958  13.041  19.811  0.00  0.00    +0.000 A 
ATOM      7  C   UNL     1      -0.867  12.240  19.502  0.00  0.00    +0.000 A 
ATOM      8  N   UNL     1      -1.268  11.185  18.717  0.00  0.00    +0.000 N 
ATOM      9  C   UNL     1      -2.630  11.278  18.475  0.00  0.00    +0.000 A 
ENDROOT
BRANCH   6  10
ATOM     10  C   UNL     1      -1.763  14.298  20.560  0.00  0.00    +0.000 C 
ATOM     11  O   UNL     1      -1.185  15.240  20.012  0.00  0.00    +0.000 OA
ATOM     12  N   UNL     1      -2.414  14.487  21.787  0.00  0.00    +0.000 N 
ATOM     13  C   UNL     1      -2.554  15.844  22.314  0.00  0.00    +0.000 C 
ATOM     14  C   UNL     1      -3.908  16.021  23.037  0.00  0.00    +0.000 C 
ATOM     15  N   UNL     1      -4.219  14.999  24.073  0.00  0.00    +0.000 NA
ATOM     16  C   UNL     1      -3.470  15.276  25.297  0.00  0.00    +0.000 C 
ATOM     17  C   UNL     1      -4.038  13.622  23.532  0.00  0.00    +0.000 C 
ATOM     18  C   UNL     1      -5.208  13.323  22.561  0.00  0.00    +0.000 C 
ATOM     19  C   UNL     1      -4.070  12.506  24.606  0.00  0.00    +0.000 C 
ATOM     20  C   UNL     1      -2.704  13.449  22.767  0.00  0.00    +0.000 C 
ENDBRANCH   6  10
BRANCH   1  22
ATOM     21  C   UNL     1      -2.899   9.795  15.509  0.00  0.00    +0.000 C 
ATOM     22  O   UNL     1      -3.034   9.493  16.898  0.00  0.00    +0.000 OA
ENDBRANCH   1  22
BRANCH   8  23
ATOM     23  C   UNL     1      -0.365  10.091  18.364  0.00  0.00    +0.000 C 
BRANCH  23  24
ATOM     24  C   UNL     1       1.081  10.196  18.908  0.00  0.00    +0.000 C 
ATOM     25  C   UNL     1       1.281   9.633  20.323  0.00  0.00    +0.000 C 
ATOM     26  C   UNL     1       1.294   8.107  20.407  0.00  0.00    +0.000 C 
ATOM     27  C   UNL     1       2.252   7.459  19.414  0.00  0.00    +0.000 C 
ATOM     28  C   UNL     1       2.095   8.004  17.999  0.00  0.00    +0.000 C 
ATOM     29  C   UNL     1       2.086   9.532  17.945  0.00  0.00    +0.000 C 
ENDBRANCH  23  24
ENDBRANCH   8  23
TORSDOF 4
ENDMDL
MODEL 7
REMARK VINA RESULT:      -6.5      1.750      7.570
REMARK  Name = 
REMARK  8 active torsions:
REMARK  status: ('A' for Active; 'I' for Inactive)
REMARK    1  A    between atoms: C_1  and  O_2
REMARK    2  A    between atoms: O_2  and  C_3
REMARK    3  A    between atoms: C_8  and  C_9
REMARK    4  A    between atoms: N_14  and  C_15
REMARK    5  A    between atoms: C_16  and  C_17
REMARK    6  A    between atoms: C_16  and  C_18
REMARK    7  A    between atoms: N_21  and  C_22
REMARK    8  A    between atoms: C_22  and  C_23
REMARK                            x       y       z     vdW  Elec       q    Type
REMARK                         _______ _______ _______ _____ _____    ______ ____
ROOT
ATOM      1  C   UNL     1       3.429   6.527  18.445  0.00  0.00    +0.000 A 
ATOM      2  C   UNL     1       3.729   7.422  17.399  0.00  0.00    +0.000 A 
ATOM      3  C   UNL     1       3.027   8.604  17.239  0.00  0.00    +0.000 A 
ATOM      4  C   UNL     1       2.058   8.965  18.170  0.00  0.00    +0.000 A 
ATOM      5  C   UNL     1       1.911   8.230  19.373  0.00  0.00    +0.000 A 
ATOM      6  C   UNL     1       1.263   8.490  20.631  0.00  0.00    +0.000 A 
ATOM      7  C   UNL     1       1.334   7.293  21.329  0.00  0.00    +0.000 A 
ATOM      8  N   UNL     1       2.086   6.383  20.624  0.00  0.00    +0.000 N 
ATOM      9  C   UNL     1       2.543   6.968  19.453  0.00  0.00    +0.000 A 
ENDROOT
BRANCH   6  10
ATOM     10  C   UNL     1       0.595   9.659  21.236  0.00  0.00    +0.000 C 
ATOM     11  O   UNL     1       1.078  10.170  22.250  0.00  0.00    +0.000 OA
ATOM     12  N   UNL     1      -0.441  10.305  20.547  0.00  0.00    +0.000 N 
ATOM     13  C   UNL     1      -0.812  11.665  20.936  0.00  0.00    +0.000 C 
ATOM     14  C   UNL     1      -1.205  12.507  19.701  0.00  0.00    +0.000 C 
ATOM     15  N   UNL     1      -2.229  11.896  18.810  0.00  0.00    +0.000 NA
ATOM     16  C   UNL     1      -3.560  12.039  19.397  0.00  0.00    +0.000 C 
ATOM     17  C   UNL     1      -1.854  10.499  18.451  0.00  0.00    +0.000 C 
ATOM     18  C   UNL     1      -0.680  10.554  17.442  0.00  0.00    +0.000 C 
ATOM     19  C   UNL     1      -2.984   9.695  17.758  0.00  0.00    +0.000 C 
ATOM     20  C   UNL     1      -1.416   9.662  19.677  0.00  0.00    +0.000 C 
ENDBRANCH   6  10
BRANCH   1  22
ATOM     21  C   UNL     1       5.338   5.310  19.078  0.00  0.00    +0.000 C 
ATOM     22  O   UNL     1       4.017   5.289  18.536  0.00  0.00    +0.000 OA
ENDBRANCH   1  22
BRANCH   8  23
ATOM     23  C   UNL     1       2.206   4.986  21.036  0.00  0.00    +0.000 C 
BRANCH  23  24
ATOM     24  C   UNL     1       1.045   4.048  20.619  0.00  0.00    +0.000 C 
ATOM     25  C   UNL     1       0.725   4.047  19.117  0.00  0.00    +0.000 C 
ATOM     26  C   UNL     1       1.731   3.291  18.250  0.00  0.00    +0.000 C 
ATOM     27  C   UNL     1       2.018   1.881  18.755  0.00  0.00    +0.000 C 
ATOM     28  C   UNL     1       2.325   1.839  20.247  0.00  0.00    +0.000 C 
ATOM     29  C   UNL     1       1.303   2.603  21.090  0.00  0.00    +0.000 C 
ENDBRANCH  23  24
ENDBRANCH   8  23
TORSDOF 4
ENDMDL
MODEL 8
REMARK VINA RESULT:      -6.5      1.993      7.772
REMARK  Name = 
REMARK  8 active torsions:
REMARK  status: ('A' for Active; 'I' for Inactive)
REMARK    1  A    between atoms: C_1  and  O_2
REMARK    2  A    between atoms: O_2  and  C_3
REMARK    3  A    between atoms: C_8  and  C_9
REMARK    4  A    between atoms: N_14  and  C_15
REMARK    5  A    between atoms: C_16  and  C_17
REMARK    6  A    between atoms: C_16  and  C_18
REMARK    7  A    between atoms: N_21  and  C_22
REMARK    8  A    between atoms: C_22  and  C_23
REMARK                            x       y       z     vdW  Elec       q    Type
REMARK                         _______ _______ _______ _____ _____    ______ ____
ROOT
ATOM      1  C   UNL     1       2.905   7.513  18.319  0.00  0.00    +0.000 A 
ATOM      2  C   UNL     1       3.007   8.621  17.455  0.00  0.00    +0.000 A 
ATOM      3  C   UNL     1       2.212   9.741  17.622  0.00  0.00    +0.000 A 
ATOM      4  C   UNL     1       1.346   9.820  18.709  0.00  0.00    +0.000 A 
ATOM      5  C   UNL     1       1.405   8.851  19.743  0.00  0.00    +0.000 A 
ATOM      6  C   UNL     1       0.906   8.796  21.091  0.00  0.00    +0.000 A 
ATOM      7  C   UNL     1       1.147   7.496  21.513  0.00  0.00    +0.000 A 
ATOM      8  N   UNL     1       1.863   6.817  20.555  0.00  0.00    +0.000 N 
ATOM      9  C   UNL     1       2.127   7.662  19.489  0.00  0.00    +0.000 A 
ENDROOT
BRANCH   6  10
ATOM     10  C   UNL     1       0.242   9.755  21.996  0.00  0.00    +0.000 C 
ATOM     11  O   UNL     1       0.605   9.821  23.173  0.00  0.00    +0.000 OA
ATOM     12  N   UNL     1      -0.630  10.720  21.472  0.00  0.00    +0.000 N 
ATOM     13  C   UNL     1      -0.954  11.896  22.278  0.00  0.00    +0.000 C 
ATOM     14  C   UNL     1      -1.096  13.153  21.392  0.00  0.00    +0.000 C 
ATOM     15  N   UNL     1      -2.017  13.018  20.231  0.00  0.00    +0.000 NA
ATOM     16  C   UNL     1      -3.407  13.109  20.675  0.00  0.00    +0.000 C 
ATOM     17  C   UNL     1      -1.696  11.797  19.439  0.00  0.00    +0.000 C 
ATOM     18  C   UNL     1      -0.384  12.055  18.658  0.00  0.00    +0.000 C 
ATOM     19  C   UNL     1      -2.765  11.425  18.380  0.00  0.00    +0.000 C 
ATOM     20  C   UNL     1      -1.508  10.541  20.323  0.00  0.00    +0.000 C 
ENDBRANCH   6  10
BRANCH   1  22
ATOM     21  C   UNL     1       4.544   6.426  17.032  0.00  0.00    +0.000 C 
ATOM     22  O   UNL     1       3.583   6.342  18.085  0.00  0.00    +0.000 OA
ENDBRANCH   1  22
BRANCH   8  23
ATOM     23  C   UNL     1       2.130   5.384  20.653  0.00  0.00    +0.000 C 
BRANCH  23  24
ATOM     24  C   UNL     1       1.070   4.447  20.022  0.00  0.00    +0.000 C 
ATOM     25  C   UNL     1       1.262   4.174  18.523  0.00  0.00    +0.000 C 
ATOM     26  C   UNL     1       2.402   3.213  18.189  0.00  0.00    +0.000 C 
ATOM     27  C   UNL     1       2.343   1.913  18.984  0.00  0.00    +0.000 C 
ATOM     28  C   UNL     1       2.137   2.142  20.477  0.00  0.00    +0.000 C 
ATOM     29  C   UNL     1       0.991   3.107  20.781  0.00  0.00    +0.000 C 
ENDBRANCH  23  24
ENDBRANCH   8  23
TORSDOF 4
ENDMDL
MODEL 9
REMARK VINA RESULT:      -6.5      2.568      7.966
REMARK  Name = 
REMARK  8 active torsions:
REMARK  status: ('A' for Active; 'I' for Inactive)
REMARK    1  A    between atoms: C_1  and  O_2
REMARK    2  A    between atoms: O_2  and  C_3
REMARK    3  A    between atoms: C_8  and  C_9
REMARK    4  A    between atoms: N_14  and  C_15
REMARK    5  A    between atoms: C_16  and  C_17
REMARK    6  A    between atoms: C_16  and  C_18
REMARK    7  A    between atoms: N_21  and  C_22
REMARK    8  A    between atoms: C_22  and  C_23
REMARK                            x       y       z     vdW  Elec       q    Type
REMARK                         _______ _______ _______ _____ _____    ______ ____
ROOT
ATOM      1  C   UNL     1       2.666   7.743  18.431  0.00  0.00    +0.000 A 
ATOM      2  C   UNL     1       2.612   8.796  17.496  0.00  0.00    +0.000 A 
ATOM      3  C   UNL     1       1.656   9.793  17.588  0.00  0.00    +0.000 A 
ATOM      4  C   UNL     1       0.776   9.810  18.665  0.00  0.00    +0.000 A 
ATOM      5  C   UNL     1       0.966   8.930  19.760  0.00  0.00    +0.000 A 
ATOM      6  C   UNL     1       0.464   8.887  21.108  0.00  0.00    +0.000 A 
ATOM      7  C   UNL     1       0.891   7.668  21.614  0.00  0.00    +0.000 A 
ATOM      8  N   UNL     1       1.713   7.044  20.704  0.00  0.00    +0.000 N 
ATOM      9  C   UNL     1       1.860   7.849  19.586  0.00  0.00    +0.000 A 
ENDROOT
BRANCH   6  10
ATOM     10  C   UNL     1      -0.347   9.792  21.946  0.00  0.00    +0.000 C 
ATOM     11  O   UNL     1      -0.700   9.417  23.067  0.00  0.00    +0.000 OA
ATOM     12  N   UNL     1      -0.525  11.128  21.561  0.00  0.00    +0.000 N 
ATOM     13  C   UNL     1      -0.960  12.103  22.560  0.00  0.00    +0.000 C 
ATOM     14  C   UNL     1      -0.287  13.473  22.328  0.00  0.00    +0.000 C 
ATOM     15  N   UNL     1      -0.403  14.018  20.948  0.00  0.00    +0.000 NA
ATOM     16  C   UNL     1      -1.736  14.579  20.737  0.00  0.00    +0.000 C 
ATOM     17  C   UNL     1       0.011  13.002  19.939  0.00  0.00    +0.000 C 
ATOM     18  C   UNL     1       1.553  12.860  19.997  0.00  0.00    +0.000 C 
ATOM     19  C   UNL     1      -0.336  13.379  18.476  0.00  0.00    +0.000 C 
ATOM     20  C   UNL     1      -0.624  11.614  20.191  0.00  0.00    +0.000 C 
ENDBRANCH   6  10
BRANCH   1  22
ATOM     21  C   UNL     1       4.475   6.841  17.232  0.00  0.00    +0.000 C 
ATOM     22  O   UNL     1       3.515   6.674  18.275  0.00  0.00    +0.000 OA
ENDBRANCH   1  22
BRANCH   8  23
ATOM     23  C   UNL     1       2.189   5.676  20.897  0.00  0.00    +0.000 C 
BRANCH  23  24
ATOM     24  C   UNL     1       1.229   4.548  20.444  0.00  0.00    +0.000 C 
ATOM     25  C   UNL     1       1.319   4.184  18.954  0.00  0.00    +0.000 C 
ATOM     26  C   UNL     1       2.555   3.373  18.568  0.00  0.00    +0.000 C 
ATOM     27  C   UNL     1       2.769   2.148  19.449  0.00  0.00    +0.000 C 
ATOM     28  C   UNL     1       2.671   2.465  20.937  0.00  0.00    +0.000 C 
ATOM     29  C   UNL     1       1.425   3.277  21.295  0.00  0.00    +0.000 C 
ENDBRANCH  23  24
ENDBRANCH   8  23
TORSDOF 4
ENDMDL
