MODEL 1
REMARK VINA RESULT:      -8.0      0.000      0.000
REMARK  Name = 
REMARK  9 active torsions:
REMARK  status: ('A' for Active; 'I' for Inactive)
REMARK    1  A    between atoms: N_4  and  C_5
REMARK    2  A    between atoms: C_5  and  C_6
REMARK    3  A    between atoms: C_6  and  C_7
REMARK    4  A    between atoms: C_7  and  C_8
REMARK    5  A    between atoms: C_10  and  C_11
REMARK    6  A    between atoms: C_11  and  N_12
REMARK    7  A    between atoms: C_13  and  C_15
REMARK    8  A    between atoms: N_26  and  C_27
REMARK    9  A    between atoms: C_27  and  C_28
REMARK                            x       y       z     vdW  Elec       q    Type
REMARK                         _______ _______ _______ _____ _____    ______ ____
ROOT
ATOM      1  C   UNL     1      -0.206  12.699  21.233  0.00  0.00    +0.000 C 
ATOM      2  N   UNL     1       1.129  12.072  21.194  0.00  0.00    +0.000 NA
ATOM      3  C   UNL     1       1.512  11.129  20.136  0.00  0.00    +0.000 C 
ATOM      4  C   UNL     1       1.881  11.839  18.823  0.00  0.00    +0.000 C 
ATOM      5  C   UNL     1       1.084  13.073  18.419  0.00  0.00    +0.000 C 
ATOM      6  N   UNL     1      -0.314  13.126  18.793  0.00  0.00    +0.000 N 
ATOM      7  C   UNL     1      -0.615  13.596  20.054  0.00  0.00    +0.000 C 
ATOM      8  O   UNL     1      -1.431  14.507  20.214  0.00  0.00    +0.000 OA
ATOM      9  H   UNL     1       1.316  11.628  22.094  0.00  0.00    +0.000 HD
ENDROOT
BRANCH   1  10
ATOM     10  C   UNL     1      -1.392  11.752  21.501  0.00  0.00    +0.000 C 
BRANCH  10  11
ATOM     11  C   UNL     1      -1.799  11.619  22.964  0.00  0.00    +0.000 C 
BRANCH  11  12
ATOM     12  C   UNL     1      -2.895  12.609  23.305  0.00  0.00    +0.000 C 
BRANCH  12  16
ATOM     13  N   UNL     1      -6.077  11.753  24.603  0.00  0.00    +0.000 NA
ATOM     14  C   UNL     1      -5.081  12.526  24.385  0.00  0.00    +0.000 C 
ATOM     15  N   UNL     1      -5.181  13.865  24.280  0.00  0.00    +0.000 N 
ATOM     16  N   UNL     1      -3.842  12.019  24.223  0.00  0.00    +0.000 N 
ATOM     17  H   UNL     1      -6.927  12.315  24.653  0.00  0.00    +0.000 HD
ATOM     18  H   UNL     1      -6.035  14.266  24.637  0.00  0.00    +0.000 HD
ATOM     19  H   UNL     1      -4.367  14.361  24.625  0.00  0.00    +0.000 HD
ATOM     20  H   UNL     1      -3.896  11.004  24.179  0.00  0.00    +0.000 HD
ENDBRANCH  12  16
ENDBRANCH  11  12
ENDBRANCH  10  11
ENDBRANCH   1  10
BRANCH   3  21
ATOM     21  C   UNL     1       0.691   9.826  19.864  0.00  0.00    +0.000 C 
BRANCH  21  22
ATOM     22  N   UNL     1       1.460   8.592  19.764  0.00  0.00    +0.000 N 
ATOM     23  C   UNL     1       1.884   8.073  18.563  0.00  0.00    +0.000 C 
ATOM     24  O   UNL     1       1.610   8.600  17.489  0.00  0.00    +0.000 OA
ATOM     25  H   UNL     1       1.733   8.117  20.611  0.00  0.00    +0.000 HD
BRANCH  23  26
ATOM     26  C   UNL     1       2.755   6.903  18.644  0.00  0.00    +0.000 A 
ATOM     27  C   UNL     1       3.926   6.809  17.907  0.00  0.00    +0.000 A 
ATOM     28  N   UNL     1       4.553   5.633  18.207  0.00  0.00    +0.000 N 
ATOM     29  C   UNL     1       3.798   4.912  19.100  0.00  0.00    +0.000 A 
ATOM     30  C   UNL     1       4.037   3.642  19.640  0.00  0.00    +0.000 A 
ATOM     31  C   UNL     1       3.084   3.113  20.508  0.00  0.00    +0.000 A 
ATOM     32  C   UNL     1       1.939   3.835  20.827  0.00  0.00    +0.000 A 
ATOM     33  C   UNL     1       1.716   5.112  20.283  0.00  0.00    +0.000 A 
ATOM     34  C   UNL     1       2.663   5.675  19.400  0.00  0.00    +0.000 A 
ATOM     35  H   UNL     1       5.431   5.320  17.814  0.00  0.00    +0.000 HD
ENDBRANCH  23  26
ENDBRANCH  21  22
ENDBRANCH   3  21
BRANCH   6  36
ATOM     36  C   UNL     1      -1.405  12.536  18.022  0.00  0.00    +0.000 C 
BRANCH  36  37
ATOM     37  C   UNL     1      -2.185  11.353  18.643  0.00  0.00    +0.000 C 
ATOM     38  C   UNL     1      -3.706  11.525  18.614  0.00  0.00    +0.000 C 
ATOM     39  C   UNL     1      -4.230  11.694  17.189  0.00  0.00    +0.000 C 
ATOM     40  C   UNL     1      -3.785  10.571  16.249  0.00  0.00    +0.000 C 
ATOM     41  C   UNL     1      -2.334  10.116  16.413  0.00  0.00    +0.000 C 
ATOM     42  C   UNL     1      -1.876  10.048  17.872  0.00  0.00    +0.000 C 
ENDBRANCH  36  37
ENDBRANCH   6  36
TORSDOF 9
ENDMDL
MODEL 2
REMARK VINA RESULT:      -7.9      1.043      1.862
REMARK  Name = 
REMARK  9 active torsions:
REMARK  status: ('A' for Active; 'I' for Inactive)
REMARK    1  A    between atoms: N_4  and  C_5
REMARK    2  A    between atoms: C_5  and  C_6
REMARK    3  A    between atoms: C_6  and  C_7
REMARK    4  A    between atoms: C_7  and  C_8
REMARK    5  A    between atoms: C_10  and  C_11
REMARK    6  A    between atoms: C_11  and  N_12
REMARK    7  A    between atoms: C_13  and  C_15
REMARK    8  A    between atoms: N_26  and  C_27
REMARK    9  A    between atoms: C_27  and  C_28
REMARK                            x       y       z     vdW  Elec       q    Type
REMARK                         _______ _______ _______ _____ _____    ______ ____
ROOT
ATOM      1  C   UNL     1      -0.016  12.684  21.073  0.00  0.00    +0.000 C 
ATOM      2  N   UNL     1       1.314  12.052  20.986  0.00  0.00    +0.000 NA
ATOM      3  C   UNL     1       1.661  11.120  19.906  0.00  0.00    +0.000 C 
ATOM      4  C   UNL     1       1.993  11.844  18.591  0.00  0.00    +0.000 C 
ATOM      5  C   UNL     1       1.190  13.086  18.225  0.00  0.00    +0.000 C 
ATOM      6  N   UNL     1      -0.195  13.140  18.642  0.00  0.00    +0.000 N 
ATOM      7  C   UNL     1      -0.456  13.597  19.917  0.00  0.00    +0.000 C 
ATOM      8  O   UNL     1      -1.264  14.509  20.111  0.00  0.00    +0.000 OA
ATOM      9  H   UNL     1       1.526  11.597  21.875  0.00  0.00    +0.000 HD
ENDROOT
BRANCH   1  10
ATOM     10  C   UNL     1      -1.199  11.739  21.365  0.00  0.00    +0.000 C 
BRANCH  10  11
ATOM     11  C   UNL     1      -1.824  11.891  22.746  0.00  0.00    +0.000 C 
BRANCH  11  12
ATOM     12  C   UNL     1      -2.734  13.102  22.791  0.00  0.00    +0.000 C 
BRANCH  12  16
ATOM     13  N   UNL     1      -5.069  11.993  25.212  0.00  0.00    +0.000 NA
ATOM     14  C   UNL     1      -4.704  12.564  24.127  0.00  0.00    +0.000 C 
ATOM     15  N   UNL     1      -5.469  12.632  23.022  0.00  0.00    +0.000 N 
ATOM     16  N   UNL     1      -3.482  13.128  24.027  0.00  0.00    +0.000 N 
ATOM     17  H   UNL     1      -5.998  11.594  25.078  0.00  0.00    +0.000 HD
ATOM     18  H   UNL     1      -6.450  12.441  23.160  0.00  0.00    +0.000 HD
ATOM     19  H   UNL     1      -5.330  13.479  22.484  0.00  0.00    +0.000 HD
ATOM     20  H   UNL     1      -2.936  12.901  24.855  0.00  0.00    +0.000 HD
ENDBRANCH  12  16
ENDBRANCH  11  12
ENDBRANCH  10  11
ENDBRANCH   1  10
BRANCH   3  21
ATOM     21  C   UNL     1       0.826   9.824  19.645  0.00  0.00    +0.000 C 
BRANCH  21  22
ATOM     22  N   UNL     1       1.578   8.576  19.588  0.00  0.00    +0.000 N 
ATOM     23  C   UNL     1       2.164   8.111  18.435  0.00  0.00    +0.000 C 
ATOM     24  O   UNL     1       2.062   8.701  17.364  0.00  0.00    +0.000 OA
ATOM     25  H   UNL     1       1.714   8.050  20.438  0.00  0.00    +0.000 HD
BRANCH  23  26
ATOM     26  C   UNL     1       2.992   6.915  18.575  0.00  0.00    +0.000 A 
ATOM     27  C   UNL     1       2.892   6.079  19.677  0.00  0.00    +0.000 A 
ATOM     28  N   UNL     1       3.752   5.029  19.525  0.00  0.00    +0.000 N 
ATOM     29  C   UNL     1       4.464   5.170  18.358  0.00  0.00    +0.000 A 
ATOM     30  C   UNL     1       5.475   4.354  17.834  0.00  0.00    +0.000 A 
ATOM     31  C   UNL     1       6.069   4.743  16.634  0.00  0.00    +0.000 A 
ATOM     32  C   UNL     1       5.659   5.902  15.985  0.00  0.00    +0.000 A 
ATOM     33  C   UNL     1       4.637   6.707  16.519  0.00  0.00    +0.000 A 
ATOM     34  C   UNL     1       4.015   6.339  17.733  0.00  0.00    +0.000 A 
ATOM     35  H   UNL     1       3.872   4.269  20.182  0.00  0.00    +0.000 HD
ENDBRANCH  23  26
ENDBRANCH  21  22
ENDBRANCH   3  21
BRANCH   6  36
ATOM     36  C   UNL     1      -1.311  12.564  17.897  0.00  0.00    +0.000 C 
BRANCH  36  37
ATOM     37  C   UNL     1      -1.970  11.275  18.444  0.00  0.00    +0.000 C 
ATOM     38  C   UNL     1      -3.481  11.392  18.665  0.00  0.00    +0.000 C 
ATOM     39  C   UNL     1      -4.217  11.744  17.374  0.00  0.00    +0.000 C 
ATOM     40  C   UNL     1      -3.901  10.786  16.224  0.00  0.00    +0.000 C 
ATOM     41  C   UNL     1      -2.435  10.367  16.103  0.00  0.00    +0.000 C 
ATOM     42  C   UNL     1      -1.761  10.107  17.452  0.00  0.00    +0.000 C 
ENDBRANCH  36  37
ENDBRANCH   6  36
TORSDOF 9
ENDMDL
MODEL 3
REMARK VINA RESULT:      -7.8      1.374      2.064
REMARK  Name = 
REMARK  9 active torsions:
REMARK  status: ('A' for Active; 'I' for Inactive)
REMARK    1  A    between atoms: N_4  and  C_5
REMARK    2  A    between atoms: C_5  and  C_6
REMARK    3  A    between atoms: C_6  and  C_7
REMARK    4  A    between atoms: C_7  and  C_8
REMARK    5  A    between atoms: C_10  and  C_11
REMARK    6  A    between atoms: C_11  and  N_12
REMARK    7  A    between atoms: C_13  and  C_15
REMARK    8  A    between atoms: N_26  and  C_27
REMARK    9  A    between atoms: C_27  and  C_28
REMARK                            x       y       z     vdW  Elec       q    Type
REMARK                         _______ _______ _______ _____ _____    ______ ____
ROOT
ATOM      1  C   UNL     1      -0.323  12.650  21.208  0.00  0.00    +0.000 C 
ATOM      2  N   UNL     1       1.008  12.015  21.185  0.00  0.00    +0.000 NA
ATOM      3  C   UNL     1       1.408  11.091  20.117  0.00  0.00    +0.000 C 
ATOM      4  C   UNL     1       1.810  11.825  18.827  0.00  0.00    +0.000 C 
ATOM      5  C   UNL     1       1.030  13.072  18.430  0.00  0.00    +0.000 C 
ATOM      6  N   UNL     1      -0.375  13.127  18.775  0.00  0.00    +0.000 N 
ATOM      7  C   UNL     1      -0.700  13.574  20.039  0.00  0.00    +0.000 C 
ATOM      8  O   UNL     1      -1.514  14.488  20.199  0.00  0.00    +0.000 OA
ATOM      9  H   UNL     1       1.173  11.552  22.080  0.00  0.00    +0.000 HD
ENDROOT
BRANCH   1  10
ATOM     10  C   UNL     1      -1.521  11.707  21.431  0.00  0.00    +0.000 C 
BRANCH  10  11
ATOM     11  C   UNL     1      -1.972  11.562  22.879  0.00  0.00    +0.000 C 
BRANCH  11  12
ATOM     12  C   UNL     1      -2.777  12.771  23.312  0.00  0.00    +0.000 C 
BRANCH  12  16
ATOM     13  N   UNL     1      -5.773  12.098  21.546  0.00  0.00    +0.000 NA
ATOM     14  C   UNL     1      -4.822  12.835  21.983  0.00  0.00    +0.000 C 
ATOM     15  N   UNL     1      -4.370  13.931  21.344  0.00  0.00    +0.000 N 
ATOM     16  N   UNL     1      -4.190  12.528  23.134  0.00  0.00    +0.000 N 
ATOM     17  H   UNL     1      -6.091  12.466  20.650  0.00  0.00    +0.000 HD
ATOM     18  H   UNL     1      -4.982  14.302  20.633  0.00  0.00    +0.000 HD
ATOM     19  H   UNL     1      -4.046  14.659  21.969  0.00  0.00    +0.000 HD
ATOM     20  H   UNL     1      -4.506  11.617  23.461  0.00  0.00    +0.000 HD
ENDBRANCH  12  16
ENDBRANCH  11  12
ENDBRANCH  10  11
ENDBRANCH   1  10
BRANCH   3  21
ATOM     21  C   UNL     1       0.584   9.799  19.802  0.00  0.00    +0.000 C 
BRANCH  21  22
ATOM     22  N   UNL     1       1.351   8.638  19.369  0.00  0.00    +0.000 N 
ATOM     23  C   UNL     1       1.774   7.658  20.235  0.00  0.00    +0.000 C 
ATOM     24  O   UNL     1       1.561   7.715  21.442  0.00  0.00    +0.000 OA
ATOM     25  H   UNL     1       1.547   8.521  18.386  0.00  0.00    +0.000 HD
BRANCH  23  26
ATOM     26  C   UNL     1       2.416   6.496  19.624  0.00  0.00    +0.000 A 
ATOM     27  C   UNL     1       2.238   5.214  20.121  0.00  0.00    +0.000 A 
ATOM     28  N   UNL     1       2.921   4.329  19.336  0.00  0.00    +0.000 N 
ATOM     29  C   UNL     1       3.594   5.002  18.345  0.00  0.00    +0.000 A 
ATOM     30  C   UNL     1       4.445   4.497  17.354  0.00  0.00    +0.000 A 
ATOM     31  C   UNL     1       5.039   5.407  16.480  0.00  0.00    +0.000 A 
ATOM     32  C   UNL     1       4.781   6.769  16.595  0.00  0.00    +0.000 A 
ATOM     33  C   UNL     1       3.918   7.260  17.590  0.00  0.00    +0.000 A 
ATOM     34  C   UNL     1       3.301   6.363  18.490  0.00  0.00    +0.000 A 
ATOM     35  H   UNL     1       2.952   3.327  19.473  0.00  0.00    +0.000 HD
ENDBRANCH  23  26
ENDBRANCH  21  22
ENDBRANCH   3  21
BRANCH   6  36
ATOM     36  C   UNL     1      -1.452  12.561  17.969  0.00  0.00    +0.000 C 
BRANCH  36  37
ATOM     37  C   UNL     1      -2.084  11.224  18.425  0.00  0.00    +0.000 C 
ATOM     38  C   UNL     1      -3.601  11.286  18.626  0.00  0.00    +0.000 C 
ATOM     39  C   UNL     1      -4.325  11.697  17.345  0.00  0.00    +0.000 C 
ATOM     40  C   UNL     1      -3.964  10.819  16.144  0.00  0.00    +0.000 C 
ATOM     41  C   UNL     1      -2.485  10.448  16.025  0.00  0.00    +0.000 C 
ATOM     42  C   UNL     1      -1.826  10.125  17.368  0.00  0.00    +0.000 C 
ENDBRANCH  36  37
ENDBRANCH   6  36
TORSDOF 9
ENDMDL
MODEL 4
REMARK VINA RESULT:      -7.7      2.560      4.542
REMARK  Name = 
REMARK  9 active torsions:
REMARK  status: ('A' for Active; 'I' for Inactive)
REMARK    1  A    between atoms: N_4  and  C_5
REMARK    2  A    between atoms: C_5  and  C_6
REMARK    3  A    between atoms: C_6  and  C_7
REMARK    4  A    between atoms: C_7  and  C_8
REMARK    5  A    between atoms: C_10  and  C_11
REMARK    6  A    between atoms: C_11  and  N_12
REMARK    7  A    between atoms: C_13  and  C_15
REMARK    8  A    between atoms: N_26  and  C_27
REMARK    9  A    between atoms: C_27  and  C_28
REMARK                            x       y       z     vdW  Elec       q    Type
REMARK                         _______ _______ _______ _____ _____    ______ ____
ROOT
ATOM      1  C   UNL     1      -1.457  10.620  19.331  0.00  0.00    +0.000 C 
ATOM      2  N   UNL     1      -0.964   9.504  20.161  0.00  0.00    +0.000 NA
ATOM      3  C   UNL     1       0.464   9.322  20.446  0.00  0.00    +0.000 C 
ATOM      4  C   UNL     1       0.969  10.273  21.543  0.00  0.00    +0.000 C 
ATOM      5  C   UNL     1       0.413  11.691  21.585  0.00  0.00    +0.000 C 
ATOM      6  N   UNL     1       0.057  12.313  20.327  0.00  0.00    +0.000 N 
ATOM      7  C   UNL     1      -1.201  12.053  19.826  0.00  0.00    +0.000 C 
ATOM      8  O   UNL     1      -1.958  12.972  19.501  0.00  0.00    +0.000 OA
ATOM      9  H   UNL     1      -1.325   8.625  19.787  0.00  0.00    +0.000 HD
ENDROOT
BRANCH   1  10
ATOM     10  C   UNL     1      -1.055  10.588  17.843  0.00  0.00    +0.000 C 
BRANCH  10  11
ATOM     11  C   UNL     1      -2.136  10.090  16.890  0.00  0.00    +0.000 C 
BRANCH  11  12
ATOM     12  C   UNL     1      -3.195  11.154  16.682  0.00  0.00    +0.000 C 
BRANCH  12  16
ATOM     13  N   UNL     1      -6.578  11.433  17.696  0.00  0.00    +0.000 NA
ATOM     14  C   UNL     1      -5.312  11.569  17.823  0.00  0.00    +0.000 C 
ATOM     15  N   UNL     1      -4.732  12.555  18.534  0.00  0.00    +0.000 N 
ATOM     16  N   UNL     1      -4.465  10.715  17.213  0.00  0.00    +0.000 N 
ATOM     17  H   UNL     1      -7.043  12.194  18.191  0.00  0.00    +0.000 HD
ATOM     18  H   UNL     1      -5.338  13.038  19.181  0.00  0.00    +0.000 HD
ATOM     19  H   UNL     1      -3.864  12.279  18.977  0.00  0.00    +0.000 HD
ATOM     20  H   UNL     1      -4.992  10.102  16.595  0.00  0.00    +0.000 HD
ENDBRANCH  12  16
ENDBRANCH  11  12
ENDBRANCH  10  11
ENDBRANCH   1  10
BRANCH   3  21
ATOM     21  C   UNL     1       1.516   9.173  19.297  0.00  0.00    +0.000 C 
BRANCH  21  22
ATOM     22  N   UNL     1       2.081   7.842  19.113  0.00  0.00    +0.000 N 
ATOM     23  C   UNL     1       2.826   7.493  18.011  0.00  0.00    +0.000 C 
ATOM     24  O   UNL     1       3.035   8.275  17.089  0.00  0.00    +0.000 OA
ATOM     25  H   UNL     1       1.961   7.156  19.843  0.00  0.00    +0.000 HD
BRANCH  23  26
ATOM     26  C   UNL     1       3.431   6.164  18.042  0.00  0.00    +0.000 A 
ATOM     27  C   UNL     1       4.802   5.979  17.946  0.00  0.00    +0.000 A 
ATOM     28  N   UNL     1       5.084   4.647  18.040  0.00  0.00    +0.000 N 
ATOM     29  C   UNL     1       3.920   3.927  18.151  0.00  0.00    +0.000 A 
ATOM     30  C   UNL     1       3.741   2.539  18.228  0.00  0.00    +0.000 A 
ATOM     31  C   UNL     1       2.436   2.054  18.299  0.00  0.00    +0.000 A 
ATOM     32  C   UNL     1       1.354   2.929  18.301  0.00  0.00    +0.000 A 
ATOM     33  C   UNL     1       1.550   4.319  18.232  0.00  0.00    +0.000 A 
ATOM     34  C   UNL     1       2.861   4.841  18.158  0.00  0.00    +0.000 A 
ATOM     35  H   UNL     1       6.010   4.240  18.007  0.00  0.00    +0.000 HD
ENDBRANCH  23  26
ENDBRANCH  21  22
ENDBRANCH   3  21
BRANCH   6  36
ATOM     36  C   UNL     1       0.990  13.024  19.457  0.00  0.00    +0.000 C 
BRANCH  36  37
ATOM     37  C   UNL     1       1.099  14.560  19.599  0.00  0.00    +0.000 C 
ATOM     38  C   UNL     1       1.584  15.027  20.975  0.00  0.00    +0.000 C 
ATOM     39  C   UNL     1       2.961  14.458  21.313  0.00  0.00    +0.000 C 
ATOM     40  C   UNL     1       4.008  14.742  20.235  0.00  0.00    +0.000 C 
ATOM     41  C   UNL     1       3.522  14.590  18.792  0.00  0.00    +0.000 C 
ATOM     42  C   UNL     1       2.105  15.121  18.567  0.00  0.00    +0.000 C 
ENDBRANCH  36  37
ENDBRANCH   6  36
TORSDOF 9
ENDMDL
MODEL 5
REMARK VINA RESULT:      -7.7      1.019      1.052
REMARK  Name = 
REMARK  9 active torsions:
REMARK  status: ('A' for Active; 'I' for Inactive)
REMARK    1  A    between atoms: N_4  and  C_5
REMARK    2  A    between atoms: C_5  and  C_6
REMARK    3  A    between atoms: C_6  and  C_7
REMARK    4  A    between atoms: C_7  and  C_8
REMARK    5  A    between atoms: C_10  and  C_11
REMARK    6  A    between atoms: C_11  and  N_12
REMARK    7  A    between atoms: C_13  and  C_15
REMARK    8  A    between atoms: N_26  and  C_27
REMARK    9  A    between atoms: C_27  and  C_28
REMARK                            x       y       z     vdW  Elec       q    Type
REMARK                         _______ _______ _______ _____ _____    ______ ____
ROOT
ATOM      1  C   UNL     1      -0.615  13.044  21.359  0.00  0.00    +0.000 C 
ATOM      2  N   UNL     1       0.734  12.468  21.511  0.00  0.00    +0.000 NA
ATOM      3  C   UNL     1       1.253  11.453  20.586  0.00  0.00    +0.000 C 
ATOM      4  C   UNL     1       1.736  12.062  19.259  0.00  0.00    +0.000 C 
ATOM      5  C   UNL     1       0.950  13.225  18.668  0.00  0.00    +0.000 C 
ATOM      6  N   UNL     1      -0.480  13.256  18.892  0.00  0.00    +0.000 N 
ATOM      7  C   UNL     1      -0.925  13.821  20.069  0.00  0.00    +0.000 C 
ATOM      8  O   UNL     1      -1.781  14.710  20.063  0.00  0.00    +0.000 OA
ATOM      9  H   UNL     1       0.840  12.111  22.462  0.00  0.00    +0.000 HD
ENDROOT
BRANCH   1  10
ATOM     10  C   UNL     1      -1.795  12.079  21.589  0.00  0.00    +0.000 C 
BRANCH  10  11
ATOM     11  C   UNL     1      -2.245  11.938  23.038  0.00  0.00    +0.000 C 
BRANCH  11  12
ATOM     12  C   UNL     1      -2.752  13.263  23.571  0.00  0.00    +0.000 C 
BRANCH  12  16
ATOM     13  N   UNL     1      -6.059  12.174  24.223  0.00  0.00    +0.000 NA
ATOM     14  C   UNL     1      -5.167  12.953  23.739  0.00  0.00    +0.000 C 
ATOM     15  N   UNL     1      -5.335  13.682  22.620  0.00  0.00    +0.000 N 
ATOM     16  N   UNL     1      -3.963  13.071  24.336  0.00  0.00    +0.000 N 
ATOM     17  H   UNL     1      -6.876  12.188  23.612  0.00  0.00    +0.000 HD
ATOM     18  H   UNL     1      -6.291  13.792  22.313  0.00  0.00    +0.000 HD
ATOM     19  H   UNL     1      -4.849  14.571  22.637  0.00  0.00    +0.000 HD
ATOM     20  H   UNL     1      -3.886  12.382  25.081  0.00  0.00    +0.000 HD
ENDBRANCH  12  16
ENDBRANCH  11  12
ENDBRANCH  10  11
ENDBRANCH   1  10
BRANCH   3  21
ATOM     21  C   UNL     1       0.504  10.101  20.351  0.00  0.00    +0.000 C 
BRANCH  21  22
ATOM     22  N   UNL     1       1.294   9.022  19.773  0.00  0.00    +0.000 N 
ATOM     23  C   UNL     1       1.588   7.864  20.455  0.00  0.00    +0.000 C 
ATOM     24  O   UNL     1       1.231   7.679  21.614  0.00  0.00    +0.000 OA
ATOM     25  H   UNL     1       1.604   9.102  18.816  0.00  0.00    +0.000 HD
BRANCH  23  26
ATOM     26  C   UNL     1       2.275   6.827  19.689  0.00  0.00    +0.000 A 
ATOM     27  C   UNL     1       2.838   7.083  18.448  0.00  0.00    +0.000 A 
ATOM     28  N   UNL     1       3.442   5.949  17.985  0.00  0.00    +0.000 N 
ATOM     29  C   UNL     1       3.253   4.920  18.875  0.00  0.00    +0.000 A 
ATOM     30  C   UNL     1       3.661   3.583  18.781  0.00  0.00    +0.000 A 
ATOM     31  C   UNL     1       3.307   2.720  19.817  0.00  0.00    +0.000 A 
ATOM     32  C   UNL     1       2.580   3.184  20.908  0.00  0.00    +0.000 A 
ATOM     33  C   UNL     1       2.185   4.531  20.992  0.00  0.00    +0.000 A 
ATOM     34  C   UNL     1       2.528   5.430  19.958  0.00  0.00    +0.000 A 
ATOM     35  H   UNL     1       3.935   5.865  17.106  0.00  0.00    +0.000 HD
ENDBRANCH  23  26
ENDBRANCH  21  22
ENDBRANCH   3  21
BRANCH   6  36
ATOM     36  C   UNL     1      -1.467  12.560  18.070  0.00  0.00    +0.000 C 
BRANCH  36  37
ATOM     37  C   UNL     1      -2.294  11.426  18.721  0.00  0.00    +0.000 C 
ATOM     38  C   UNL     1      -3.809  11.588  18.561  0.00  0.00    +0.000 C 
ATOM     39  C   UNL     1      -4.221  11.641  17.091  0.00  0.00    +0.000 C 
ATOM     40  C   UNL     1      -3.706  10.449  16.281  0.00  0.00    +0.000 C 
ATOM     41  C   UNL     1      -2.273  10.015  16.592  0.00  0.00    +0.000 C 
ATOM     42  C   UNL     1      -1.929  10.066  18.083  0.00  0.00    +0.000 C 
ENDBRANCH  36  37
ENDBRANCH   6  36
TORSDOF 9
ENDMDL
MODEL 6
REMARK VINA RESULT:      -7.7      2.905      5.452
REMARK  Name = 
REMARK  9 active torsions:
REMARK  status: ('A' for Active; 'I' for Inactive)
REMARK    1  A    between atoms: N_4  and  C_5
REMARK    2  A    between atoms: C_5  and  C_6
REMARK    3  A    between atoms: C_6  and  C_7
REMARK    4  A    between atoms: C_7  and  C_8
REMARK    5  A    between atoms: C_10  and  C_11
REMARK    6  A    between atoms: C_11  and  N_12
REMARK    7  A    between atoms: C_13  and  C_15
REMARK    8  A    between atoms: N_26  and  C_27
REMARK    9  A    between atoms: C_27  and  C_28
REMARK                            x       y       z     vdW  Elec       q    Type
REMARK                         _______ _______ _______ _____ _____    ______ ____
ROOT
ATOM      1  C   UNL     1      -1.971  10.985  19.009  0.00  0.00    +0.000 C 
ATOM      2  N   UNL     1      -1.136   9.913  19.583  0.00  0.00    +0.000 NA
ATOM      3  C   UNL     1       0.328  10.012  19.631  0.00  0.00    +0.000 C 
ATOM      4  C   UNL     1       0.817  10.914  20.776  0.00  0.00    +0.000 C 
ATOM      5  C   UNL     1       0.011  12.163  21.109  0.00  0.00    +0.000 C 
ATOM      6  N   UNL     1      -0.669  12.837  20.023  0.00  0.00    +0.000 N 
ATOM      7  C   UNL     1      -1.919  12.371  19.673  0.00  0.00    +0.000 C 
ATOM      8  O   UNL     1      -2.885  13.136  19.601  0.00  0.00    +0.000 OA
ATOM      9  H   UNL     1      -1.377   9.027  19.137  0.00  0.00    +0.000 HD
ENDROOT
BRANCH   1  10
ATOM     10  C   UNL     1      -1.831  11.216  17.492  0.00  0.00    +0.000 C 
BRANCH  10  11
ATOM     11  C   UNL     1      -2.386  10.102  16.612  0.00  0.00    +0.000 C 
BRANCH  11  12
ATOM     12  C   UNL     1      -3.038  10.677  15.370  0.00  0.00    +0.000 C 
BRANCH  12  16
ATOM     13  N   UNL     1      -3.126   9.668  11.976  0.00  0.00    +0.000 NA
ATOM     14  C   UNL     1      -3.572   9.763  13.172  0.00  0.00    +0.000 C 
ATOM     15  N   UNL     1      -4.881   9.785  13.484  0.00  0.00    +0.000 N 
ATOM     16  N   UNL     1      -2.722   9.870  14.214  0.00  0.00    +0.000 N 
ATOM     17  H   UNL     1      -3.916   9.640  11.331  0.00  0.00    +0.000 HD
ATOM     18  H   UNL     1      -5.506   9.463  12.759  0.00  0.00    +0.000 HD
ATOM     19  H   UNL     1      -5.094   9.351  14.374  0.00  0.00    +0.000 HD
ATOM     20  H   UNL     1      -1.773   9.985  13.865  0.00  0.00    +0.000 HD
ENDBRANCH  12  16
ENDBRANCH  11  12
ENDBRANCH  10  11
ENDBRANCH   1  10
BRANCH   3  21
ATOM     21  C   UNL     1       1.176  10.230  18.335  0.00  0.00    +0.000 C 
BRANCH  21  22
ATOM     22  N   UNL     1       1.979   9.096  17.895  0.00  0.00    +0.000 N 
ATOM     23  C   UNL     1       2.285   8.035  18.715  0.00  0.00    +0.000 C 
ATOM     24  O   UNL     1       1.929   7.991  19.888  0.00  0.00    +0.000 OA
ATOM     25  H   UNL     1       2.290   9.061  16.935  0.00  0.00    +0.000 HD
BRANCH  23  26
ATOM     26  C   UNL     1       2.984   6.919  18.083  0.00  0.00    +0.000 A 
ATOM     27  C   UNL     1       4.154   7.100  17.362  0.00  0.00    +0.000 A 
ATOM     28  N   UNL     1       4.604   5.889  16.920  0.00  0.00    +0.000 N 
ATOM     29  C   UNL     1       3.728   4.899  17.294  0.00  0.00    +0.000 A 
ATOM     30  C   UNL     1       3.774   3.526  17.018  0.00  0.00    +0.000 A 
ATOM     31  C   UNL     1       2.729   2.732  17.489  0.00  0.00    +0.000 A 
ATOM     32  C   UNL     1       1.684   3.294  18.214  0.00  0.00    +0.000 A 
ATOM     33  C   UNL     1       1.656   4.672  18.490  0.00  0.00    +0.000 A 
ATOM     34  C   UNL     1       2.700   5.503  18.027  0.00  0.00    +0.000 A 
ATOM     35  H   UNL     1       5.443   5.737  16.376  0.00  0.00    +0.000 HD
ENDBRANCH  23  26
ENDBRANCH  21  22
ENDBRANCH   3  21
BRANCH   6  36
ATOM     36  C   UNL     1      -0.055  13.830  19.146  0.00  0.00    +0.000 C 
BRANCH  36  37
ATOM     37  C   UNL     1       0.664  15.036  19.795  0.00  0.00    +0.000 C 
ATOM     38  C   UNL     1       1.021  16.153  18.810  0.00  0.00    +0.000 C 
ATOM     39  C   UNL     1      -0.217  16.708  18.110  0.00  0.00    +0.000 C 
ATOM     40  C   UNL     1      -1.305  17.162  19.085  0.00  0.00    +0.000 C 
ATOM     41  C   UNL     1      -1.532  16.243  20.287  0.00  0.00    +0.000 C 
ATOM     42  C   UNL     1      -0.238  15.676  20.875  0.00  0.00    +0.000 C 
ENDBRANCH  36  37
ENDBRANCH   6  36
TORSDOF 9
ENDMDL
MODEL 7
REMARK VINA RESULT:      -7.7      2.618      4.552
REMARK  Name = 
REMARK  9 active torsions:
REMARK  status: ('A' for Active; 'I' for Inactive)
REMARK    1  A    between atoms: N_4  and  C_5
REMARK    2  A    between atoms: C_5  and  C_6
REMARK    3  A    between atoms: C_6  and  C_7
REMARK    4  A    between atoms: C_7  and  C_8
REMARK    5  A    between atoms: C_10  and  C_11
REMARK    6  A    between atoms: C_11  and  N_12
REMARK    7  A    between atoms: C_13  and  C_15
REMARK    8  A    between atoms: N_26  and  C_27
REMARK    9  A    between atoms: C_27  and  C_28
REMARK                            x       y       z     vdW  Elec       q    Type
REMARK                         _______ _______ _______ _____ _____    ______ ____
ROOT
ATOM      1  C   UNL     1      -1.393  10.431  19.274  0.00  0.00    +0.000 C 
ATOM      2  N   UNL     1      -0.952   9.394  20.225  0.00  0.00    +0.000 NA
ATOM      3  C   UNL     1       0.457   9.240  20.607  0.00  0.00    +0.000 C 
ATOM      4  C   UNL     1       0.900  10.284  21.644  0.00  0.00    +0.000 C 
ATOM      5  C   UNL     1       0.347  11.699  21.529  0.00  0.00    +0.000 C 
ATOM      6  N   UNL     1       0.065  12.208  20.204  0.00  0.00    +0.000 N 
ATOM      7  C   UNL     1      -1.163  11.902  19.655  0.00  0.00    +0.000 C 
ATOM      8  O   UNL     1      -1.897  12.788  19.209  0.00  0.00    +0.000 OA
ATOM      9  H   UNL     1      -1.295   8.484  19.910  0.00  0.00    +0.000 HD
ENDROOT
BRANCH   1  10
ATOM     10  C   UNL     1      -0.908  10.269  17.820  0.00  0.00    +0.000 C 
BRANCH  10  11
ATOM     11  C   UNL     1      -1.994   9.931  16.807  0.00  0.00    +0.000 C 
BRANCH  11  12
ATOM     12  C   UNL     1      -3.362   9.961  17.460  0.00  0.00    +0.000 C 
BRANCH  12  16
ATOM     13  N   UNL     1      -5.571  12.707  17.109  0.00  0.00    +0.000 NA
ATOM     14  C   UNL     1      -5.250  11.505  17.407  0.00  0.00    +0.000 C 
ATOM     15  N   UNL     1      -5.866  10.780  18.360  0.00  0.00    +0.000 N 
ATOM     16  N   UNL     1      -4.230  10.890  16.774  0.00  0.00    +0.000 N 
ATOM     17  H   UNL     1      -6.329  13.008  17.721  0.00  0.00    +0.000 HD
ATOM     18  H   UNL     1      -6.765  11.129  18.658  0.00  0.00    +0.000 HD
ATOM     19  H   UNL     1      -5.904   9.789  18.155  0.00  0.00    +0.000 HD
ATOM     20  H   UNL     1      -3.747  11.561  16.182  0.00  0.00    +0.000 HD
ENDBRANCH  12  16
ENDBRANCH  11  12
ENDBRANCH  10  11
ENDBRANCH   1  10
BRANCH   3  21
ATOM     21  C   UNL     1       1.571   8.993  19.538  0.00  0.00    +0.000 C 
BRANCH  21  22
ATOM     22  N   UNL     1       2.074   7.628  19.438  0.00  0.00    +0.000 N 
ATOM     23  C   UNL     1       2.882   7.204  18.409  0.00  0.00    +0.000 C 
ATOM     24  O   UNL     1       3.206   7.943  17.484  0.00  0.00    +0.000 OA
ATOM     25  H   UNL     1       1.858   6.974  20.175  0.00  0.00    +0.000 HD
BRANCH  23  26
ATOM     26  C   UNL     1       3.407   5.845  18.526  0.00  0.00    +0.000 A 
ATOM     27  C   UNL     1       4.768   5.586  18.563  0.00  0.00    +0.000 A 
ATOM     28  N   UNL     1       4.966   4.243  18.712  0.00  0.00    +0.000 N 
ATOM     29  C   UNL     1       3.758   3.589  18.729  0.00  0.00    +0.000 A 
ATOM     30  C   UNL     1       3.496   2.216  18.819  0.00  0.00    +0.000 A 
ATOM     31  C   UNL     1       2.165   1.803  18.779  0.00  0.00    +0.000 A 
ATOM     32  C   UNL     1       1.139   2.733  18.660  0.00  0.00    +0.000 A 
ATOM     33  C   UNL     1       1.417   4.109  18.579  0.00  0.00    +0.000 A 
ATOM     34  C   UNL     1       2.755   4.559  18.617  0.00  0.00    +0.000 A 
ATOM     35  H   UNL     1       5.867   3.787  18.776  0.00  0.00    +0.000 HD
ENDBRANCH  23  26
ENDBRANCH  21  22
ENDBRANCH   3  21
BRANCH   6  36
ATOM     36  C   UNL     1       1.049  12.842  19.329  0.00  0.00    +0.000 C 
BRANCH  36  37
ATOM     37  C   UNL     1       2.221  13.612  19.982  0.00  0.00    +0.000 C 
ATOM     38  C   UNL     1       3.351  13.969  19.011  0.00  0.00    +0.000 C 
ATOM     39  C   UNL     1       2.852  14.831  17.854  0.00  0.00    +0.000 C 
ATOM     40  C   UNL     1       2.108  16.086  18.318  0.00  0.00    +0.000 C 
ATOM     41  C   UNL     1       1.161  15.886  19.502  0.00  0.00    +0.000 C 
ATOM     42  C   UNL     1       1.716  14.947  20.576  0.00  0.00    +0.000 C 
ENDBRANCH  36  37
ENDBRANCH   6  36
TORSDOF 9
ENDMDL
MODEL 8
REMARK VINA RESULT:      -7.7      2.464      4.745
REMARK  Name = 
REMARK  9 active torsions:
REMARK  status: ('A' for Active; 'I' for Inactive)
REMARK    1  A    between atoms: N_4  and  C_5
REMARK    2  A    between atoms: C_5  and  C_6
REMARK    3  A    between atoms: C_6  and  C_7
REMARK    4  A    between atoms: C_7  and  C_8
REMARK    5  A    between atoms: C_10  and  C_11
REMARK    6  A    between atoms: C_11  and  N_12
REMARK    7  A    between atoms: C_13  and  C_15
REMARK    8  A    between atoms: N_26  and  C_27
REMARK    9  A    between atoms: C_27  and  C_28
REMARK                            x       y       z     vdW  Elec       q    Type
REMARK                         _______ _______ _______ _____ _____    ______ ____
ROOT
ATOM      1  C   UNL     1      -1.274  10.209  19.872  0.00  0.00    +0.000 C 
ATOM      2  N   UNL     1      -1.107   9.087  20.814  0.00  0.00    +0.000 NA
ATOM      3  C   UNL     1       0.105   8.932  21.627  0.00  0.00    +0.000 C 
ATOM      4  C   UNL     1       0.118   9.869  22.846  0.00  0.00    +0.000 C 
ATOM      5  C   UNL     1      -0.454  11.272  22.686  0.00  0.00    +0.000 C 
ATOM      6  N   UNL     1      -0.315  11.914  21.396  0.00  0.00    +0.000 N 
ATOM      7  C   UNL     1      -1.273  11.636  20.444  0.00  0.00    +0.000 C 
ATOM      8  O   UNL     1      -1.873  12.545  19.863  0.00  0.00    +0.000 OA
ATOM      9  H   UNL     1      -1.269   8.209  20.319  0.00  0.00    +0.000 HD
ENDROOT
BRANCH   1  10
ATOM     10  C   UNL     1      -0.329  10.220  18.654  0.00  0.00    +0.000 C 
BRANCH  10  11
ATOM     11  C   UNL     1      -0.978   9.856  17.325  0.00  0.00    +0.000 C 
BRANCH  11  12
ATOM     12  C   UNL     1      -2.489   9.859  17.450  0.00  0.00    +0.000 C 
BRANCH  12  16
ATOM     13  N   UNL     1      -4.938  12.344  16.841  0.00  0.00    +0.000 NA
ATOM     14  C   UNL     1      -4.119  11.416  16.516  0.00  0.00    +0.000 C 
ATOM     15  N   UNL     1      -4.294  10.597  15.463  0.00  0.00    +0.000 N 
ATOM     16  N   UNL     1      -3.011  11.191  17.252  0.00  0.00    +0.000 N 
ATOM     17  H   UNL     1      -5.727  12.328  16.194  0.00  0.00    +0.000 HD
ATOM     18  H   UNL     1      -4.968  10.907  14.779  0.00  0.00    +0.000 HD
ATOM     19  H   UNL     1      -3.427  10.310  15.023  0.00  0.00    +0.000 HD
ATOM     20  H   UNL     1      -3.044  11.761  18.095  0.00  0.00    +0.000 HD
ENDBRANCH  12  16
ENDBRANCH  11  12
ENDBRANCH  10  11
ENDBRANCH   1  10
BRANCH   3  21
ATOM     21  C   UNL     1       1.523   8.833  20.973  0.00  0.00    +0.000 C 
BRANCH  21  22
ATOM     22  N   UNL     1       1.863   7.551  20.368  0.00  0.00    +0.000 N 
ATOM     23  C   UNL     1       2.337   7.435  19.083  0.00  0.00    +0.000 C 
ATOM     24  O   UNL     1       2.472   8.406  18.345  0.00  0.00    +0.000 OA
ATOM     25  H   UNL     1       1.791   6.714  20.927  0.00  0.00    +0.000 HD
BRANCH  23  26
ATOM     26  C   UNL     1       2.756   6.096  18.673  0.00  0.00    +0.000 A 
ATOM     27  C   UNL     1       3.806   5.895  17.792  0.00  0.00    +0.000 A 
ATOM     28  N   UNL     1       3.998   4.553  17.619  0.00  0.00    +0.000 N 
ATOM     29  C   UNL     1       3.061   3.849  18.337  0.00  0.00    +0.000 A 
ATOM     30  C   UNL     1       2.863   2.465  18.414  0.00  0.00    +0.000 A 
ATOM     31  C   UNL     1       1.805   2.001  19.195  0.00  0.00    +0.000 A 
ATOM     32  C   UNL     1       0.985   2.893  19.877  0.00  0.00    +0.000 A 
ATOM     33  C   UNL     1       1.201   4.280  19.796  0.00  0.00    +0.000 A 
ATOM     34  C   UNL     1       2.265   4.781  19.013  0.00  0.00    +0.000 A 
ATOM     35  H   UNL     1       4.706   4.133  17.032  0.00  0.00    +0.000 HD
ENDBRANCH  23  26
ENDBRANCH  21  22
ENDBRANCH   3  21
BRANCH   6  36
ATOM     36  C   UNL     1       0.860  12.666  20.963  0.00  0.00    +0.000 C 
BRANCH  36  37
ATOM     37  C   UNL     1       1.058  14.098  21.514  0.00  0.00    +0.000 C 
ATOM     38  C   UNL     1       2.503  14.600  21.442  0.00  0.00    +0.000 C 
ATOM     39  C   UNL     1       3.028  14.608  20.008  0.00  0.00    +0.000 C 
ATOM     40  C   UNL     1       2.127  15.382  19.043  0.00  0.00    +0.000 C 
ATOM     41  C   UNL     1       0.625  15.172  19.238  0.00  0.00    +0.000 C 
ATOM     42  C   UNL     1       0.203  15.103  20.707  0.00  0.00    +0.000 C 
ENDBRANCH  36  37
ENDBRANCH   6  36
TORSDOF 9
ENDMDL
MODEL 9
REMARK VINA RESULT:      -7.6      2.504      4.524
REMARK  Name = 
REMARK  9 active torsions:
REMARK  status: ('A' for Active; 'I' for Inactive)
REMARK    1  A    between atoms: N_4  and  C_5
REMARK    2  A    between atoms: C_5  and  C_6
REMARK    3  A    between atoms: C_6  and  C_7
REMARK    4  A    between atoms: C_7  and  C_8
REMARK    5  A    between atoms: C_10  and  C_11
REMARK    6  A    between atoms: C_11  and  N_12
REMARK    7  A    between atoms: C_13  and  C_15
REMARK    8  A    between atoms: N_26  and  C_27
REMARK    9  A    between atoms: C_27  and  C_28
REMARK                            x       y       z     vdW  Elec       q    Type
REMARK                         _______ _______ _______ _____ _____    ______ ____
ROOT
ATOM      1  C   UNL     1      -1.719  10.982  19.172  0.00  0.00    +0.000 C 
ATOM      2  N   UNL     1      -1.018   9.816  19.742  0.00  0.00    +0.000 NA
ATOM      3  C   UNL     1       0.443   9.780  19.881  0.00  0.00    +0.000 C 
ATOM      4  C   UNL     1       0.935  10.585  21.096  0.00  0.00    +0.000 C 
ATOM      5  C   UNL     1       0.221  11.885  21.441  0.00  0.00    +0.000 C 
ATOM      6  N   UNL     1      -0.328  12.664  20.350  0.00  0.00    +0.000 N 
ATOM      7  C   UNL     1      -1.589  12.328  19.904  0.00  0.00    +0.000 C 
ATOM      8  O   UNL     1      -2.478  13.179  19.813  0.00  0.00    +0.000 OA
ATOM      9  H   UNL     1      -1.307   8.975  19.240  0.00  0.00    +0.000 HD
ENDROOT
BRANCH   1  10
ATOM     10  C   UNL     1      -1.464  11.264  17.679  0.00  0.00    +0.000 C 
BRANCH  10  11
ATOM     11  C   UNL     1      -2.177  10.328  16.711  0.00  0.00    +0.000 C 
BRANCH  11  12
ATOM     12  C   UNL     1      -3.679  10.503  16.807  0.00  0.00    +0.000 C 
BRANCH  12  16
ATOM     13  N   UNL     1      -5.263  13.136  18.570  0.00  0.00    +0.000 NA
ATOM     14  C   UNL     1      -5.191  12.194  17.706  0.00  0.00    +0.000 C 
ATOM     15  N   UNL     1      -6.246  11.456  17.312  0.00  0.00    +0.000 N 
ATOM     16  N   UNL     1      -4.009  11.869  17.143  0.00  0.00    +0.000 N 
ATOM     17  H   UNL     1      -6.224  13.200  18.908  0.00  0.00    +0.000 HD
ATOM     18  H   UNL     1      -7.153  11.843  17.531  0.00  0.00    +0.000 HD
ATOM     19  H   UNL     1      -6.195  11.160  16.344  0.00  0.00    +0.000 HD
ATOM     20  H   UNL     1      -3.262  12.382  17.607  0.00  0.00    +0.000 HD
ENDBRANCH  12  16
ENDBRANCH  11  12
ENDBRANCH  10  11
ENDBRANCH   1  10
BRANCH   3  21
ATOM     21  C   UNL     1       1.387   9.977  18.650  0.00  0.00    +0.000 C 
BRANCH  21  22
ATOM     22  N   UNL     1       2.057   8.780  18.157  0.00  0.00    +0.000 N 
ATOM     23  C   UNL     1       2.367   7.712  18.966  0.00  0.00    +0.000 C 
ATOM     24  O   UNL     1       2.130   7.712  20.170  0.00  0.00    +0.000 OA
ATOM     25  H   UNL     1       2.265   8.708  17.172  0.00  0.00    +0.000 HD
BRANCH  23  26
ATOM     26  C   UNL     1       2.916   6.537  18.292  0.00  0.00    +0.000 A 
ATOM     27  C   UNL     1       4.025   6.619  17.464  0.00  0.00    +0.000 A 
ATOM     28  N   UNL     1       4.337   5.371  17.004  0.00  0.00    +0.000 N 
ATOM     29  C   UNL     1       3.425   4.457  17.474  0.00  0.00    +0.000 A 
ATOM     30  C   UNL     1       3.337   3.082  17.218  0.00  0.00    +0.000 A 
ATOM     31  C   UNL     1       2.282   2.378  17.796  0.00  0.00    +0.000 A 
ATOM     32  C   UNL     1       1.355   3.029  18.603  0.00  0.00    +0.000 A 
ATOM     33  C   UNL     1       1.460   4.407  18.857  0.00  0.00    +0.000 A 
ATOM     34  C   UNL     1       2.519   5.148  18.286  0.00  0.00    +0.000 A 
ATOM     35  H   UNL     1       5.107   5.148  16.389  0.00  0.00    +0.000 HD
ENDBRANCH  23  26
ENDBRANCH  21  22
ENDBRANCH   3  21
BRANCH   6  36
ATOM     36  C   UNL     1       0.424  13.634  19.560  0.00  0.00    +0.000 C 
BRANCH  36  37
ATOM     37  C   UNL     1       1.572  14.409  20.250  0.00  0.00    +0.000 C 
ATOM     38  C   UNL     1       2.865  14.468  19.431  0.00  0.00    +0.000 C 
ATOM     39  C   UNL     1       2.646  15.131  18.073  0.00  0.00    +0.000 C 
ATOM     40  C   UNL     1       1.997  16.513  18.177  0.00  0.00    +0.000 C 
ATOM     41  C   UNL     1       0.871  16.632  19.205  0.00  0.00    +0.000 C 
ATOM     42  C   UNL     1       1.148  15.874  20.506  0.00  0.00    +0.000 C 
ENDBRANCH  36  37
ENDBRANCH   6  36
TORSDOF 9
ENDMDL
