MODEL 1
REMARK VINA RESULT:      -6.7      0.000      0.000
REMARK  Name = 
REMARK  15 active torsions:
REMARK  status: ('A' for Active; 'I' for Inactive)
REMARK    1  A    between atoms: C_1  and  N_2
REMARK    2  A    between atoms: N_2  and  C_3
REMARK    3  A    between atoms: C_4  and  O_5
REMARK    4  A    between atoms: C_6  and  O_7
REMARK    5  A    between atoms: O_7  and  C_8
REMARK    6  A    between atoms: C_9  and  O_10
REMARK    7  A    between atoms: C_11  and  O_12
REMARK    8  A    between atoms: O_12  and  C_13
REMARK    9  A    between atoms: C_15  and  C_16
REMARK   10  A    between atoms: C_16  and  N_17
REMARK   11  A    between atoms: C_20  and  N_21
REMARK   12  A    between atoms: C_22  and  N_23
REMARK   13  A    between atoms: C_25  and  N_26
REMARK   14  A    between atoms: C_29  and  C_30
REMARK   15  A    between atoms: C_29  and  O_31
REMARK                            x       y       z     vdW  Elec       q    Type
REMARK                         _______ _______ _______ _____ _____    ______ ____
ROOT
ATOM      1  C   UNL     1       1.678   8.828  19.704  0.00  0.00    +0.000 C 
ATOM      2  C   UNL     1       2.124   8.042  18.431  0.00  0.00    +0.000 C 
ATOM      3  C   UNL     1       2.914   6.725  18.681  0.00  0.00    +0.000 C 
ATOM      4  C   UNL     1       2.093   5.912  19.735  0.00  0.00    +0.000 C 
ATOM      5  C   UNL     1       2.109   6.684  21.052  0.00  0.00    +0.000 C 
ATOM      6  C   UNL     1       1.265   7.947  20.914  0.00  0.00    +0.000 C 
ENDROOT
BRANCH   4   7
ATOM      7  N   UNL     1       2.555   4.539  19.972  0.00  0.00    +0.000 NA
ATOM      8  H   UNL     1       1.770   3.897  20.070  0.00  0.00    +0.000 HD
ATOM      9  H   UNL     1       3.122   4.473  20.809  0.00  0.00    +0.000 HD
ENDBRANCH   4   7
BRANCH   6  10
ATOM     10  N   UNL     1       1.346   8.691  22.186  0.00  0.00    +0.000 NA
ATOM     11  H   UNL     1       0.972   8.144  22.960  0.00  0.00    +0.000 HD
ATOM     12  H   UNL     1       0.808   9.556  22.140  0.00  0.00    +0.000 HD
ENDBRANCH   6  10
BRANCH   2  13
ATOM     13  O   UNL     1       2.894   8.962  17.622  0.00  0.00    +0.000 OA
ATOM     14  H   UNL     1       3.280   9.634  18.211  0.00  0.00    +0.000 HD
ENDBRANCH   2  13
BRANCH   1  15
ATOM     15  O   UNL     1       0.594   9.676  19.254  0.00  0.00    +0.000 OA
BRANCH  15  18
ATOM     16  C   UNL     1      -0.910  11.779  20.679  0.00  0.00    +0.000 C 
ATOM     17  C   UNL     1       0.600  11.862  20.355  0.00  0.00    +0.000 C 
ATOM     18  C   UNL     1       0.892  11.061  19.063  0.00  0.00    +0.000 C 
ATOM     19  O   UNL     1       0.137  11.626  17.984  0.00  0.00    +0.000 OA
ATOM     20  C   UNL     1      -1.276  11.508  18.183  0.00  0.00    +0.000 C 
ATOM     21  C   UNL     1      -1.735  12.265  19.445  0.00  0.00    +0.000 C 
ATOM     22  C   UNL     1      -3.238  12.065  19.632  0.00  0.00    +0.000 C 
BRANCH  16  24
ATOM     23  C   UNL     1      -1.655  11.435  23.031  0.00  0.00    +0.000 C 
ATOM     24  N   UNL     1      -1.196  12.376  22.018  0.00  0.00    +0.000 NA
ATOM     25  H   UNL     1      -0.338  12.811  22.364  0.00  0.00    +0.000 HD
ENDBRANCH  16  24
BRANCH  17  26
ATOM     26  O   UNL     1       1.374  11.409  21.475  0.00  0.00    +0.000 OA
ATOM     27  H   UNL     1       1.924  12.185  21.711  0.00  0.00    +0.000 HD
ENDBRANCH  17  26
BRANCH  21  28
ATOM     28  O   UNL     1      -1.512  13.668  19.204  0.00  0.00    +0.000 OA
ATOM     29  H   UNL     1      -0.690  13.915  19.666  0.00  0.00    +0.000 HD
ENDBRANCH  21  28
ENDBRANCH  15  18
ENDBRANCH   1  15
BRANCH   3  30
ATOM     30  O   UNL     1       3.085   5.919  17.498  0.00  0.00    +0.000 OA
BRANCH  30  31
ATOM     31  C   UNL     1       4.430   5.677  17.058  0.00  0.00    +0.000 C 
ATOM     32  O   UNL     1       5.437   6.170  17.977  0.00  0.00    +0.000 OA
ATOM     33  C   UNL     1       6.732   5.697  17.759  0.00  0.00    +0.000 C 
ATOM     34  C   UNL     1       7.047   4.779  16.826  0.00  0.00    +0.000 C 
ATOM     35  C   UNL     1       5.987   4.046  16.057  0.00  0.00    +0.000 C 
ATOM     36  C   UNL     1       4.640   4.149  16.805  0.00  0.00    +0.000 C 
BRANCH  36  37
ATOM     37  N   UNL     1       4.668   3.327  18.046  0.00  0.00    +0.000 NA
ATOM     38  H   UNL     1       4.152   3.840  18.767  0.00  0.00    +0.000 HD
ATOM     39  H   UNL     1       5.620   3.270  18.399  0.00  0.00    +0.000 HD
ENDBRANCH  36  37
BRANCH  33  40
ATOM     40  C   UNL     1       7.764   6.200  18.742  0.00  0.00    +0.000 C 
BRANCH  40  41
ATOM     41  N   UNL     1       7.608   5.484  20.003  0.00  0.00    +0.000 NA
ATOM     42  H   UNL     1       6.668   5.087  20.023  0.00  0.00    +0.000 HD
ATOM     43  H   UNL     1       7.663   6.141  20.775  0.00  0.00    +0.000 HD
ENDBRANCH  40  41
ENDBRANCH  33  40
ENDBRANCH  30  31
ENDBRANCH   3  30
TORSDOF 13
ENDMDL
MODEL 2
REMARK VINA RESULT:      -6.6      2.462      8.785
REMARK  Name = 
REMARK  15 active torsions:
REMARK  status: ('A' for Active; 'I' for Inactive)
REMARK    1  A    between atoms: C_1  and  N_2
REMARK    2  A    between atoms: N_2  and  C_3
REMARK    3  A    between atoms: C_4  and  O_5
REMARK    4  A    between atoms: C_6  and  O_7
REMARK    5  A    between atoms: O_7  and  C_8
REMARK    6  A    between atoms: C_9  and  O_10
REMARK    7  A    between atoms: C_11  and  O_12
REMARK    8  A    between atoms: O_12  and  C_13
REMARK    9  A    between atoms: C_15  and  C_16
REMARK   10  A    between atoms: C_16  and  N_17
REMARK   11  A    between atoms: C_20  and  N_21
REMARK   12  A    between atoms: C_22  and  N_23
REMARK   13  A    between atoms: C_25  and  N_26
REMARK   14  A    between atoms: C_29  and  C_30
REMARK   15  A    between atoms: C_29  and  O_31
REMARK                            x       y       z     vdW  Elec       q    Type
REMARK                         _______ _______ _______ _____ _____    ______ ____
ROOT
ATOM      1  C   UNL     1       2.391   7.592  19.302  0.00  0.00    +0.000 C 
ATOM      2  C   UNL     1       1.306   8.125  20.290  0.00  0.00    +0.000 C 
ATOM      3  C   UNL     1       0.884   9.612  20.104  0.00  0.00    +0.000 C 
ATOM      4  C   UNL     1       0.575   9.796  18.583  0.00  0.00    +0.000 C 
ATOM      5  C   UNL     1       1.877   9.615  17.807  0.00  0.00    +0.000 C 
ATOM      6  C   UNL     1       2.303   8.151  17.857  0.00  0.00    +0.000 C 
ENDROOT
BRANCH   4   7
ATOM      7  N   UNL     1      -0.035  11.079  18.214  0.00  0.00    +0.000 NA
ATOM      8  H   UNL     1       0.580  11.620  17.609  0.00  0.00    +0.000 HD
ATOM      9  H   UNL     1      -0.249  11.641  19.030  0.00  0.00    +0.000 HD
ENDBRANCH   4   7
BRANCH   6  10
ATOM     10  N   UNL     1       3.588   8.024  17.142  0.00  0.00    +0.000 NA
ATOM     11  H   UNL     1       4.363   8.366  17.708  0.00  0.00    +0.000 HD
ATOM     12  H   UNL     1       3.582   8.565  16.278  0.00  0.00    +0.000 HD
ENDBRANCH   6  10
BRANCH   2  13
ATOM     13  O   UNL     1       1.807   7.892  21.627  0.00  0.00    +0.000 OA
ATOM     14  H   UNL     1       2.566   7.285  21.564  0.00  0.00    +0.000 HD
ENDBRANCH   2  13
BRANCH   1  15
ATOM     15  O   UNL     1       2.245   6.151  19.338  0.00  0.00    +0.000 OA
BRANCH  15  18
ATOM     16  C   UNL     1       3.944   3.996  18.248  0.00  0.00    +0.000 C 
ATOM     17  C   UNL     1       4.391   4.974  19.359  0.00  0.00    +0.000 C 
ATOM     18  C   UNL     1       3.154   5.428  20.172  0.00  0.00    +0.000 C 
ATOM     19  O   UNL     1       2.538   4.278  20.763  0.00  0.00    +0.000 OA
ATOM     20  C   UNL     1       2.025   3.367  19.785  0.00  0.00    +0.000 C 
ATOM     21  C   UNL     1       3.147   2.813  18.886  0.00  0.00    +0.000 C 
ATOM     22  C   UNL     1       2.539   1.886  17.835  0.00  0.00    +0.000 C 
BRANCH  16  24
ATOM     23  C   UNL     1       4.952   4.236  15.983  0.00  0.00    +0.000 C 
ATOM     24  N   UNL     1       5.079   3.688  17.328  0.00  0.00    +0.000 NA
ATOM     25  H   UNL     1       5.935   4.067  17.739  0.00  0.00    +0.000 HD
ENDBRANCH  16  24
BRANCH  17  26
ATOM     26  O   UNL     1       5.116   6.073  18.792  0.00  0.00    +0.000 OA
ATOM     27  H   UNL     1       6.053   5.868  18.991  0.00  0.00    +0.000 HD
ENDBRANCH  17  26
BRANCH  21  28
ATOM     28  O   UNL     1       4.006   2.012  19.721  0.00  0.00    +0.000 OA
ATOM     29  H   UNL     1       4.689   2.604  20.088  0.00  0.00    +0.000 HD
ENDBRANCH  21  28
ENDBRANCH  15  18
ENDBRANCH   1  15
BRANCH   3  30
ATOM     30  O   UNL     1      -0.282   9.981  20.867  0.00  0.00    +0.000 OA
BRANCH  30  31
ATOM     31  C   UNL     1      -0.221  11.211  21.606  0.00  0.00    +0.000 C 
ATOM     32  O   UNL     1       0.846  12.093  21.174  0.00  0.00    +0.000 OA
ATOM     33  C   UNL     1       0.762  13.406  21.636  0.00  0.00    +0.000 C 
ATOM     34  C   UNL     1      -0.267  13.882  22.361  0.00  0.00    +0.000 C 
ATOM     35  C   UNL     1      -1.513  13.073  22.579  0.00  0.00    +0.000 C 
ATOM     36  C   UNL     1      -1.595  11.952  21.520  0.00  0.00    +0.000 C 
BRANCH  36  37
ATOM     37  N   UNL     1      -1.893  12.522  20.178  0.00  0.00    +0.000 NA
ATOM     38  H   UNL     1      -2.344  13.430  20.322  0.00  0.00    +0.000 HD
ATOM     39  H   UNL     1      -2.597  11.954  19.713  0.00  0.00    +0.000 HD
ENDBRANCH  36  37
BRANCH  33  40
ATOM     40  C   UNL     1       1.868  14.319  21.155  0.00  0.00    +0.000 C 
BRANCH  40  41
ATOM     41  N   UNL     1       2.539  14.902  22.312  0.00  0.00    +0.000 NA
ATOM     42  H   UNL     1       2.644  15.902  22.141  0.00  0.00    +0.000 HD
ATOM     43  H   UNL     1       3.477  14.519  22.387  0.00  0.00    +0.000 HD
ENDBRANCH  40  41
ENDBRANCH  33  40
ENDBRANCH  30  31
ENDBRANCH   3  30
TORSDOF 13
ENDMDL
MODEL 3
REMARK VINA RESULT:      -6.5      1.920      8.444
REMARK  Name = 
REMARK  15 active torsions:
REMARK  status: ('A' for Active; 'I' for Inactive)
REMARK    1  A    between atoms: C_1  and  N_2
REMARK    2  A    between atoms: N_2  and  C_3
REMARK    3  A    between atoms: C_4  and  O_5
REMARK    4  A    between atoms: C_6  and  O_7
REMARK    5  A    between atoms: O_7  and  C_8
REMARK    6  A    between atoms: C_9  and  O_10
REMARK    7  A    between atoms: C_11  and  O_12
REMARK    8  A    between atoms: O_12  and  C_13
REMARK    9  A    between atoms: C_15  and  C_16
REMARK   10  A    between atoms: C_16  and  N_17
REMARK   11  A    between atoms: C_20  and  N_21
REMARK   12  A    between atoms: C_22  and  N_23
REMARK   13  A    between atoms: C_25  and  N_26
REMARK   14  A    between atoms: C_29  and  C_30
REMARK   15  A    between atoms: C_29  and  O_31
REMARK                            x       y       z     vdW  Elec       q    Type
REMARK                         _______ _______ _______ _____ _____    ______ ____
ROOT
ATOM      1  C   UNL     1       2.546   6.401  19.201  0.00  0.00    +0.000 C 
ATOM      2  C   UNL     1       2.477   7.947  18.989  0.00  0.00    +0.000 C 
ATOM      3  C   UNL     1       1.214   8.659  19.555  0.00  0.00    +0.000 C 
ATOM      4  C   UNL     1       1.050   8.162  21.029  0.00  0.00    +0.000 C 
ATOM      5  C   UNL     1       0.728   6.670  20.996  0.00  0.00    +0.000 C 
ATOM      6  C   UNL     1       1.960   5.890  20.545  0.00  0.00    +0.000 C 
ENDROOT
BRANCH   4   7
ATOM      7  N   UNL     1       0.031   8.860  21.820  0.00  0.00    +0.000 NA
ATOM      8  H   UNL     1       0.415   9.198  22.702  0.00  0.00    +0.000 HD
ATOM      9  H   UNL     1      -0.758   8.260  22.030  0.00  0.00    +0.000 HD
ENDBRANCH   4   7
BRANCH   6  10
ATOM     10  N   UNL     1       1.597   4.462  20.476  0.00  0.00    +0.000 NA
ATOM     11  H   UNL     1       0.640   4.337  20.149  0.00  0.00    +0.000 HD
ATOM     12  H   UNL     1       1.663   4.022  21.394  0.00  0.00    +0.000 HD
ENDBRANCH   6  10
BRANCH   2  13
ATOM     13  O   UNL     1       2.609   8.179  17.568  0.00  0.00    +0.000 OA
ATOM     14  H   UNL     1       2.096   7.497  17.100  0.00  0.00    +0.000 HD
ENDBRANCH   2  13
BRANCH   1  15
ATOM     15  O   UNL     1       3.950   6.072  19.060  0.00  0.00    +0.000 OA
BRANCH  15  18
ATOM     16  C   UNL     1       6.784   5.556  18.416  0.00  0.00    +0.000 C 
ATOM     17  C   UNL     1       5.643   4.541  18.178  0.00  0.00    +0.000 C 
ATOM     18  C   UNL     1       4.322   5.305  17.913  0.00  0.00    +0.000 C 
ATOM     19  O   UNL     1       4.485   6.126  16.751  0.00  0.00    +0.000 OA
ATOM     20  C   UNL     1       5.474   7.145  16.933  0.00  0.00    +0.000 C 
ATOM     21  C   UNL     1       6.866   6.541  17.206  0.00  0.00    +0.000 C 
ATOM     22  C   UNL     1       7.868   7.670  17.439  0.00  0.00    +0.000 C 
BRANCH  16  24
ATOM     23  C   UNL     1       8.526   5.259  20.172  0.00  0.00    +0.000 C 
ATOM     24  N   UNL     1       8.026   4.858  18.863  0.00  0.00    +0.000 NA
ATOM     25  H   UNL     1       7.834   3.854  18.898  0.00  0.00    +0.000 HD
ENDBRANCH  16  24
BRANCH  17  26
ATOM     26  O   UNL     1       5.545   3.633  19.284  0.00  0.00    +0.000 OA
ATOM     27  H   UNL     1       6.468   3.336  19.429  0.00  0.00    +0.000 HD
ENDBRANCH  17  26
BRANCH  21  28
ATOM     28  O   UNL     1       7.269   5.846  16.010  0.00  0.00    +0.000 OA
ATOM     29  H   UNL     1       8.239   5.926  15.940  0.00  0.00    +0.000 HD
ENDBRANCH  21  28
ENDBRANCH  15  18
ENDBRANCH   1  15
BRANCH   3  30
ATOM     30  O   UNL     1       1.312  10.097  19.554  0.00  0.00    +0.000 OA
BRANCH  30  31
ATOM     31  C   UNL     1       0.369  10.818  18.747  0.00  0.00    +0.000 C 
ATOM     32  O   UNL     1      -0.670   9.980  18.182  0.00  0.00    +0.000 OA
ATOM     33  C   UNL     1      -1.769  10.659  17.655  0.00  0.00    +0.000 C 
ATOM     34  C   UNL     1      -1.930  11.994  17.727  0.00  0.00    +0.000 C 
ATOM     35  C   UNL     1      -1.015  12.851  18.552  0.00  0.00    +0.000 C 
ATOM     36  C   UNL     1      -0.272  11.974  19.582  0.00  0.00    +0.000 C 
BRANCH  36  37
ATOM     37  N   UNL     1      -1.207  11.509  20.642  0.00  0.00    +0.000 NA
ATOM     38  H   UNL     1      -1.238  10.486  20.600  0.00  0.00    +0.000 HD
ATOM     39  H   UNL     1      -2.154  11.806  20.420  0.00  0.00    +0.000 HD
ENDBRANCH  36  37
BRANCH  33  40
ATOM     40  C   UNL     1      -2.855   9.769  17.094  0.00  0.00    +0.000 C 
BRANCH  40  41
ATOM     41  N   UNL     1      -2.916   9.949  15.648  0.00  0.00    +0.000 NA
ATOM     42  H   UNL     1      -3.900   9.969  15.376  0.00  0.00    +0.000 HD
ATOM     43  H   UNL     1      -2.503   9.143  15.189  0.00  0.00    +0.000 HD
ENDBRANCH  40  41
ENDBRANCH  33  40
ENDBRANCH  30  31
ENDBRANCH   3  30
TORSDOF 13
ENDMDL
MODEL 4
REMARK VINA RESULT:      -6.4      1.344      2.189
REMARK  Name = 
REMARK  15 active torsions:
REMARK  status: ('A' for Active; 'I' for Inactive)
REMARK    1  A    between atoms: C_1  and  N_2
REMARK    2  A    between atoms: N_2  and  C_3
REMARK    3  A    between atoms: C_4  and  O_5
REMARK    4  A    between atoms: C_6  and  O_7
REMARK    5  A    between atoms: O_7  and  C_8
REMARK    6  A    between atoms: C_9  and  O_10
REMARK    7  A    between atoms: C_11  and  O_12
REMARK    8  A    between atoms: O_12  and  C_13
REMARK    9  A    between atoms: C_15  and  C_16
REMARK   10  A    between atoms: C_16  and  N_17
REMARK   11  A    between atoms: C_20  and  N_21
REMARK   12  A    between atoms: C_22  and  N_23
REMARK   13  A    between atoms: C_25  and  N_26
REMARK   14  A    between atoms: C_29  and  C_30
REMARK   15  A    between atoms: C_29  and  O_31
REMARK                            x       y       z     vdW  Elec       q    Type
REMARK                         _______ _______ _______ _____ _____    ______ ____
ROOT
ATOM      1  C   UNL     1       1.712   8.779  19.483  0.00  0.00    +0.000 C 
ATOM      2  C   UNL     1       2.210   7.947  18.259  0.00  0.00    +0.000 C 
ATOM      3  C   UNL     1       3.009   6.654  18.591  0.00  0.00    +0.000 C 
ATOM      4  C   UNL     1       2.165   5.873  19.651  0.00  0.00    +0.000 C 
ATOM      5  C   UNL     1       2.128   6.701  20.934  0.00  0.00    +0.000 C 
ATOM      6  C   UNL     1       1.271   7.944  20.715  0.00  0.00    +0.000 C 
ENDROOT
BRANCH   4   7
ATOM      7  N   UNL     1       2.638   4.519  19.961  0.00  0.00    +0.000 NA
ATOM      8  H   UNL     1       3.573   4.537  20.364  0.00  0.00    +0.000 HD
ATOM      9  H   UNL     1       2.663   3.932  19.135  0.00  0.00    +0.000 HD
ENDBRANCH   4   7
BRANCH   6  10
ATOM     10  N   UNL     1       1.300   8.742  21.957  0.00  0.00    +0.000 NA
ATOM     11  H   UNL     1       0.364   8.862  22.342  0.00  0.00    +0.000 HD
ATOM     12  H   UNL     1       1.678   9.673  21.785  0.00  0.00    +0.000 HD
ENDBRANCH   6  10
BRANCH   2  13
ATOM     13  O   UNL     1       2.993   8.844  17.437  0.00  0.00    +0.000 OA
ATOM     14  H   UNL     1       2.871   8.587  16.507  0.00  0.00    +0.000 HD
ENDBRANCH   2  13
BRANCH   1  15
ATOM     15  O   UNL     1       0.631   9.591  18.962  0.00  0.00    +0.000 OA
BRANCH  15  18
ATOM     16  C   UNL     1      -1.333  11.679  18.257  0.00  0.00    +0.000 C 
ATOM     17  C   UNL     1      -1.650  10.458  19.152  0.00  0.00    +0.000 C 
ATOM     18  C   UNL     1      -0.364  10.019  19.895  0.00  0.00    +0.000 C 
ATOM     19  O   UNL     1       0.097  11.105  20.708  0.00  0.00    +0.000 OA
ATOM     20  C   UNL     1       0.487  12.243  19.933  0.00  0.00    +0.000 C 
ATOM     21  C   UNL     1      -0.698  12.811  19.126  0.00  0.00    +0.000 C 
ATOM     22  C   UNL     1      -0.215  13.991  18.285  0.00  0.00    +0.000 C 
BRANCH  16  24
ATOM     23  C   UNL     1      -2.559  11.270  16.128  0.00  0.00    +0.000 C 
ATOM     24  N   UNL     1      -2.499  12.008  17.383  0.00  0.00    +0.000 NA
ATOM     25  H   UNL     1      -3.355  11.808  17.904  0.00  0.00    +0.000 HD
ENDBRANCH  16  24
BRANCH  17  26
ATOM     26  O   UNL     1      -2.225   9.403  18.369  0.00  0.00    +0.000 OA
ATOM     27  H   UNL     1      -1.451   8.887  18.062  0.00  0.00    +0.000 HD
ENDBRANCH  17  26
BRANCH  21  28
ATOM     28  O   UNL     1      -1.654  13.321  20.076  0.00  0.00    +0.000 OA
ATOM     29  H   UNL     1      -2.151  12.558  20.426  0.00  0.00    +0.000 HD
ENDBRANCH  21  28
ENDBRANCH  15  18
ENDBRANCH   1  15
BRANCH   3  30
ATOM     30  O   UNL     1       3.230   5.802  17.449  0.00  0.00    +0.000 OA
BRANCH  30  31
ATOM     31  C   UNL     1       4.591   5.575  17.054  0.00  0.00    +0.000 C 
ATOM     32  O   UNL     1       5.563   6.104  17.991  0.00  0.00    +0.000 OA
ATOM     33  C   UNL     1       6.871   5.651  17.820  0.00  0.00    +0.000 C 
ATOM     34  C   UNL     1       7.230   4.719  16.916  0.00  0.00    +0.000 C 
ATOM     35  C   UNL     1       6.205   3.951  16.133  0.00  0.00    +0.000 C 
ATOM     36  C   UNL     1       4.835   4.045  16.839  0.00  0.00    +0.000 C 
BRANCH  36  37
ATOM     37  N   UNL     1       4.840   3.250  18.097  0.00  0.00    +0.000 NA
ATOM     38  H   UNL     1       3.938   2.770  18.163  0.00  0.00    +0.000 HD
ATOM     39  H   UNL     1       4.861   3.876  18.899  0.00  0.00    +0.000 HD
ENDBRANCH  36  37
BRANCH  33  40
ATOM     40  C   UNL     1       7.865   6.192  18.822  0.00  0.00    +0.000 C 
BRANCH  40  41
ATOM     41  N   UNL     1       7.740   5.444  20.067  0.00  0.00    +0.000 NA
ATOM     42  H   UNL     1       7.308   4.545  19.851  0.00  0.00    +0.000 HD
ATOM     43  H   UNL     1       7.104   5.930  20.692  0.00  0.00    +0.000 HD
ENDBRANCH  40  41
ENDBRANCH  33  40
ENDBRANCH  30  31
ENDBRANCH   3  30
TORSDOF 13
ENDMDL
MODEL 5
REMARK VINA RESULT:      -6.3      2.549      8.880
REMARK  Name = 
REMARK  15 active torsions:
REMARK  status: ('A' for Active; 'I' for Inactive)
REMARK    1  A    between atoms: C_1  and  N_2
REMARK    2  A    between atoms: N_2  and  C_3
REMARK    3  A    between atoms: C_4  and  O_5
REMARK    4  A    between atoms: C_6  and  O_7
REMARK    5  A    between atoms: O_7  and  C_8
REMARK    6  A    between atoms: C_9  and  O_10
REMARK    7  A    between atoms: C_11  and  O_12
REMARK    8  A    between atoms: O_12  and  C_13
REMARK    9  A    between atoms: C_15  and  C_16
REMARK   10  A    between atoms: C_16  and  N_17
REMARK   11  A    between atoms: C_20  and  N_21
REMARK   12  A    between atoms: C_22  and  N_23
REMARK   13  A    between atoms: C_25  and  N_26
REMARK   14  A    between atoms: C_29  and  C_30
REMARK   15  A    between atoms: C_29  and  O_31
REMARK                            x       y       z     vdW  Elec       q    Type
REMARK                         _______ _______ _______ _____ _____    ______ ____
ROOT
ATOM      1  C   UNL     1       1.788   8.267  19.680  0.00  0.00    +0.000 C 
ATOM      2  C   UNL     1       0.807   8.700  20.815  0.00  0.00    +0.000 C 
ATOM      3  C   UNL     1       0.331  10.181  20.779  0.00  0.00    +0.000 C 
ATOM      4  C   UNL     1      -0.151  10.455  19.317  0.00  0.00    +0.000 C 
ATOM      5  C   UNL     1       1.061  10.367  18.392  0.00  0.00    +0.000 C 
ATOM      6  C   UNL     1       1.526   8.917  18.295  0.00  0.00    +0.000 C 
ENDROOT
BRANCH   4   7
ATOM      7  N   UNL     1      -0.830  11.738  19.107  0.00  0.00    +0.000 NA
ATOM      8  H   UNL     1      -1.007  11.906  18.117  0.00  0.00    +0.000 HD
ATOM      9  H   UNL     1      -0.286  12.514  19.465  0.00  0.00    +0.000 HD
ENDBRANCH   4   7
BRANCH   6  10
ATOM     10  N   UNL     1       2.725   8.879  17.435  0.00  0.00    +0.000 NA
ATOM     11  H   UNL     1       3.424   9.554  17.744  0.00  0.00    +0.000 HD
ATOM     12  H   UNL     1       2.491   9.106  16.470  0.00  0.00    +0.000 HD
ENDBRANCH   6  10
BRANCH   2  13
ATOM     13  O   UNL     1       1.461   8.395  22.069  0.00  0.00    +0.000 OA
ATOM     14  H   UNL     1       1.804   7.486  22.019  0.00  0.00    +0.000 HD
ENDBRANCH   2  13
BRANCH   1  15
ATOM     15  O   UNL     1       1.683   6.824  19.631  0.00  0.00    +0.000 OA
BRANCH  15  18
ATOM     16  C   UNL     1       2.560   4.356  18.267  0.00  0.00    +0.000 C 
ATOM     17  C   UNL     1       3.523   5.376  18.917  0.00  0.00    +0.000 C 
ATOM     18  C   UNL     1       2.809   6.077  20.099  0.00  0.00    +0.000 C 
ATOM     19  O   UNL     1       2.431   5.089  21.065  0.00  0.00    +0.000 OA
ATOM     20  C   UNL     1       1.473   4.157  20.552  0.00  0.00    +0.000 C 
ATOM     21  C   UNL     1       2.039   3.365  19.356  0.00  0.00    +0.000 C 
ATOM     22  C   UNL     1       0.961   2.424  18.821  0.00  0.00    +0.000 C 
BRANCH  16  24
ATOM     23  C   UNL     1       4.548   3.413  17.101  0.00  0.00    +0.000 C 
ATOM     24  N   UNL     1       3.147   3.804  17.010  0.00  0.00    +0.000 NA
ATOM     25  H   UNL     1       2.610   2.976  16.743  0.00  0.00    +0.000 HD
ENDBRANCH  16  24
BRANCH  17  26
ATOM     26  O   UNL     1       4.005   6.302  17.933  0.00  0.00    +0.000 OA
ATOM     27  H   UNL     1       4.237   5.736  17.168  0.00  0.00    +0.000 HD
ENDBRANCH  17  26
BRANCH  21  28
ATOM     28  O   UNL     1       3.115   2.549  19.858  0.00  0.00    +0.000 OA
ATOM     29  H   UNL     1       2.861   1.617  19.720  0.00  0.00    +0.000 HD
ENDBRANCH  21  28
ENDBRANCH  15  18
ENDBRANCH   1  15
BRANCH   3  30
ATOM     30  O   UNL     1      -0.752  10.462  21.689  0.00  0.00    +0.000 OA
BRANCH  30  31
ATOM     31  C   UNL     1      -0.700  11.704  22.407  0.00  0.00    +0.000 C 
ATOM     32  O   UNL     1       0.236  12.658  21.847  0.00  0.00    +0.000 OA
ATOM     33  C   UNL     1       0.106  13.969  22.306  0.00  0.00    +0.000 C 
ATOM     34  C   UNL     1      -0.866  14.376  23.144  0.00  0.00    +0.000 C 
ATOM     35  C   UNL     1      -2.011  13.478  23.512  0.00  0.00    +0.000 C 
ATOM     36  C   UNL     1      -2.128  12.337  22.478  0.00  0.00    +0.000 C 
BRANCH  36  37
ATOM     37  N   UNL     1      -2.625  12.860  21.177  0.00  0.00    +0.000 NA
ATOM     38  H   UNL     1      -2.447  12.143  20.467  0.00  0.00    +0.000 HD
ATOM     39  H   UNL     1      -2.061  13.656  20.888  0.00  0.00    +0.000 HD
ENDBRANCH  36  37
BRANCH  33  40
ATOM     40  C   UNL     1       1.073  14.955  21.692  0.00  0.00    +0.000 C 
BRANCH  40  41
ATOM     41  N   UNL     1       2.436  14.548  22.016  0.00  0.00    +0.000 NA
ATOM     42  H   UNL     1       2.715  15.040  22.865  0.00  0.00    +0.000 HD
ATOM     43  H   UNL     1       3.065  14.856  21.281  0.00  0.00    +0.000 HD
ENDBRANCH  40  41
ENDBRANCH  33  40
ENDBRANCH  30  31
ENDBRANCH   3  30
TORSDOF 13
ENDMDL
MODEL 6
REMARK VINA RESULT:      -6.3      1.377      1.615
REMARK  Name = 
REMARK  15 active torsions:
REMARK  status: ('A' for Active; 'I' for Inactive)
REMARK    1  A    between atoms: C_1  and  N_2
REMARK    2  A    between atoms: N_2  and  C_3
REMARK    3  A    between atoms: C_4  and  O_5
REMARK    4  A    between atoms: C_6  and  O_7
REMARK    5  A    between atoms: O_7  and  C_8
REMARK    6  A    between atoms: C_9  and  O_10
REMARK    7  A    between atoms: C_11  and  O_12
REMARK    8  A    between atoms: O_12  and  C_13
REMARK    9  A    between atoms: C_15  and  C_16
REMARK   10  A    between atoms: C_16  and  N_17
REMARK   11  A    between atoms: C_20  and  N_21
REMARK   12  A    between atoms: C_22  and  N_23
REMARK   13  A    between atoms: C_25  and  N_26
REMARK   14  A    between atoms: C_29  and  C_30
REMARK   15  A    between atoms: C_29  and  O_31
REMARK                            x       y       z     vdW  Elec       q    Type
REMARK                         _______ _______ _______ _____ _____    ______ ____
ROOT
ATOM      1  C   UNL     1       1.079   9.239  19.706  0.00  0.00    +0.000 C 
ATOM      2  C   UNL     1       1.404   8.242  18.549  0.00  0.00    +0.000 C 
ATOM      3  C   UNL     1       2.450   7.136  18.872  0.00  0.00    +0.000 C 
ATOM      4  C   UNL     1       2.007   6.492  20.226  0.00  0.00    +0.000 C 
ATOM      5  C   UNL     1       2.140   7.547  21.322  0.00  0.00    +0.000 C 
ATOM      6  C   UNL     1       1.072   8.620  21.130  0.00  0.00    +0.000 C 
ENDROOT
BRANCH   4   7
ATOM      7  N   UNL     1       2.745   5.286  20.622  0.00  0.00    +0.000 NA
ATOM      8  H   UNL     1       2.146   4.462  20.597  0.00  0.00    +0.000 HD
ATOM      9  H   UNL     1       3.127   5.370  21.557  0.00  0.00    +0.000 HD
ENDBRANCH   4   7
BRANCH   6  10
ATOM     10  N   UNL     1       1.262   9.646  22.174  0.00  0.00    +0.000 NA
ATOM     11  H   UNL     1       1.992  10.308  21.915  0.00  0.00    +0.000 HD
ATOM     12  H   UNL     1       1.538   9.222  23.058  0.00  0.00    +0.000 HD
ENDBRANCH   6  10
BRANCH   2  13
ATOM     13  O   UNL     1       1.825   9.040  17.418  0.00  0.00    +0.000 OA
ATOM     14  H   UNL     1       1.059   9.553  17.107  0.00  0.00    +0.000 HD
ENDBRANCH   2  13
BRANCH   1  15
ATOM     15  O   UNL     1      -0.206   9.807  19.354  0.00  0.00    +0.000 OA
BRANCH  15  18
ATOM     16  C   UNL     1      -2.378  11.785  19.057  0.00  0.00    +0.000 C 
ATOM     17  C   UNL     1      -0.903  12.054  18.679  0.00  0.00    +0.000 C 
ATOM     18  C   UNL     1      -0.229  10.725  18.258  0.00  0.00    +0.000 C 
ATOM     19  O   UNL     1      -0.925  10.189  17.126  0.00  0.00    +0.000 OA
ATOM     20  C   UNL     1      -2.280   9.839  17.431  0.00  0.00    +0.000 C 
ATOM     21  C   UNL     1      -3.097  11.070  17.869  0.00  0.00    +0.000 C 
ATOM     22  C   UNL     1      -4.517  10.631  18.225  0.00  0.00    +0.000 C 
BRANCH  16  24
ATOM     23  C   UNL     1      -3.506  12.846  21.008  0.00  0.00    +0.000 C 
ATOM     24  N   UNL     1      -3.002  13.005  19.649  0.00  0.00    +0.000 NA
ATOM     25  H   UNL     1      -2.300  13.748  19.663  0.00  0.00    +0.000 HD
ENDBRANCH  16  24
BRANCH  17  26
ATOM     26  O   UNL     1      -0.222  12.701  19.763  0.00  0.00    +0.000 OA
ATOM     27  H   UNL     1      -0.073  11.982  20.412  0.00  0.00    +0.000 HD
ENDBRANCH  17  26
BRANCH  21  28
ATOM     28  O   UNL     1      -3.190  11.947  16.728  0.00  0.00    +0.000 OA
ATOM     29  H   UNL     1      -3.526  11.417  15.981  0.00  0.00    +0.000 HD
ENDBRANCH  21  28
ENDBRANCH  15  18
ENDBRANCH   1  15
BRANCH   3  30
ATOM     30  O   UNL     1       2.531   6.106  17.867  0.00  0.00    +0.000 OA
BRANCH  30  31
ATOM     31  C   UNL     1       3.833   5.795  17.349  0.00  0.00    +0.000 C 
ATOM     32  O   UNL     1       4.917   6.242  18.201  0.00  0.00    +0.000 OA
ATOM     33  C   UNL     1       6.171   5.705  17.910  0.00  0.00    +0.000 C 
ATOM     34  C   UNL     1       6.385   4.768  16.967  0.00  0.00    +0.000 C 
ATOM     35  C   UNL     1       5.245   4.084  16.270  0.00  0.00    +0.000 C 
ATOM     36  C   UNL     1       3.952   4.257  17.096  0.00  0.00    +0.000 C 
BRANCH  36  37
ATOM     37  N   UNL     1       4.015   3.441  18.340  0.00  0.00    +0.000 NA
ATOM     38  H   UNL     1       3.510   2.568  18.162  0.00  0.00    +0.000 HD
ATOM     39  H   UNL     1       3.487   3.901  19.079  0.00  0.00    +0.000 HD
ENDBRANCH  36  37
BRANCH  33  40
ATOM     40  C   UNL     1       7.285   6.162  18.825  0.00  0.00    +0.000 C 
BRANCH  40  41
ATOM     41  N   UNL     1       7.318   5.299  20.000  0.00  0.00    +0.000 NA
ATOM     42  H   UNL     1       7.453   4.339  19.680  0.00  0.00    +0.000 HD
ATOM     43  H   UNL     1       6.415   5.326  20.465  0.00  0.00    +0.000 HD
ENDBRANCH  40  41
ENDBRANCH  33  40
ENDBRANCH  30  31
ENDBRANCH   3  30
TORSDOF 13
ENDMDL
MODEL 7
REMARK VINA RESULT:      -6.2      2.418      9.158
REMARK  Name = 
REMARK  15 active torsions:
REMARK  status: ('A' for Active; 'I' for Inactive)
REMARK    1  A    between atoms: C_1  and  N_2
REMARK    2  A    between atoms: N_2  and  C_3
REMARK    3  A    between atoms: C_4  and  O_5
REMARK    4  A    between atoms: C_6  and  O_7
REMARK    5  A    between atoms: O_7  and  C_8
REMARK    6  A    between atoms: C_9  and  O_10
REMARK    7  A    between atoms: C_11  and  O_12
REMARK    8  A    between atoms: O_12  and  C_13
REMARK    9  A    between atoms: C_15  and  C_16
REMARK   10  A    between atoms: C_16  and  N_17
REMARK   11  A    between atoms: C_20  and  N_21
REMARK   12  A    between atoms: C_22  and  N_23
REMARK   13  A    between atoms: C_25  and  N_26
REMARK   14  A    between atoms: C_29  and  C_30
REMARK   15  A    between atoms: C_29  and  O_31
REMARK                            x       y       z     vdW  Elec       q    Type
REMARK                         _______ _______ _______ _____ _____    ______ ____
ROOT
ATOM      1  C   UNL     1       2.520   7.425  19.281  0.00  0.00    +0.000 C 
ATOM      2  C   UNL     1       1.367   7.929  20.206  0.00  0.00    +0.000 C 
ATOM      3  C   UNL     1       0.900   9.396  19.977  0.00  0.00    +0.000 C 
ATOM      4  C   UNL     1       0.661   9.548  18.439  0.00  0.00    +0.000 C 
ATOM      5  C   UNL     1       2.006   9.407  17.731  0.00  0.00    +0.000 C 
ATOM      6  C   UNL     1       2.484   7.961  17.825  0.00  0.00    +0.000 C 
ENDROOT
BRANCH   4   7
ATOM      7  N   UNL     1       0.022  10.802  18.021  0.00  0.00    +0.000 NA
ATOM      8  H   UNL     1       0.229  11.016  17.047  0.00  0.00    +0.000 HD
ATOM      9  H   UNL     1       0.326  11.585  18.588  0.00  0.00    +0.000 HD
ENDBRANCH   4   7
BRANCH   6  10
ATOM     10  N   UNL     1       3.806   7.874  17.176  0.00  0.00    +0.000 NA
ATOM     11  H   UNL     1       3.750   7.384  16.284  0.00  0.00    +0.000 HD
ATOM     12  H   UNL     1       4.468   7.364  17.760  0.00  0.00    +0.000 HD
ENDBRANCH   6  10
BRANCH   2  13
ATOM     13  O   UNL     1       1.810   7.733  21.569  0.00  0.00    +0.000 OA
ATOM     14  H   UNL     1       1.174   8.171  22.160  0.00  0.00    +0.000 HD
ENDBRANCH   2  13
BRANCH   1  15
ATOM     15  O   UNL     1       2.427   5.980  19.331  0.00  0.00    +0.000 OA
BRANCH  15  18
ATOM     16  C   UNL     1       4.213   3.929  18.181  0.00  0.00    +0.000 C 
ATOM     17  C   UNL     1       4.632   4.917  19.295  0.00  0.00    +0.000 C 
ATOM     18  C   UNL     1       3.389   5.297  20.138  0.00  0.00    +0.000 C 
ATOM     19  O   UNL     1       2.846   4.109  20.727  0.00  0.00    +0.000 OA
ATOM     20  C   UNL     1       2.362   3.183  19.748  0.00  0.00    +0.000 C 
ATOM     21  C   UNL     1       3.493   2.699  18.820  0.00  0.00    +0.000 C 
ATOM     22  C   UNL     1       2.912   1.754  17.770  0.00  0.00    +0.000 C 
BRANCH  16  24
ATOM     23  C   UNL     1       5.131   4.185  15.880  0.00  0.00    +0.000 C 
ATOM     24  N   UNL     1       5.344   3.693  17.235  0.00  0.00    +0.000 NA
ATOM     25  H   UNL     1       6.175   4.156  17.608  0.00  0.00    +0.000 HD
ENDBRANCH  16  24
BRANCH  17  26
ATOM     26  O   UNL     1       5.286   6.060  18.727  0.00  0.00    +0.000 OA
ATOM     27  H   UNL     1       5.211   6.746  19.423  0.00  0.00    +0.000 HD
ENDBRANCH  17  26
BRANCH  21  28
ATOM     28  O   UNL     1       4.409   1.936  19.628  0.00  0.00    +0.000 OA
ATOM     29  H   UNL     1       5.211   1.785  19.094  0.00  0.00    +0.000 HD
ENDBRANCH  21  28
ENDBRANCH  15  18
ENDBRANCH   1  15
BRANCH   3  30
ATOM     30  O   UNL     1      -0.316   9.731  20.675  0.00  0.00    +0.000 OA
BRANCH  30  31
ATOM     31  C   UNL     1      -0.619  11.125  20.834  0.00  0.00    +0.000 C 
ATOM     32  O   UNL     1      -1.936  11.490  20.350  0.00  0.00    +0.000 OA
ATOM     33  C   UNL     1      -2.398  12.743  20.753  0.00  0.00    +0.000 C 
ATOM     34  C   UNL     1      -1.734  13.549  21.603  0.00  0.00    +0.000 C 
ATOM     35  C   UNL     1      -0.513  13.078  22.338  0.00  0.00    +0.000 C 
ATOM     36  C   UNL     1      -0.469  11.534  22.336  0.00  0.00    +0.000 C 
BRANCH  36  37
ATOM     37  N   UNL     1      -1.528  10.981  23.223  0.00  0.00    +0.000 NA
ATOM     38  H   UNL     1      -1.632  11.621  24.016  0.00  0.00    +0.000 HD
ATOM     39  H   UNL     1      -1.209  10.107  23.635  0.00  0.00    +0.000 HD
ENDBRANCH  36  37
BRANCH  33  40
ATOM     40  C   UNL     1      -3.783  13.096  20.262  0.00  0.00    +0.000 C 
BRANCH  40  41
ATOM     41  N   UNL     1      -4.007  12.453  18.972  0.00  0.00    +0.000 NA
ATOM     42  H   UNL     1      -3.097  12.201  18.585  0.00  0.00    +0.000 HD
ATOM     43  H   UNL     1      -4.423  13.120  18.328  0.00  0.00    +0.000 HD
ENDBRANCH  40  41
ENDBRANCH  33  40
ENDBRANCH  30  31
ENDBRANCH   3  30
TORSDOF 13
ENDMDL
MODEL 8
REMARK VINA RESULT:      -6.2      1.897      8.648
REMARK  Name = 
REMARK  15 active torsions:
REMARK  status: ('A' for Active; 'I' for Inactive)
REMARK    1  A    between atoms: C_1  and  N_2
REMARK    2  A    between atoms: N_2  and  C_3
REMARK    3  A    between atoms: C_4  and  O_5
REMARK    4  A    between atoms: C_6  and  O_7
REMARK    5  A    between atoms: O_7  and  C_8
REMARK    6  A    between atoms: C_9  and  O_10
REMARK    7  A    between atoms: C_11  and  O_12
REMARK    8  A    between atoms: O_12  and  C_13
REMARK    9  A    between atoms: C_15  and  C_16
REMARK   10  A    between atoms: C_16  and  N_17
REMARK   11  A    between atoms: C_20  and  N_21
REMARK   12  A    between atoms: C_22  and  N_23
REMARK   13  A    between atoms: C_25  and  N_26
REMARK   14  A    between atoms: C_29  and  C_30
REMARK   15  A    between atoms: C_29  and  O_31
REMARK                            x       y       z     vdW  Elec       q    Type
REMARK                         _______ _______ _______ _____ _____    ______ ____
ROOT
ATOM      1  C   UNL     1       2.395   6.292  18.726  0.00  0.00    +0.000 C 
ATOM      2  C   UNL     1       2.384   7.840  18.523  0.00  0.00    +0.000 C 
ATOM      3  C   UNL     1       1.392   8.639  19.417  0.00  0.00    +0.000 C 
ATOM      4  C   UNL     1       1.618   8.141  20.882  0.00  0.00    +0.000 C 
ATOM      5  C   UNL     1       1.190   6.678  20.960  0.00  0.00    +0.000 C 
ATOM      6  C   UNL     1       2.181   5.813  20.186  0.00  0.00    +0.000 C 
ENDROOT
BRANCH   4   7
ATOM      7  N   UNL     1       0.923   8.907  21.923  0.00  0.00    +0.000 NA
ATOM      8  H   UNL     1      -0.054   9.060  21.678  0.00  0.00    +0.000 HD
ATOM      9  H   UNL     1       1.354   9.811  22.076  0.00  0.00    +0.000 HD
ENDBRANCH   4   7
BRANCH   6  10
ATOM     10  N   UNL     1       1.707   4.416  20.241  0.00  0.00    +0.000 NA
ATOM     11  H   UNL     1       1.032   4.224  19.503  0.00  0.00    +0.000 HD
ATOM     12  H   UNL     1       1.248   4.220  21.130  0.00  0.00    +0.000 HD
ENDBRANCH   6  10
BRANCH   2  13
ATOM     13  O   UNL     1       2.123   8.075  17.120  0.00  0.00    +0.000 OA
ATOM     14  H   UNL     1       1.474   7.417  16.818  0.00  0.00    +0.000 HD
ENDBRANCH   2  13
BRANCH   1  15
ATOM     15  O   UNL     1       3.672   5.859  18.194  0.00  0.00    +0.000 OA
BRANCH  15  18
ATOM     16  C   UNL     1       6.332   4.690  17.669  0.00  0.00    +0.000 C 
ATOM     17  C   UNL     1       5.215   3.979  18.468  0.00  0.00    +0.000 C 
ATOM     18  C   UNL     1       3.834   4.459  17.958  0.00  0.00    +0.000 C 
ATOM     19  O   UNL     1       3.712   4.134  16.568  0.00  0.00    +0.000 OA
ATOM     20  C   UNL     1       4.669   4.826  15.757  0.00  0.00    +0.000 C 
ATOM     21  C   UNL     1       6.113   4.450  16.141  0.00  0.00    +0.000 C 
ATOM     22  C   UNL     1       7.088   5.251  15.280  0.00  0.00    +0.000 C 
BRANCH  16  24
ATOM     23  C   UNL     1       8.215   5.449  19.112  0.00  0.00    +0.000 C 
ATOM     24  N   UNL     1       7.671   4.398  18.262  0.00  0.00    +0.000 NA
ATOM     25  H   UNL     1       7.592   3.550  18.827  0.00  0.00    +0.000 HD
ENDBRANCH  16  24
BRANCH  17  26
ATOM     26  O   UNL     1       5.392   4.197  19.874  0.00  0.00    +0.000 OA
ATOM     27  H   UNL     1       5.939   3.437  20.165  0.00  0.00    +0.000 HD
ENDBRANCH  17  26
BRANCH  21  28
ATOM     28  O   UNL     1       6.292   3.058  15.814  0.00  0.00    +0.000 OA
ATOM     29  H   UNL     1       5.676   2.849  15.088  0.00  0.00    +0.000 HD
ENDBRANCH  21  28
ENDBRANCH  15  18
ENDBRANCH   1  15
BRANCH   3  30
ATOM     30  O   UNL     1       1.593  10.066  19.371  0.00  0.00    +0.000 OA
BRANCH  30  31
ATOM     31  C   UNL     1       0.565  10.854  18.754  0.00  0.00    +0.000 C 
ATOM     32  O   UNL     1      -0.488  10.061  18.149  0.00  0.00    +0.000 OA
ATOM     33  C   UNL     1      -1.648  10.759  17.813  0.00  0.00    +0.000 C 
ATOM     34  C   UNL     1      -1.848  12.061  18.094  0.00  0.00    +0.000 C 
ATOM     35  C   UNL     1      -0.899  12.829  18.967  0.00  0.00    +0.000 C 
ATOM     36  C   UNL     1      -0.046  11.845  19.797  0.00  0.00    +0.000 C 
BRANCH  36  37
ATOM     37  N   UNL     1      -0.876  11.188  20.843  0.00  0.00    +0.000 NA
ATOM     38  H   UNL     1      -0.652  11.632  21.739  0.00  0.00    +0.000 HD
ATOM     39  H   UNL     1      -0.586  10.219  20.953  0.00  0.00    +0.000 HD
ENDBRANCH  36  37
BRANCH  33  40
ATOM     40  C   UNL     1      -2.745   9.912  17.208  0.00  0.00    +0.000 C 
BRANCH  40  41
ATOM     41  N   UNL     1      -2.638   9.964  15.755  0.00  0.00    +0.000 NA
ATOM     42  H   UNL     1      -2.102  10.797  15.509  0.00  0.00    +0.000 HD
ATOM     43  H   UNL     1      -3.562  10.082  15.351  0.00  0.00    +0.000 HD
ENDBRANCH  40  41
ENDBRANCH  33  40
ENDBRANCH  30  31
ENDBRANCH   3  30
TORSDOF 13
ENDMDL
MODEL 9
REMARK VINA RESULT:      -6.1      2.610      8.754
REMARK  Name = 
REMARK  15 active torsions:
REMARK  status: ('A' for Active; 'I' for Inactive)
REMARK    1  A    between atoms: C_1  and  N_2
REMARK    2  A    between atoms: N_2  and  C_3
REMARK    3  A    between atoms: C_4  and  O_5
REMARK    4  A    between atoms: C_6  and  O_7
REMARK    5  A    between atoms: O_7  and  C_8
REMARK    6  A    between atoms: C_9  and  O_10
REMARK    7  A    between atoms: C_11  and  O_12
REMARK    8  A    between atoms: O_12  and  C_13
REMARK    9  A    between atoms: C_15  and  C_16
REMARK   10  A    between atoms: C_16  and  N_17
REMARK   11  A    between atoms: C_20  and  N_21
REMARK   12  A    between atoms: C_22  and  N_23
REMARK   13  A    between atoms: C_25  and  N_26
REMARK   14  A    between atoms: C_29  and  C_30
REMARK   15  A    between atoms: C_29  and  O_31
REMARK                            x       y       z     vdW  Elec       q    Type
REMARK                         _______ _______ _______ _____ _____    ______ ____
ROOT
ATOM      1  C   UNL     1       2.431   7.717  19.127  0.00  0.00    +0.000 C 
ATOM      2  C   UNL     1       1.348   8.124  20.175  0.00  0.00    +0.000 C 
ATOM      3  C   UNL     1       0.899   9.614  20.152  0.00  0.00    +0.000 C 
ATOM      4  C   UNL     1       0.571   9.953  18.661  0.00  0.00    +0.000 C 
ATOM      5  C   UNL     1       1.868   9.879  17.859  0.00  0.00    +0.000 C 
ATOM      6  C   UNL     1       2.319   8.425  17.750  0.00  0.00    +0.000 C 
ENDROOT
BRANCH   4   7
ATOM      7  N   UNL     1      -0.064  11.257  18.436  0.00  0.00    +0.000 NA
ATOM      8  H   UNL     1      -0.151  11.781  19.305  0.00  0.00    +0.000 HD
ATOM      9  H   UNL     1      -0.989  11.159  18.034  0.00  0.00    +0.000 HD
ENDBRANCH   4   7
BRANCH   6  10
ATOM     10  N   UNL     1       3.598   8.397  17.014  0.00  0.00    +0.000 NA
ATOM     11  H   UNL     1       3.448   8.261  16.015  0.00  0.00    +0.000 HD
ATOM     12  H   UNL     1       4.191   7.634  17.338  0.00  0.00    +0.000 HD
ENDBRANCH   6  10
BRANCH   2  13
ATOM     13  O   UNL     1       1.868   7.759  21.475  0.00  0.00    +0.000 OA
ATOM     14  H   UNL     1       2.444   6.983  21.364  0.00  0.00    +0.000 HD
ENDBRANCH   2  13
BRANCH   1  15
ATOM     15  O   UNL     1       2.310   6.279  19.010  0.00  0.00    +0.000 OA
BRANCH  15  18
ATOM     16  C   UNL     1       2.493   3.341  18.772  0.00  0.00    +0.000 C 
ATOM     17  C   UNL     1       2.300   4.298  17.572  0.00  0.00    +0.000 C 
ATOM     18  C   UNL     1       2.956   5.663  17.893  0.00  0.00    +0.000 C 
ATOM     19  O   UNL     1       4.356   5.463  18.129  0.00  0.00    +0.000 OA
ATOM     20  C   UNL     1       4.607   4.650  19.281  0.00  0.00    +0.000 C 
ATOM     21  C   UNL     1       4.013   3.237  19.116  0.00  0.00    +0.000 C 
ATOM     22  C   UNL     1       4.269   2.432  20.389  0.00  0.00    +0.000 C 
BRANCH  16  24
ATOM     23  C   UNL     1       0.509   1.969  19.395  0.00  0.00    +0.000 C 
ATOM     24  N   UNL     1       1.709   2.085  18.575  0.00  0.00    +0.000 NA
ATOM     25  H   UNL     1       1.423   2.037  17.595  0.00  0.00    +0.000 HD
ENDBRANCH  16  24
BRANCH  17  26
ATOM     26  O   UNL     1       0.908   4.415  17.248  0.00  0.00    +0.000 OA
ATOM     27  H   UNL     1       0.519   3.574  17.567  0.00  0.00    +0.000 HD
ENDBRANCH  17  26
BRANCH  21  28
ATOM     28  O   UNL     1       4.734   2.595  18.047  0.00  0.00    +0.000 OA
ATOM     29  H   UNL     1       5.535   3.124  17.877  0.00  0.00    +0.000 HD
ENDBRANCH  21  28
ENDBRANCH  15  18
ENDBRANCH   1  15
BRANCH   3  30
ATOM     30  O   UNL     1      -0.265   9.880  20.960  0.00  0.00    +0.000 OA
BRANCH  30  31
ATOM     31  C   UNL     1      -0.268  11.094  21.726  0.00  0.00    +0.000 C 
ATOM     32  O   UNL     1       0.670  12.087  21.242  0.00  0.00    +0.000 OA
ATOM     33  C   UNL     1       0.494  13.376  21.746  0.00  0.00    +0.000 C 
ATOM     34  C   UNL     1      -0.519  13.731  22.559  0.00  0.00    +0.000 C 
ATOM     35  C   UNL     1      -1.659  12.797  22.846  0.00  0.00    +0.000 C 
ATOM     36  C   UNL     1      -1.710  11.695  21.765  0.00  0.00    +0.000 C 
BRANCH  36  37
ATOM     37  N   UNL     1      -2.166  12.260  20.465  0.00  0.00    +0.000 NA
ATOM     38  H   UNL     1      -1.749  13.190  20.369  0.00  0.00    +0.000 HD
ATOM     39  H   UNL     1      -3.169  12.427  20.497  0.00  0.00    +0.000 HD
ENDBRANCH  36  37
BRANCH  33  40
ATOM     40  C   UNL     1       1.463  14.405  21.210  0.00  0.00    +0.000 C 
BRANCH  40  41
ATOM     41  N   UNL     1       2.446  14.714  22.243  0.00  0.00    +0.000 NA
ATOM     42  H   UNL     1       2.923  15.575  21.973  0.00  0.00    +0.000 HD
ATOM     43  H   UNL     1       3.152  13.985  22.268  0.00  0.00    +0.000 HD
ENDBRANCH  40  41
ENDBRANCH  33  40
ENDBRANCH  30  31
ENDBRANCH   3  30
TORSDOF 13
ENDMDL
