MODEL 1
REMARK VINA RESULT:      -8.4      0.000      0.000
REMARK  Name = 
REMARK  8 active torsions:
REMARK  status: ('A' for Active; 'I' for Inactive)
REMARK    1  A    between atoms: C_1  and  C_2
REMARK    2  A    between atoms: C_2  and  C_3
REMARK    3  A    between atoms: C_3  and  C_4
REMARK    4  A    between atoms: C_4  and  O_5
REMARK    5  A    between atoms: C_9  and  C_11
REMARK    6  A    between atoms: C_13  and  C_14
REMARK    7  A    between atoms: C_14  and  O_15
REMARK    8  A    between atoms: O_15  and  C_16
REMARK                            x       y       z     vdW  Elec       q    Type
REMARK                         _______ _______ _______ _____ _____    ______ ____
ROOT
ATOM      1  C   UNL     1       7.416   6.780  17.531  0.00  0.00    +0.000 A 
ATOM      2  C   UNL     1       7.683   8.170  17.378  0.00  0.00    +0.000 A 
ATOM      3  C   UNL     1       8.413   8.534  18.489  0.00  0.00    +0.000 A 
ATOM      4  N   UNL     1       8.563   7.390  19.213  0.00  0.00    +0.000 N 
ATOM      5  N   UNL     1       8.053   6.305  18.621  0.00  0.00    +0.000 NA
ATOM      6  H   UNL     1       9.013   7.276  20.117  0.00  0.00    +0.000 HD
ENDROOT
BRANCH   1  11
ATOM      7  C   UNL     1       3.662   3.569  18.476  0.00  0.00    +0.000 C 
ATOM      8  C   UNL     1       4.437   4.724  19.165  0.00  0.00    +0.000 C 
ATOM      9  C   UNL     1       4.644   5.915  18.234  0.00  0.00    +0.000 C 
ATOM     10  N   UNL     1       5.357   5.481  17.036  0.00  0.00    +0.000 N 
ATOM     11  C   UNL     1       6.615   5.937  16.611  0.00  0.00    +0.000 C 
ATOM     12  O   UNL     1       7.049   5.673  15.489  0.00  0.00    +0.000 OA
ATOM     13  C   UNL     1       4.648   4.476  16.254  0.00  0.00    +0.000 C 
ATOM     14  C   UNL     1       4.355   3.240  17.114  0.00  0.00    +0.000 C 
BRANCH   7  16
ATOM     15  C   UNL     1       1.262   3.990  19.426  0.00  0.00    +0.000 C 
ATOM     16  C   UNL     1       2.173   3.950  18.203  0.00  0.00    +0.000 C 
ENDBRANCH   7  16
BRANCH   7  17
ATOM     17  C   UNL     1       3.755   2.319  19.389  0.00  0.00    +0.000 C 
BRANCH  17  18
ATOM     18  O   UNL     1       5.073   2.114  19.878  0.00  0.00    +0.000 OA
ATOM     19  H   UNL     1       5.602   2.899  19.653  0.00  0.00    +0.000 HD
ENDBRANCH  17  18
ENDBRANCH   7  17
ENDBRANCH   1  11
BRANCH   3  20
ATOM     20  C   UNL     1       8.990   9.822  18.947  0.00  0.00    +0.000 C 
BRANCH  20  21
ATOM     21  O   UNL     1       8.630  10.794  17.969  0.00  0.00    +0.000 OA
BRANCH  21  22
ATOM     22  C   UNL     1       9.432  11.903  17.887  0.00  0.00    +0.000 A 
ATOM     23  C   UNL     1      10.797  11.626  17.752  0.00  0.00    +0.000 A 
ATOM     24  C   UNL     1      11.732  12.662  17.660  0.00  0.00    +0.000 A 
ATOM     25  C   UNL     1      11.309  13.989  17.704  0.00  0.00    +0.000 A 
ATOM     26  C   UNL     1       9.953  14.278  17.837  0.00  0.00    +0.000 A 
ATOM     27  C   UNL     1       9.026  13.239  17.926  0.00  0.00    +0.000 A 
ATOM     28  F   UNL     1       7.734  13.577  18.043  0.00  0.00    +0.000 F 
ENDBRANCH  21  22
ENDBRANCH  20  21
ENDBRANCH   3  20
TORSDOF 7
ENDMDL
MODEL 2
REMARK VINA RESULT:      -8.4      1.787      2.024
REMARK  Name = 
REMARK  8 active torsions:
REMARK  status: ('A' for Active; 'I' for Inactive)
REMARK    1  A    between atoms: C_1  and  C_2
REMARK    2  A    between atoms: C_2  and  C_3
REMARK    3  A    between atoms: C_3  and  C_4
REMARK    4  A    between atoms: C_4  and  O_5
REMARK    5  A    between atoms: C_9  and  C_11
REMARK    6  A    between atoms: C_13  and  C_14
REMARK    7  A    between atoms: C_14  and  O_15
REMARK    8  A    between atoms: O_15  and  C_16
REMARK                            x       y       z     vdW  Elec       q    Type
REMARK                         _______ _______ _______ _____ _____    ______ ____
ROOT
ATOM      1  C   UNL     1       7.162   6.011  17.716  0.00  0.00    +0.000 A 
ATOM      2  C   UNL     1       7.223   7.343  17.215  0.00  0.00    +0.000 A 
ATOM      3  C   UNL     1       7.994   8.046  18.115  0.00  0.00    +0.000 A 
ATOM      4  N   UNL     1       8.363   7.138  19.061  0.00  0.00    +0.000 N 
ATOM      5  N   UNL     1       7.954   5.892  18.801  0.00  0.00    +0.000 NA
ATOM      6  H   UNL     1       8.904   7.299  19.906  0.00  0.00    +0.000 HD
ENDROOT
BRANCH   1  11
ATOM      7  C   UNL     1       3.047   3.619  19.340  0.00  0.00    +0.000 C 
ATOM      8  C   UNL     1       3.835   4.933  19.597  0.00  0.00    +0.000 C 
ATOM      9  C   UNL     1       4.260   5.613  18.299  0.00  0.00    +0.000 C 
ATOM     10  N   UNL     1       5.068   4.692  17.505  0.00  0.00    +0.000 N 
ATOM     11  C   UNL     1       6.405   4.886  17.119  0.00  0.00    +0.000 C 
ATOM     12  O   UNL     1       6.944   4.161  16.283  0.00  0.00    +0.000 OA
ATOM     13  C   UNL     1       4.371   3.474  17.112  0.00  0.00    +0.000 C 
ATOM     14  C   UNL     1       3.865   2.726  18.353  0.00  0.00    +0.000 C 
BRANCH   7  16
ATOM     15  C   UNL     1       0.624   2.769  18.845  0.00  0.00    +0.000 C 
ATOM     16  C   UNL     1       1.642   3.898  18.718  0.00  0.00    +0.000 C 
ENDBRANCH   7  16
BRANCH   7  17
ATOM     17  C   UNL     1       2.917   2.868  20.690  0.00  0.00    +0.000 C 
BRANCH  17  18
ATOM     18  O   UNL     1       2.402   3.704  21.717  0.00  0.00    +0.000 OA
ATOM     19  H   UNL     1       2.378   4.615  21.377  0.00  0.00    +0.000 HD
ENDBRANCH  17  18
ENDBRANCH   7  17
ENDBRANCH   1  11
BRANCH   3  20
ATOM     20  C   UNL     1       8.428   9.463  18.190  0.00  0.00    +0.000 C 
BRANCH  20  21
ATOM     21  O   UNL     1       9.335   9.548  19.285  0.00  0.00    +0.000 OA
BRANCH  21  22
ATOM     22  C   UNL     1       9.757  10.805  19.631  0.00  0.00    +0.000 A 
ATOM     23  C   UNL     1       9.375  11.216  20.913  0.00  0.00    +0.000 A 
ATOM     24  C   UNL     1       9.734  12.477  21.398  0.00  0.00    +0.000 A 
ATOM     25  C   UNL     1      10.480  13.344  20.601  0.00  0.00    +0.000 A 
ATOM     26  C   UNL     1      10.868  12.947  19.325  0.00  0.00    +0.000 A 
ATOM     27  C   UNL     1      10.508  11.686  18.849  0.00  0.00    +0.000 A 
ATOM     28  F   UNL     1      10.918  11.355  17.615  0.00  0.00    +0.000 F 
ENDBRANCH  21  22
ENDBRANCH  20  21
ENDBRANCH   3  20
TORSDOF 7
ENDMDL
MODEL 3
REMARK VINA RESULT:      -8.4      1.117      1.423
REMARK  Name = 
REMARK  8 active torsions:
REMARK  status: ('A' for Active; 'I' for Inactive)
REMARK    1  A    between atoms: C_1  and  C_2
REMARK    2  A    between atoms: C_2  and  C_3
REMARK    3  A    between atoms: C_3  and  C_4
REMARK    4  A    between atoms: C_4  and  O_5
REMARK    5  A    between atoms: C_9  and  C_11
REMARK    6  A    between atoms: C_13  and  C_14
REMARK    7  A    between atoms: C_14  and  O_15
REMARK    8  A    between atoms: O_15  and  C_16
REMARK                            x       y       z     vdW  Elec       q    Type
REMARK                         _______ _______ _______ _____ _____    ______ ____
ROOT
ATOM      1  C   UNL     1       7.500   6.889  17.522  0.00  0.00    +0.000 A 
ATOM      2  C   UNL     1       7.747   8.283  17.369  0.00  0.00    +0.000 A 
ATOM      3  C   UNL     1       8.437   8.666  18.499  0.00  0.00    +0.000 A 
ATOM      4  N   UNL     1       8.585   7.529  19.235  0.00  0.00    +0.000 N 
ATOM      5  N   UNL     1       8.112   6.432  18.634  0.00  0.00    +0.000 NA
ATOM      6  H   UNL     1       9.008   7.428  20.152  0.00  0.00    +0.000 HD
ENDROOT
BRANCH   1  11
ATOM      7  C   UNL     1       3.696   3.707  18.356  0.00  0.00    +0.000 C 
ATOM      8  C   UNL     1       4.439   4.876  19.056  0.00  0.00    +0.000 C 
ATOM      9  C   UNL     1       4.695   6.045  18.110  0.00  0.00    +0.000 C 
ATOM     10  N   UNL     1       5.463   5.583  16.958  0.00  0.00    +0.000 N 
ATOM     11  C   UNL     1       6.742   6.027  16.584  0.00  0.00    +0.000 C 
ATOM     12  O   UNL     1       7.229   5.738  15.491  0.00  0.00    +0.000 OA
ATOM     13  C   UNL     1       4.791   4.562  16.165  0.00  0.00    +0.000 C 
ATOM     14  C   UNL     1       4.452   3.347  17.037  0.00  0.00    +0.000 C 
BRANCH   7  16
ATOM     15  C   UNL     1       1.157   3.586  18.974  0.00  0.00    +0.000 C 
ATOM     16  C   UNL     1       2.223   4.085  18.003  0.00  0.00    +0.000 C 
ENDBRANCH   7  16
BRANCH   7  17
ATOM     17  C   UNL     1       3.741   2.477  19.300  0.00  0.00    +0.000 C 
BRANCH  17  18
ATOM     18  O   UNL     1       5.045   2.251  19.817  0.00  0.00    +0.000 OA
ATOM     19  H   UNL     1       4.958   1.714  20.623  0.00  0.00    +0.000 HD
ENDBRANCH  17  18
ENDBRANCH   7  17
ENDBRANCH   1  11
BRANCH   3  20
ATOM     20  C   UNL     1       8.977   9.966  18.966  0.00  0.00    +0.000 C 
BRANCH  20  21
ATOM     21  O   UNL     1       9.537  10.604  17.822  0.00  0.00    +0.000 OA
BRANCH  21  22
ATOM     22  C   UNL     1      10.083  11.845  18.021  0.00  0.00    +0.000 A 
ATOM     23  C   UNL     1       9.216  12.913  17.763  0.00  0.00    +0.000 A 
ATOM     24  C   UNL     1       9.641  14.235  17.922  0.00  0.00    +0.000 A 
ATOM     25  C   UNL     1      10.943  14.504  18.340  0.00  0.00    +0.000 A 
ATOM     26  C   UNL     1      11.816  13.451  18.602  0.00  0.00    +0.000 A 
ATOM     27  C   UNL     1      11.384  12.134  18.443  0.00  0.00    +0.000 A 
ATOM     28  F   UNL     1      12.264  11.161  18.719  0.00  0.00    +0.000 F 
ENDBRANCH  21  22
ENDBRANCH  20  21
ENDBRANCH   3  20
TORSDOF 7
ENDMDL
MODEL 4
REMARK VINA RESULT:      -8.3      1.598      1.658
REMARK  Name = 
REMARK  8 active torsions:
REMARK  status: ('A' for Active; 'I' for Inactive)
REMARK    1  A    between atoms: C_1  and  C_2
REMARK    2  A    between atoms: C_2  and  C_3
REMARK    3  A    between atoms: C_3  and  C_4
REMARK    4  A    between atoms: C_4  and  O_5
REMARK    5  A    between atoms: C_9  and  C_11
REMARK    6  A    between atoms: C_13  and  C_14
REMARK    7  A    between atoms: C_14  and  O_15
REMARK    8  A    between atoms: O_15  and  C_16
REMARK                            x       y       z     vdW  Elec       q    Type
REMARK                         _______ _______ _______ _____ _____    ______ ____
ROOT
ATOM      1  C   UNL     1       7.369   6.546  17.469  0.00  0.00    +0.000 A 
ATOM      2  C   UNL     1       7.517   7.903  17.062  0.00  0.00    +0.000 A 
ATOM      3  C   UNL     1       8.223   8.521  18.072  0.00  0.00    +0.000 A 
ATOM      4  N   UNL     1       8.473   7.543  18.988  0.00  0.00    +0.000 N 
ATOM      5  N   UNL     1       8.052   6.332  18.613  0.00  0.00    +0.000 NA
ATOM      6  H   UNL     1       8.937   7.633  19.887  0.00  0.00    +0.000 HD
ENDROOT
BRANCH   1  11
ATOM      7  C   UNL     1       3.619   3.542  18.954  0.00  0.00    +0.000 C 
ATOM      8  C   UNL     1       4.335   4.849  19.390  0.00  0.00    +0.000 C 
ATOM      9  C   UNL     1       4.576   5.792  18.215  0.00  0.00    +0.000 C 
ATOM     10  N   UNL     1       5.362   5.109  17.192  0.00  0.00    +0.000 N 
ATOM     11  C   UNL     1       6.635   5.488  16.736  0.00  0.00    +0.000 C 
ATOM     12  O   UNL     1       7.136   4.981  15.732  0.00  0.00    +0.000 OA
ATOM     13  C   UNL     1       4.715   3.928  16.634  0.00  0.00    +0.000 C 
ATOM     14  C   UNL     1       4.393   2.922  17.746  0.00  0.00    +0.000 C 
BRANCH   7  16
ATOM     15  C   UNL     1       1.101   3.733  19.636  0.00  0.00    +0.000 C 
ATOM     16  C   UNL     1       2.142   3.805  18.523  0.00  0.00    +0.000 C 
ENDBRANCH   7  16
BRANCH   7  17
ATOM     17  C   UNL     1       3.680   2.545  20.141  0.00  0.00    +0.000 C 
BRANCH  17  18
ATOM     18  O   UNL     1       4.929   1.872  20.206  0.00  0.00    +0.000 OA
ATOM     19  H   UNL     1       5.383   2.160  21.016  0.00  0.00    +0.000 HD
ENDBRANCH  17  18
ENDBRANCH   7  17
ENDBRANCH   1  11
BRANCH   3  20
ATOM     20  C   UNL     1       8.693   9.913  18.276  0.00  0.00    +0.000 C 
BRANCH  20  21
ATOM     21  O   UNL     1       9.272   9.955  19.577  0.00  0.00    +0.000 OA
BRANCH  21  22
ATOM     22  C   UNL     1       9.760  11.168  19.989  0.00  0.00    +0.000 A 
ATOM     23  C   UNL     1      10.841  11.646  19.239  0.00  0.00    +0.000 A 
ATOM     24  C   UNL     1      11.441  12.871  19.549  0.00  0.00    +0.000 A 
ATOM     25  C   UNL     1      10.966  13.631  20.616  0.00  0.00    +0.000 A 
ATOM     26  C   UNL     1       9.890  13.167  21.368  0.00  0.00    +0.000 A 
ATOM     27  C   UNL     1       9.295  11.946  21.052  0.00  0.00    +0.000 A 
ATOM     28  F   UNL     1       8.256  11.554  21.805  0.00  0.00    +0.000 F 
ENDBRANCH  21  22
ENDBRANCH  20  21
ENDBRANCH   3  20
TORSDOF 7
ENDMDL
MODEL 5
REMARK VINA RESULT:      -8.1      1.817      2.083
REMARK  Name = 
REMARK  8 active torsions:
REMARK  status: ('A' for Active; 'I' for Inactive)
REMARK    1  A    between atoms: C_1  and  C_2
REMARK    2  A    between atoms: C_2  and  C_3
REMARK    3  A    between atoms: C_3  and  C_4
REMARK    4  A    between atoms: C_4  and  O_5
REMARK    5  A    between atoms: C_9  and  C_11
REMARK    6  A    between atoms: C_13  and  C_14
REMARK    7  A    between atoms: C_14  and  O_15
REMARK    8  A    between atoms: O_15  and  C_16
REMARK                            x       y       z     vdW  Elec       q    Type
REMARK                         _______ _______ _______ _____ _____    ______ ____
ROOT
ATOM      1  C   UNL     1       6.694   6.091  17.184  0.00  0.00    +0.000 A 
ATOM      2  C   UNL     1       7.575   6.319  18.278  0.00  0.00    +0.000 A 
ATOM      3  C   UNL     1       7.952   7.641  18.185  0.00  0.00    +0.000 A 
ATOM      4  N   UNL     1       7.290   8.130  17.099  0.00  0.00    +0.000 N 
ATOM      5  N   UNL     1       6.460   7.248  16.532  0.00  0.00    +0.000 NA
ATOM      6  H   UNL     1       7.350   9.060  16.695  0.00  0.00    +0.000 HD
ENDROOT
BRANCH   1  11
ATOM      7  C   UNL     1       2.868   3.626  19.326  0.00  0.00    +0.000 C 
ATOM      8  C   UNL     1       3.511   5.039  19.314  0.00  0.00    +0.000 C 
ATOM      9  C   UNL     1       3.853   5.505  17.902  0.00  0.00    +0.000 C 
ATOM     10  N   UNL     1       4.753   4.542  17.274  0.00  0.00    +0.000 N 
ATOM     11  C   UNL     1       6.059   4.800  16.826  0.00  0.00    +0.000 C 
ATOM     12  O   UNL     1       6.670   3.992  16.126  0.00  0.00    +0.000 OA
ATOM     13  C   UNL     1       4.190   3.206  17.132  0.00  0.00    +0.000 C 
ATOM     14  C   UNL     1       3.774   2.654  18.502  0.00  0.00    +0.000 C 
BRANCH   7  16
ATOM     15  C   UNL     1       0.661   2.324  18.800  0.00  0.00    +0.000 C 
ATOM     16  C   UNL     1       1.439   3.633  18.698  0.00  0.00    +0.000 C 
ENDBRANCH   7  16
BRANCH   7  17
ATOM     17  C   UNL     1       2.826   3.131  20.795  0.00  0.00    +0.000 C 
BRANCH  17  18
ATOM     18  O   UNL     1       2.225   4.084  21.660  0.00  0.00    +0.000 OA
ATOM     19  H   UNL     1       1.262   4.039  21.533  0.00  0.00    +0.000 HD
ENDBRANCH  17  18
ENDBRANCH   7  17
ENDBRANCH   1  11
BRANCH   3  20
ATOM     20  C   UNL     1       8.852   8.499  18.994  0.00  0.00    +0.000 C 
BRANCH  20  21
ATOM     21  O   UNL     1       8.646   9.835  18.544  0.00  0.00    +0.000 OA
BRANCH  21  22
ATOM     22  C   UNL     1       9.582  10.760  18.929  0.00  0.00    +0.000 A 
ATOM     23  C   UNL     1      10.338  11.295  17.879  0.00  0.00    +0.000 A 
ATOM     24  C   UNL     1      11.331  12.248  18.126  0.00  0.00    +0.000 A 
ATOM     25  C   UNL     1      11.580  12.674  19.429  0.00  0.00    +0.000 A 
ATOM     26  C   UNL     1      10.834  12.151  20.482  0.00  0.00    +0.000 A 
ATOM     27  C   UNL     1       9.843  11.202  20.228  0.00  0.00    +0.000 A 
ATOM     28  F   UNL     1       9.150  10.740  21.279  0.00  0.00    +0.000 F 
ENDBRANCH  21  22
ENDBRANCH  20  21
ENDBRANCH   3  20
TORSDOF 7
ENDMDL
MODEL 6
REMARK VINA RESULT:      -8.0      1.654      1.800
REMARK  Name = 
REMARK  8 active torsions:
REMARK  status: ('A' for Active; 'I' for Inactive)
REMARK    1  A    between atoms: C_1  and  C_2
REMARK    2  A    between atoms: C_2  and  C_3
REMARK    3  A    between atoms: C_3  and  C_4
REMARK    4  A    between atoms: C_4  and  O_5
REMARK    5  A    between atoms: C_9  and  C_11
REMARK    6  A    between atoms: C_13  and  C_14
REMARK    7  A    between atoms: C_14  and  O_15
REMARK    8  A    between atoms: O_15  and  C_16
REMARK                            x       y       z     vdW  Elec       q    Type
REMARK                         _______ _______ _______ _____ _____    ______ ____
ROOT
ATOM      1  C   UNL     1       7.515   6.508  17.779  0.00  0.00    +0.000 A 
ATOM      2  C   UNL     1       7.539   7.799  17.179  0.00  0.00    +0.000 A 
ATOM      3  C   UNL     1       8.257   8.599  18.042  0.00  0.00    +0.000 A 
ATOM      4  N   UNL     1       8.634   7.780  19.064  0.00  0.00    +0.000 N 
ATOM      5  N   UNL     1       8.280   6.503  18.891  0.00  0.00    +0.000 NA
ATOM      6  H   UNL     1       9.144   8.026  19.907  0.00  0.00    +0.000 HD
ENDROOT
BRANCH   1  11
ATOM      7  C   UNL     1       3.182   4.371  19.179  0.00  0.00    +0.000 C 
ATOM      8  C   UNL     1       3.957   5.706  19.350  0.00  0.00    +0.000 C 
ATOM      9  C   UNL     1       4.555   6.198  18.035  0.00  0.00    +0.000 C 
ATOM     10  N   UNL     1       5.440   5.174  17.487  0.00  0.00    +0.000 N 
ATOM     11  C   UNL     1       6.817   5.311  17.252  0.00  0.00    +0.000 C 
ATOM     12  O   UNL     1       7.445   4.476  16.601  0.00  0.00    +0.000 OA
ATOM     13  C   UNL     1       4.774   3.915  17.180  0.00  0.00    +0.000 C 
ATOM     14  C   UNL     1       4.102   3.348  18.437  0.00  0.00    +0.000 C 
BRANCH   7  16
ATOM     15  C   UNL     1       1.538   3.442  17.369  0.00  0.00    +0.000 C 
ATOM     16  C   UNL     1       1.873   4.562  18.350  0.00  0.00    +0.000 C 
ENDBRANCH   7  16
BRANCH   7  17
ATOM     17  C   UNL     1       2.868   3.815  20.592  0.00  0.00    +0.000 C 
BRANCH  17  18
ATOM     18  O   UNL     1       2.420   4.833  21.476  0.00  0.00    +0.000 OA
ATOM     19  H   UNL     1       1.448   4.793  21.510  0.00  0.00    +0.000 HD
ENDBRANCH  17  18
ENDBRANCH   7  17
ENDBRANCH   1  11
BRANCH   3  20
ATOM     20  C   UNL     1       8.635  10.033  18.018  0.00  0.00    +0.000 C 
BRANCH  20  21
ATOM     21  O   UNL     1       9.532  10.231  19.107  0.00  0.00    +0.000 OA
BRANCH  21  22
ATOM     22  C   UNL     1      10.351  11.327  19.031  0.00  0.00    +0.000 A 
ATOM     23  C   UNL     1      10.720  11.690  17.731  0.00  0.00    +0.000 A 
ATOM     24  C   UNL     1      11.556  12.788  17.504  0.00  0.00    +0.000 A 
ATOM     25  C   UNL     1      12.034  13.534  18.580  0.00  0.00    +0.000 A 
ATOM     26  C   UNL     1      11.673  13.185  19.878  0.00  0.00    +0.000 A 
ATOM     27  C   UNL     1      10.837  12.090  20.097  0.00  0.00    +0.000 A 
ATOM     28  F   UNL     1      10.515  11.806  21.367  0.00  0.00    +0.000 F 
ENDBRANCH  21  22
ENDBRANCH  20  21
ENDBRANCH   3  20
TORSDOF 7
ENDMDL
MODEL 7
REMARK VINA RESULT:      -7.8      1.920      2.258
REMARK  Name = 
REMARK  8 active torsions:
REMARK  status: ('A' for Active; 'I' for Inactive)
REMARK    1  A    between atoms: C_1  and  C_2
REMARK    2  A    between atoms: C_2  and  C_3
REMARK    3  A    between atoms: C_3  and  C_4
REMARK    4  A    between atoms: C_4  and  O_5
REMARK    5  A    between atoms: C_9  and  C_11
REMARK    6  A    between atoms: C_13  and  C_14
REMARK    7  A    between atoms: C_14  and  O_15
REMARK    8  A    between atoms: O_15  and  C_16
REMARK                            x       y       z     vdW  Elec       q    Type
REMARK                         _______ _______ _______ _____ _____    ______ ____
ROOT
ATOM      1  C   UNL     1       7.383   6.603  17.823  0.00  0.00    +0.000 A 
ATOM      2  C   UNL     1       8.104   7.253  18.865  0.00  0.00    +0.000 A 
ATOM      3  C   UNL     1       8.404   8.509  18.385  0.00  0.00    +0.000 A 
ATOM      4  N   UNL     1       7.854   8.560  17.139  0.00  0.00    +0.000 N 
ATOM      5  N   UNL     1       7.160   7.466  16.810  0.00  0.00    +0.000 NA
ATOM      6  H   UNL     1       7.905   9.317  16.464  0.00  0.00    +0.000 HD
ENDROOT
BRANCH   1  11
ATOM      7  C   UNL     1       2.923   4.753  19.231  0.00  0.00    +0.000 C 
ATOM      8  C   UNL     1       3.581   6.110  18.856  0.00  0.00    +0.000 C 
ATOM      9  C   UNL     1       4.465   5.998  17.618  0.00  0.00    +0.000 C 
ATOM     10  N   UNL     1       5.495   4.989  17.842  0.00  0.00    +0.000 N 
ATOM     11  C   UNL     1       6.882   5.208  17.843  0.00  0.00    +0.000 C 
ATOM     12  O   UNL     1       7.682   4.272  17.835  0.00  0.00    +0.000 OA
ATOM     13  C   UNL     1       4.974   3.650  18.086  0.00  0.00    +0.000 C 
ATOM     14  C   UNL     1       4.035   3.657  19.299  0.00  0.00    +0.000 C 
BRANCH   7  16
ATOM     15  C   UNL     1       1.218   2.949  18.408  0.00  0.00    +0.000 C 
ATOM     16  C   UNL     1       1.852   4.318  18.182  0.00  0.00    +0.000 C 
ENDBRANCH   7  16
BRANCH   7  17
ATOM     17  C   UNL     1       2.292   4.901  20.640  0.00  0.00    +0.000 C 
BRANCH  17  18
ATOM     18  O   UNL     1       1.970   6.251  20.940  0.00  0.00    +0.000 OA
ATOM     19  H   UNL     1       2.770   6.788  20.802  0.00  0.00    +0.000 HD
ENDBRANCH  17  18
ENDBRANCH   7  17
ENDBRANCH   1  11
BRANCH   3  20
ATOM     20  C   UNL     1       9.139   9.664  18.956  0.00  0.00    +0.000 C 
BRANCH  20  21
ATOM     21  O   UNL     1       9.438  10.530  17.864  0.00  0.00    +0.000 OA
BRANCH  21  22
ATOM     22  C   UNL     1       9.868  11.791  18.186  0.00  0.00    +0.000 A 
ATOM     23  C   UNL     1       8.983  12.816  17.833  0.00  0.00    +0.000 A 
ATOM     24  C   UNL     1       9.294  14.153  18.099  0.00  0.00    +0.000 A 
ATOM     25  C   UNL     1      10.498  14.479  18.720  0.00  0.00    +0.000 A 
ATOM     26  C   UNL     1      11.387  13.469  19.077  0.00  0.00    +0.000 A 
ATOM     27  C   UNL     1      11.069  12.137  18.811  0.00  0.00    +0.000 A 
ATOM     28  F   UNL     1      11.959  11.206  19.186  0.00  0.00    +0.000 F 
ENDBRANCH  21  22
ENDBRANCH  20  21
ENDBRANCH   3  20
TORSDOF 7
ENDMDL
MODEL 8
REMARK VINA RESULT:      -7.8      1.490      1.638
REMARK  Name = 
REMARK  8 active torsions:
REMARK  status: ('A' for Active; 'I' for Inactive)
REMARK    1  A    between atoms: C_1  and  C_2
REMARK    2  A    between atoms: C_2  and  C_3
REMARK    3  A    between atoms: C_3  and  C_4
REMARK    4  A    between atoms: C_4  and  O_5
REMARK    5  A    between atoms: C_9  and  C_11
REMARK    6  A    between atoms: C_13  and  C_14
REMARK    7  A    between atoms: C_14  and  O_15
REMARK    8  A    between atoms: O_15  and  C_16
REMARK                            x       y       z     vdW  Elec       q    Type
REMARK                         _______ _______ _______ _____ _____    ______ ____
ROOT
ATOM      1  C   UNL     1       7.014   6.375  17.496  0.00  0.00    +0.000 A 
ATOM      2  C   UNL     1       7.862   6.813  18.553  0.00  0.00    +0.000 A 
ATOM      3  C   UNL     1       8.148   8.133  18.281  0.00  0.00    +0.000 A 
ATOM      4  N   UNL     1       7.469   8.420  17.134  0.00  0.00    +0.000 N 
ATOM      5  N   UNL     1       6.711   7.413  16.690  0.00  0.00    +0.000 NA
ATOM      6  H   UNL     1       7.471   9.288  16.607  0.00  0.00    +0.000 HD
ENDROOT
BRANCH   1  11
ATOM      7  C   UNL     1       2.864   4.227  19.357  0.00  0.00    +0.000 C 
ATOM      8  C   UNL     1       3.483   5.638  19.158  0.00  0.00    +0.000 C 
ATOM      9  C   UNL     1       4.093   5.808  17.770  0.00  0.00    +0.000 C 
ATOM     10  N   UNL     1       5.109   4.782  17.553  0.00  0.00    +0.000 N 
ATOM     11  C   UNL     1       6.475   5.006  17.317  0.00  0.00    +0.000 C 
ATOM     12  O   UNL     1       7.220   4.100  16.942  0.00  0.00    +0.000 OA
ATOM     13  C   UNL     1       4.597   3.418  17.603  0.00  0.00    +0.000 C 
ATOM     14  C   UNL     1       3.924   3.151  18.955  0.00  0.00    +0.000 C 
BRANCH   7  16
ATOM     15  C   UNL     1       0.827   2.721  18.706  0.00  0.00    +0.000 C 
ATOM     16  C   UNL     1       1.587   4.025  18.482  0.00  0.00    +0.000 C 
ENDBRANCH   7  16
BRANCH   7  17
ATOM     17  C   UNL     1       2.537   4.057  20.863  0.00  0.00    +0.000 C 
BRANCH  17  18
ATOM     18  O   UNL     1       2.934   2.784  21.353  0.00  0.00    +0.000 OA
ATOM     19  H   UNL     1       3.490   2.926  22.138  0.00  0.00    +0.000 HD
ENDBRANCH  17  18
ENDBRANCH   7  17
ENDBRANCH   1  11
BRANCH   3  20
ATOM     20  C   UNL     1       8.974   9.155  18.968  0.00  0.00    +0.000 C 
BRANCH  20  21
ATOM     21  O   UNL     1       8.795  10.370  18.246  0.00  0.00    +0.000 OA
BRANCH  21  22
ATOM     22  C   UNL     1       9.600  11.419  18.608  0.00  0.00    +0.000 A 
ATOM     23  C   UNL     1      10.565  11.107  19.573  0.00  0.00    +0.000 A 
ATOM     24  C   UNL     1      11.453  12.082  20.037  0.00  0.00    +0.000 A 
ATOM     25  C   UNL     1      11.383  13.383  19.541  0.00  0.00    +0.000 A 
ATOM     26  C   UNL     1      10.429  13.705  18.580  0.00  0.00    +0.000 A 
ATOM     27  C   UNL     1       9.548  12.727  18.119  0.00  0.00    +0.000 A 
ATOM     28  F   UNL     1       8.656  13.092  17.186  0.00  0.00    +0.000 F 
ENDBRANCH  21  22
ENDBRANCH  20  21
ENDBRANCH   3  20
TORSDOF 7
ENDMDL
MODEL 9
REMARK VINA RESULT:      -7.8      5.330      7.528
REMARK  Name = 
REMARK  8 active torsions:
REMARK  status: ('A' for Active; 'I' for Inactive)
REMARK    1  A    between atoms: C_1  and  C_2
REMARK    2  A    between atoms: C_2  and  C_3
REMARK    3  A    between atoms: C_3  and  C_4
REMARK    4  A    between atoms: C_4  and  O_5
REMARK    5  A    between atoms: C_9  and  C_11
REMARK    6  A    between atoms: C_13  and  C_14
REMARK    7  A    between atoms: C_14  and  O_15
REMARK    8  A    between atoms: O_15  and  C_16
REMARK                            x       y       z     vdW  Elec       q    Type
REMARK                         _______ _______ _______ _____ _____    ______ ____
ROOT
ATOM      1  C   UNL     1       5.486   6.138  16.828  0.00  0.00    +0.000 A 
ATOM      2  C   UNL     1       5.434   5.420  15.599  0.00  0.00    +0.000 A 
ATOM      3  C   UNL     1       6.728   5.396  15.125  0.00  0.00    +0.000 A 
ATOM      4  N   UNL     1       7.468   6.054  16.062  0.00  0.00    +0.000 N 
ATOM      5  N   UNL     1       6.767   6.431  17.135  0.00  0.00    +0.000 NA
ATOM      6  H   UNL     1       8.460   6.270  16.036  0.00  0.00    +0.000 HD
ENDROOT
BRANCH   1  11
ATOM      7  C   UNL     1       2.454   3.165  19.522  0.00  0.00    +0.000 C 
ATOM      8  C   UNL     1       3.828   3.117  18.800  0.00  0.00    +0.000 C 
ATOM      9  C   UNL     1       4.671   4.357  19.083  0.00  0.00    +0.000 C 
ATOM     10  N   UNL     1       3.935   5.551  18.677  0.00  0.00    +0.000 N 
ATOM     11  C   UNL     1       4.332   6.473  17.695  0.00  0.00    +0.000 C 
ATOM     12  O   UNL     1       3.760   7.555  17.560  0.00  0.00    +0.000 OA
ATOM     13  C   UNL     1       2.680   5.747  19.390  0.00  0.00    +0.000 C 
ATOM     14  C   UNL     1       1.765   4.530  19.201  0.00  0.00    +0.000 C 
BRANCH   7  16
ATOM     15  C   UNL     1       1.358   2.585  21.825  0.00  0.00    +0.000 C 
ATOM     16  C   UNL     1       2.607   3.032  21.070  0.00  0.00    +0.000 C 
ENDBRANCH   7  16
BRANCH   7  17
ATOM     17  C   UNL     1       1.573   2.024  18.952  0.00  0.00    +0.000 C 
BRANCH  17  18
ATOM     18  O   UNL     1       1.941   1.681  17.623  0.00  0.00    +0.000 OA
ATOM     19  H   UNL     1       2.897   1.832  17.529  0.00  0.00    +0.000 HD
ENDBRANCH  17  18
ENDBRANCH   7  17
ENDBRANCH   1  11
BRANCH   3  20
ATOM     20  C   UNL     1       7.351   4.828  13.905  0.00  0.00    +0.000 C 
BRANCH  20  21
ATOM     21  O   UNL     1       6.313   4.724  12.934  0.00  0.00    +0.000 OA
BRANCH  21  22
ATOM     22  C   UNL     1       6.247   3.547  12.235  0.00  0.00    +0.000 A 
ATOM     23  C   UNL     1       7.490   2.984  11.923  0.00  0.00    +0.000 A 
ATOM     24  C   UNL     1       7.573   1.784  11.210  0.00  0.00    +0.000 A 
ATOM     25  C   UNL     1       6.411   1.134  10.799  0.00  0.00    +0.000 A 
ATOM     26  C   UNL     1       5.168   1.683  11.105  0.00  0.00    +0.000 A 
ATOM     27  C   UNL     1       5.092   2.879  11.818  0.00  0.00    +0.000 A 
ATOM     28  F   UNL     1       3.869   3.355  12.092  0.00  0.00    +0.000 F 
ENDBRANCH  21  22
ENDBRANCH  20  21
ENDBRANCH   3  20
TORSDOF 7
ENDMDL
