MODEL 1
REMARK VINA RESULT:      -6.7      0.000      0.000
REMARK  Name = 
REMARK  8 active torsions:
REMARK  status: ('A' for Active; 'I' for Inactive)
REMARK    1  A    between atoms: C_1  and  C_2
REMARK    2  A    between atoms: C_3  and  C_4
REMARK    3  A    between atoms: N_6  and  C_7
REMARK    4  A    between atoms: N_6  and  C_17
REMARK    5  A    between atoms: N_14  and  C_15
REMARK    6  A    between atoms: C_17  and  C_18
REMARK    7  A    between atoms: N_20  and  C_21
REMARK    8  A    between atoms: C_21  and  C_22
REMARK                            x       y       z     vdW  Elec       q    Type
REMARK                         _______ _______ _______ _____ _____    ______ ____
ROOT
ATOM      1  C   UNL     1      -0.183  11.939  20.211  0.00  0.00    +0.000 C 
ATOM      2  C   UNL     1       1.354  11.727  20.085  0.00  0.00    +0.000 C 
ATOM      3  C   UNL     1       1.946  12.122  18.732  0.00  0.00    +0.000 C 
ATOM      4  C   UNL     1       1.486  13.500  18.304  0.00  0.00    +0.000 C 
ATOM      5  O   UNL     1       0.065  13.578  18.339  0.00  0.00    +0.000 OA
ATOM      6  C   UNL     1      -0.452  13.384  19.666  0.00  0.00    +0.000 C 
ENDROOT
BRANCH   1   7
ATOM      7  C   UNL     1      -1.027  11.008  19.261  0.00  0.00    +0.000 C 
ATOM      8  O   UNL     1      -0.537  10.011  18.716  0.00  0.00    +0.000 OA
ATOM      9  N   UNL     1      -2.337  11.270  18.962  0.00  0.00    +0.000 N 
ATOM     10  H   UNL     1      -2.747  10.585  18.339  0.00  0.00    +0.000 HD
BRANCH   9  11
ATOM     11  C   UNL     1      -3.169  12.411  19.285  0.00  0.00    +0.000 C 
BRANCH  11  12
ATOM     12  C   UNL     1      -4.648  12.139  19.281  0.00  0.00    +0.000 A 
ATOM     13  C   UNL     1      -5.157  11.243  18.326  0.00  0.00    +0.000 A 
ATOM     14  C   UNL     1      -6.512  10.919  18.308  0.00  0.00    +0.000 A 
ATOM     15  C   UNL     1      -7.369  11.472  19.256  0.00  0.00    +0.000 A 
ATOM     16  C   UNL     1      -6.868  12.325  20.238  0.00  0.00    +0.000 A 
ATOM     17  C   UNL     1      -5.511  12.649  20.258  0.00  0.00    +0.000 A 
ENDBRANCH  11  12
ENDBRANCH   9  11
ENDBRANCH   1   7
BRANCH   1  20
ATOM     18  C   UNL     1      -0.368  10.354  22.254  0.00  0.00    +0.000 C 
ATOM     19  O   UNL     1      -0.725  10.056  23.388  0.00  0.00    +0.000 OA
ATOM     20  N   UNL     1      -0.634  11.604  21.634  0.00  0.00    +0.000 N 
BRANCH  20  21
ATOM     21  C   UNL     1      -1.334  12.578  22.430  0.00  0.00    +0.000 A 
ATOM     22  C   UNL     1      -0.683  13.691  22.964  0.00  0.00    +0.000 A 
ATOM     23  C   UNL     1      -1.379  14.696  23.653  0.00  0.00    +0.000 A 
ATOM     24  C   UNL     1      -2.768  14.557  23.771  0.00  0.00    +0.000 A 
ATOM     25  C   UNL     1      -3.449  13.453  23.275  0.00  0.00    +0.000 A 
ATOM     26  C   UNL     1      -4.809  13.715  23.548  0.00  0.00    +0.000 A 
ATOM     27  N   UNL     1      -4.989  14.868  24.195  0.00  0.00    +0.000 NA
ATOM     28  N   UNL     1      -3.734  15.332  24.364  0.00  0.00    +0.000 N 
ATOM     29  C   UNL     1      -3.513  16.516  25.159  0.00  0.00    +0.000 C 
ATOM     30  C   UNL     1      -2.721  12.424  22.652  0.00  0.00    +0.000 A 
ENDBRANCH  20  21
BRANCH  18  33
ATOM     31  C   UNL     1       1.859   7.357  20.543  0.00  0.00    +0.000 C 
ATOM     32  C   UNL     1       1.038   8.464  21.029  0.00  0.00    +0.000 C 
ATOM     33  C   UNL     1       0.399   9.349  21.550  0.00  0.00    +0.000 C 
ENDBRANCH  18  33
ENDBRANCH   1  20
TORSDOF 6
ENDMDL
MODEL 2
REMARK VINA RESULT:      -6.6      1.643      2.375
REMARK  Name = 
REMARK  8 active torsions:
REMARK  status: ('A' for Active; 'I' for Inactive)
REMARK    1  A    between atoms: C_1  and  C_2
REMARK    2  A    between atoms: C_3  and  C_4
REMARK    3  A    between atoms: N_6  and  C_7
REMARK    4  A    between atoms: N_6  and  C_17
REMARK    5  A    between atoms: N_14  and  C_15
REMARK    6  A    between atoms: C_17  and  C_18
REMARK    7  A    between atoms: N_20  and  C_21
REMARK    8  A    between atoms: C_21  and  C_22
REMARK                            x       y       z     vdW  Elec       q    Type
REMARK                         _______ _______ _______ _____ _____    ______ ____
ROOT
ATOM      1  C   UNL     1       0.044  11.958  20.408  0.00  0.00    +0.000 C 
ATOM      2  C   UNL     1       0.223  10.672  19.549  0.00  0.00    +0.000 C 
ATOM      3  C   UNL     1       0.940  10.887  18.215  0.00  0.00    +0.000 C 
ATOM      4  C   UNL     1       2.217  11.683  18.392  0.00  0.00    +0.000 C 
ATOM      5  O   UNL     1       1.950  12.895  19.088  0.00  0.00    +0.000 OA
ATOM      6  C   UNL     1       1.448  12.655  20.414  0.00  0.00    +0.000 C 
ENDROOT
BRANCH   1   7
ATOM      7  C   UNL     1      -0.913  13.025  19.753  0.00  0.00    +0.000 C 
ATOM      8  O   UNL     1      -0.670  14.237  19.798  0.00  0.00    +0.000 OA
ATOM      9  N   UNL     1      -2.077  12.671  19.129  0.00  0.00    +0.000 N 
ATOM     10  H   UNL     1      -2.586  13.464  18.758  0.00  0.00    +0.000 HD
BRANCH   9  11
ATOM     11  C   UNL     1      -2.743  11.388  19.028  0.00  0.00    +0.000 C 
BRANCH  11  12
ATOM     12  C   UNL     1      -3.014  10.922  17.625  0.00  0.00    +0.000 A 
ATOM     13  C   UNL     1      -4.038  11.552  16.900  0.00  0.00    +0.000 A 
ATOM     14  C   UNL     1      -4.299  11.191  15.580  0.00  0.00    +0.000 A 
ATOM     15  C   UNL     1      -3.525  10.210  14.964  0.00  0.00    +0.000 A 
ATOM     16  C   UNL     1      -2.475   9.611  15.657  0.00  0.00    +0.000 A 
ATOM     17  C   UNL     1      -2.212   9.973  16.978  0.00  0.00    +0.000 A 
ENDBRANCH  11  12
ENDBRANCH   9  11
ENDBRANCH   1   7
BRANCH   1  20
ATOM     18  C   UNL     1      -0.416  10.328  22.371  0.00  0.00    +0.000 C 
ATOM     19  O   UNL     1      -0.921  10.007  23.441  0.00  0.00    +0.000 OA
ATOM     20  N   UNL     1      -0.592  11.594  21.751  0.00  0.00    +0.000 N 
BRANCH  20  21
ATOM     21  C   UNL     1      -1.386  12.555  22.471  0.00  0.00    +0.000 A 
ATOM     22  C   UNL     1      -0.806  13.662  23.095  0.00  0.00    +0.000 A 
ATOM     23  C   UNL     1      -1.584  14.656  23.710  0.00  0.00    +0.000 A 
ATOM     24  C   UNL     1      -2.976  14.512  23.659  0.00  0.00    +0.000 A 
ATOM     25  C   UNL     1      -3.589  13.414  23.070  0.00  0.00    +0.000 A 
ATOM     26  C   UNL     1      -4.973  13.670  23.183  0.00  0.00    +0.000 A 
ATOM     27  N   UNL     1      -5.233  14.814  23.819  0.00  0.00    +0.000 NA
ATOM     28  N   UNL     1      -4.009  15.278  24.143  0.00  0.00    +0.000 N 
ATOM     29  C   UNL     1      -3.889  16.450  24.976  0.00  0.00    +0.000 C 
ATOM     30  C   UNL     1      -2.788  12.396  22.525  0.00  0.00    +0.000 A 
ENDBRANCH  20  21
BRANCH  18  33
ATOM     31  C   UNL     1       1.811   7.277  20.760  0.00  0.00    +0.000 C 
ATOM     32  C   UNL     1       1.085   8.445  21.253  0.00  0.00    +0.000 C 
ATOM     33  C   UNL     1       0.431   9.333  21.749  0.00  0.00    +0.000 C 
ENDBRANCH  18  33
ENDBRANCH   1  20
TORSDOF 6
ENDMDL
MODEL 3
REMARK VINA RESULT:      -6.6      0.978      1.327
REMARK  Name = 
REMARK  8 active torsions:
REMARK  status: ('A' for Active; 'I' for Inactive)
REMARK    1  A    between atoms: C_1  and  C_2
REMARK    2  A    between atoms: C_3  and  C_4
REMARK    3  A    between atoms: N_6  and  C_7
REMARK    4  A    between atoms: N_6  and  C_17
REMARK    5  A    between atoms: N_14  and  C_15
REMARK    6  A    between atoms: C_17  and  C_18
REMARK    7  A    between atoms: N_20  and  C_21
REMARK    8  A    between atoms: C_21  and  C_22
REMARK                            x       y       z     vdW  Elec       q    Type
REMARK                         _______ _______ _______ _____ _____    ______ ____
ROOT
ATOM      1  C   UNL     1      -0.119  11.752  20.408  0.00  0.00    +0.000 C 
ATOM      2  C   UNL     1      -0.277  10.467  19.545  0.00  0.00    +0.000 C 
ATOM      3  C   UNL     1       0.298  10.570  18.132  0.00  0.00    +0.000 C 
ATOM      4  C   UNL     1       1.708  11.124  18.144  0.00  0.00    +0.000 C 
ATOM      5  O   UNL     1       1.747  12.355  18.858  0.00  0.00    +0.000 OA
ATOM      6  C   UNL     1       1.376  12.190  20.237  0.00  0.00    +0.000 C 
ENDROOT
BRANCH   1   7
ATOM      7  C   UNL     1      -0.944  12.980  19.867  0.00  0.00    +0.000 C 
ATOM      8  O   UNL     1      -0.567  14.147  20.033  0.00  0.00    +0.000 OA
ATOM      9  N   UNL     1      -2.136  12.823  19.213  0.00  0.00    +0.000 N 
ATOM     10  H   UNL     1      -2.549  13.703  18.925  0.00  0.00    +0.000 HD
BRANCH   9  11
ATOM     11  C   UNL     1      -2.941  11.641  18.986  0.00  0.00    +0.000 C 
BRANCH  11  12
ATOM     12  C   UNL     1      -4.423  11.883  18.933  0.00  0.00    +0.000 A 
ATOM     13  C   UNL     1      -5.222  10.971  18.224  0.00  0.00    +0.000 A 
ATOM     14  C   UNL     1      -6.606  11.122  18.183  0.00  0.00    +0.000 A 
ATOM     15  C   UNL     1      -7.208  12.176  18.865  0.00  0.00    +0.000 A 
ATOM     16  C   UNL     1      -6.432  13.060  19.611  0.00  0.00    +0.000 A 
ATOM     17  C   UNL     1      -5.046  12.909  19.655  0.00  0.00    +0.000 A 
ENDBRANCH  11  12
ENDBRANCH   9  11
ENDBRANCH   1   7
BRANCH   1  20
ATOM     18  C   UNL     1      -0.363  10.293  22.537  0.00  0.00    +0.000 C 
ATOM     19  O   UNL     1      -0.775  10.052  23.666  0.00  0.00    +0.000 OA
ATOM     20  N   UNL     1      -0.640  11.488  21.823  0.00  0.00    +0.000 N 
BRANCH  20  21
ATOM     21  C   UNL     1      -1.425  12.479  22.512  0.00  0.00    +0.000 A 
ATOM     22  C   UNL     1      -0.837  13.609  23.084  0.00  0.00    +0.000 A 
ATOM     23  C   UNL     1      -1.606  14.628  23.667  0.00  0.00    +0.000 A 
ATOM     24  C   UNL     1      -3.000  14.485  23.637  0.00  0.00    +0.000 A 
ATOM     25  C   UNL     1      -3.620  13.366  23.099  0.00  0.00    +0.000 A 
ATOM     26  C   UNL     1      -5.003  13.629  23.215  0.00  0.00    +0.000 A 
ATOM     27  N   UNL     1      -5.254  14.798  23.808  0.00  0.00    +0.000 NA
ATOM     28  N   UNL     1      -4.026  15.272  24.100  0.00  0.00    +0.000 N 
ATOM     29  C   UNL     1      -3.895  16.476  24.884  0.00  0.00    +0.000 C 
ATOM     30  C   UNL     1      -2.827  12.325  22.586  0.00  0.00    +0.000 A 
ENDBRANCH  20  21
BRANCH  18  33
ATOM     31  C   UNL     1       1.769   7.275  20.744  0.00  0.00    +0.000 C 
ATOM     32  C   UNL     1       1.127   8.407  21.408  0.00  0.00    +0.000 C 
ATOM     33  C   UNL     1       0.484   9.279  21.945  0.00  0.00    +0.000 C 
ENDBRANCH  18  33
ENDBRANCH   1  20
TORSDOF 6
ENDMDL
MODEL 4
REMARK VINA RESULT:      -6.5      2.000      4.196
REMARK  Name = 
REMARK  8 active torsions:
REMARK  status: ('A' for Active; 'I' for Inactive)
REMARK    1  A    between atoms: C_1  and  C_2
REMARK    2  A    between atoms: C_3  and  C_4
REMARK    3  A    between atoms: N_6  and  C_7
REMARK    4  A    between atoms: N_6  and  C_17
REMARK    5  A    between atoms: N_14  and  C_15
REMARK    6  A    between atoms: C_17  and  C_18
REMARK    7  A    between atoms: N_20  and  C_21
REMARK    8  A    between atoms: C_21  and  C_22
REMARK                            x       y       z     vdW  Elec       q    Type
REMARK                         _______ _______ _______ _____ _____    ______ ____
ROOT
ATOM      1  C   UNL     1      -0.802  11.268  20.030  0.00  0.00    +0.000 C 
ATOM      2  C   UNL     1      -2.053  12.059  19.550  0.00  0.00    +0.000 C 
ATOM      3  C   UNL     1      -2.266  12.065  18.035  0.00  0.00    +0.000 C 
ATOM      4  C   UNL     1      -2.169  10.669  17.455  0.00  0.00    +0.000 C 
ATOM      5  O   UNL     1      -0.948  10.054  17.849  0.00  0.00    +0.000 OA
ATOM      6  C   UNL     1      -0.860   9.896  19.275  0.00  0.00    +0.000 C 
ENDROOT
BRANCH   1   7
ATOM      7  C   UNL     1       0.562  11.904  19.565  0.00  0.00    +0.000 C 
ATOM      8  O   UNL     1       1.582  11.223  19.406  0.00  0.00    +0.000 OA
ATOM      9  N   UNL     1       0.699  13.248  19.345  0.00  0.00    +0.000 N 
ATOM     10  H   UNL     1       1.633  13.508  19.052  0.00  0.00    +0.000 HD
BRANCH   9  11
ATOM     11  C   UNL     1      -0.219  14.343  19.580  0.00  0.00    +0.000 C 
BRANCH  11  12
ATOM     12  C   UNL     1       0.186  15.655  18.967  0.00  0.00    +0.000 A 
ATOM     13  C   UNL     1       1.540  15.850  18.650  0.00  0.00    +0.000 A 
ATOM     14  C   UNL     1       1.962  17.028  18.037  0.00  0.00    +0.000 A 
ATOM     15  C   UNL     1       1.032  18.014  17.718  0.00  0.00    +0.000 A 
ATOM     16  C   UNL     1      -0.320  17.812  17.985  0.00  0.00    +0.000 A 
ATOM     17  C   UNL     1      -0.744  16.633  18.597  0.00  0.00    +0.000 A 
ENDBRANCH  11  12
ENDBRANCH   9  11
ENDBRANCH   1   7
BRANCH   1  20
ATOM     18  C   UNL     1      -0.133  10.219  22.304  0.00  0.00    +0.000 C 
ATOM     19  O   UNL     1      -0.091  10.178  23.528  0.00  0.00    +0.000 OA
ATOM     20  N   UNL     1      -0.758  11.254  21.559  0.00  0.00    +0.000 N 
BRANCH  20  21
ATOM     21  C   UNL     1      -1.337  12.331  22.319  0.00  0.00    +0.000 A 
ATOM     22  C   UNL     1      -0.582  13.439  22.708  0.00  0.00    +0.000 A 
ATOM     23  C   UNL     1      -1.163  14.538  23.360  0.00  0.00    +0.000 A 
ATOM     24  C   UNL     1      -2.544  14.498  23.591  0.00  0.00    +0.000 A 
ATOM     25  C   UNL     1      -3.324  13.403  23.241  0.00  0.00    +0.000 A 
ATOM     26  C   UNL     1      -4.642  13.773  23.590  0.00  0.00    +0.000 A 
ATOM     27  N   UNL     1      -4.704  14.984  24.149  0.00  0.00    +0.000 NA
ATOM     28  N   UNL     1      -3.415  15.378  24.185  0.00  0.00    +0.000 N 
ATOM     29  C   UNL     1      -3.064  16.605  24.860  0.00  0.00    +0.000 C 
ATOM     30  C   UNL     1      -2.708  12.284  22.655  0.00  0.00    +0.000 A 
ENDBRANCH  20  21
BRANCH  18  33
ATOM     31  C   UNL     1       1.872   7.046  20.636  0.00  0.00    +0.000 C 
ATOM     32  C   UNL     1       1.111   8.201  21.109  0.00  0.00    +0.000 C 
ATOM     33  C   UNL     1       0.540   9.140  21.613  0.00  0.00    +0.000 C 
ENDBRANCH  18  33
ENDBRANCH   1  20
TORSDOF 6
ENDMDL
MODEL 5
REMARK VINA RESULT:      -6.5      1.104      2.109
REMARK  Name = 
REMARK  8 active torsions:
REMARK  status: ('A' for Active; 'I' for Inactive)
REMARK    1  A    between atoms: C_1  and  C_2
REMARK    2  A    between atoms: C_3  and  C_4
REMARK    3  A    between atoms: N_6  and  C_7
REMARK    4  A    between atoms: N_6  and  C_17
REMARK    5  A    between atoms: N_14  and  C_15
REMARK    6  A    between atoms: C_17  and  C_18
REMARK    7  A    between atoms: N_20  and  C_21
REMARK    8  A    between atoms: C_21  and  C_22
REMARK                            x       y       z     vdW  Elec       q    Type
REMARK                         _______ _______ _______ _____ _____    ______ ____
ROOT
ATOM      1  C   UNL     1      -0.220  11.511  20.182  0.00  0.00    +0.000 C 
ATOM      2  C   UNL     1      -0.524  10.169  19.456  0.00  0.00    +0.000 C 
ATOM      3  C   UNL     1      -0.004  10.085  18.020  0.00  0.00    +0.000 C 
ATOM      4  C   UNL     1       1.448  10.510  17.928  0.00  0.00    +0.000 C 
ATOM      5  O   UNL     1       1.623  11.795  18.515  0.00  0.00    +0.000 OA
ATOM      6  C   UNL     1       1.299  11.796  19.916  0.00  0.00    +0.000 C 
ENDROOT
BRANCH   1   7
ATOM      7  C   UNL     1      -0.959  12.751  19.551  0.00  0.00    +0.000 C 
ATOM      8  O   UNL     1      -0.477  13.890  19.590  0.00  0.00    +0.000 OA
ATOM      9  N   UNL     1      -2.186  12.640  18.956  0.00  0.00    +0.000 N 
ATOM     10  H   UNL     1      -2.535  13.521  18.598  0.00  0.00    +0.000 HD
BRANCH   9  11
ATOM     11  C   UNL     1      -3.097  11.517  18.873  0.00  0.00    +0.000 C 
BRANCH  11  12
ATOM     12  C   UNL     1      -4.537  11.884  18.640  0.00  0.00    +0.000 A 
ATOM     13  C   UNL     1      -5.317  12.252  19.749  0.00  0.00    +0.000 A 
ATOM     14  C   UNL     1      -6.643  12.646  19.584  0.00  0.00    +0.000 A 
ATOM     15  C   UNL     1      -7.197  12.695  18.307  0.00  0.00    +0.000 A 
ATOM     16  C   UNL     1      -6.419  12.378  17.195  0.00  0.00    +0.000 A 
ATOM     17  C   UNL     1      -5.091  11.985  17.358  0.00  0.00    +0.000 A 
ENDBRANCH  11  12
ENDBRANCH   9  11
ENDBRANCH   1   7
BRANCH   1  20
ATOM     18  C   UNL     1      -0.434  10.318  22.473  0.00  0.00    +0.000 C 
ATOM     19  O   UNL     1      -0.814  10.223  23.635  0.00  0.00    +0.000 OA
ATOM     20  N   UNL     1      -0.700  11.431  21.633  0.00  0.00    +0.000 N 
BRANCH  20  21
ATOM     21  C   UNL     1      -1.430  12.521  22.225  0.00  0.00    +0.000 A 
ATOM     22  C   UNL     1      -2.825  12.519  22.287  0.00  0.00    +0.000 A 
ATOM     23  C   UNL     1      -3.537  13.528  22.954  0.00  0.00    +0.000 A 
ATOM     24  C   UNL     1      -2.796  14.538  23.580  0.00  0.00    +0.000 A 
ATOM     25  C   UNL     1      -1.409  14.588  23.520  0.00  0.00    +0.000 A 
ATOM     26  C   UNL     1      -1.054  15.707  24.305  0.00  0.00    +0.000 A 
ATOM     27  N   UNL     1      -2.117  16.345  24.799  0.00  0.00    +0.000 NA
ATOM     28  N   UNL     1      -3.159  15.648  24.303  0.00  0.00    +0.000 N 
ATOM     29  C   UNL     1      -4.503  16.130  24.513  0.00  0.00    +0.000 C 
ATOM     30  C   UNL     1      -0.721  13.607  22.786  0.00  0.00    +0.000 A 
ENDBRANCH  20  21
BRANCH  18  33
ATOM     31  C   UNL     1       1.683   7.234  20.777  0.00  0.00    +0.000 C 
ATOM     32  C   UNL     1       1.005   8.315  21.489  0.00  0.00    +0.000 C 
ATOM     33  C   UNL     1       0.361   9.214  21.978  0.00  0.00    +0.000 C 
ENDBRANCH  18  33
ENDBRANCH   1  20
TORSDOF 6
ENDMDL
MODEL 6
REMARK VINA RESULT:      -6.4      0.614      1.378
REMARK  Name = 
REMARK  8 active torsions:
REMARK  status: ('A' for Active; 'I' for Inactive)
REMARK    1  A    between atoms: C_1  and  C_2
REMARK    2  A    between atoms: C_3  and  C_4
REMARK    3  A    between atoms: N_6  and  C_7
REMARK    4  A    between atoms: N_6  and  C_17
REMARK    5  A    between atoms: N_14  and  C_15
REMARK    6  A    between atoms: C_17  and  C_18
REMARK    7  A    between atoms: N_20  and  C_21
REMARK    8  A    between atoms: C_21  and  C_22
REMARK                            x       y       z     vdW  Elec       q    Type
REMARK                         _______ _______ _______ _____ _____    ______ ____
ROOT
ATOM      1  C   UNL     1      -0.296  12.088  20.191  0.00  0.00    +0.000 C 
ATOM      2  C   UNL     1       1.244  11.872  20.127  0.00  0.00    +0.000 C 
ATOM      3  C   UNL     1       1.873  12.146  18.760  0.00  0.00    +0.000 C 
ATOM      4  C   UNL     1       1.423  13.479  18.198  0.00  0.00    +0.000 C 
ATOM      5  O   UNL     1       0.002  13.555  18.188  0.00  0.00    +0.000 OA
ATOM      6  C   UNL     1      -0.551  13.479  19.513  0.00  0.00    +0.000 C 
ENDROOT
BRANCH   1   7
ATOM      7  C   UNL     1      -1.113  11.073  19.305  0.00  0.00    +0.000 C 
ATOM      8  O   UNL     1      -0.605  10.036  18.861  0.00  0.00    +0.000 OA
ATOM      9  N   UNL     1      -2.415  11.301  18.954  0.00  0.00    +0.000 N 
ATOM     10  H   UNL     1      -2.807  10.561  18.383  0.00  0.00    +0.000 HD
BRANCH   9  11
ATOM     11  C   UNL     1      -3.260  12.460  19.157  0.00  0.00    +0.000 C 
BRANCH  11  12
ATOM     12  C   UNL     1      -4.732  12.164  19.250  0.00  0.00    +0.000 A 
ATOM     13  C   UNL     1      -5.261  11.155  18.430  0.00  0.00    +0.000 A 
ATOM     14  C   UNL     1      -6.608  10.808  18.511  0.00  0.00    +0.000 A 
ATOM     15  C   UNL     1      -7.435  11.454  19.426  0.00  0.00    +0.000 A 
ATOM     16  C   UNL     1      -6.912  12.423  20.278  0.00  0.00    +0.000 A 
ATOM     17  C   UNL     1      -5.563  12.770  20.200  0.00  0.00    +0.000 A 
ENDBRANCH  11  12
ENDBRANCH   9  11
ENDBRANCH   1   7
BRANCH   1  20
ATOM     18  C   UNL     1      -0.568  10.677  22.348  0.00  0.00    +0.000 C 
ATOM     19  O   UNL     1      -0.956  10.480  23.494  0.00  0.00    +0.000 OA
ATOM     20  N   UNL     1      -0.785  11.880  21.626  0.00  0.00    +0.000 N 
BRANCH  20  21
ATOM     21  C   UNL     1      -1.473  12.933  22.326  0.00  0.00    +0.000 A 
ATOM     22  C   UNL     1      -2.867  12.986  22.380  0.00  0.00    +0.000 A 
ATOM     23  C   UNL     1      -3.542  13.950  23.146  0.00  0.00    +0.000 A 
ATOM     24  C   UNL     1      -2.764  14.854  23.880  0.00  0.00    +0.000 A 
ATOM     25  C   UNL     1      -1.376  14.848  23.833  0.00  0.00    +0.000 A 
ATOM     26  C   UNL     1      -0.981  15.862  24.734  0.00  0.00    +0.000 A 
ATOM     27  N   UNL     1      -2.020  16.490  25.287  0.00  0.00    +0.000 NA
ATOM     28  N   UNL     1      -3.086  15.897  24.714  0.00  0.00    +0.000 N 
ATOM     29  C   UNL     1      -4.410  16.413  24.966  0.00  0.00    +0.000 C 
ATOM     30  C   UNL     1      -0.723  13.921  23.003  0.00  0.00    +0.000 A 
ENDBRANCH  20  21
BRANCH  18  33
ATOM     31  C   UNL     1       1.560   7.467  20.921  0.00  0.00    +0.000 C 
ATOM     32  C   UNL     1       0.796   8.653  21.304  0.00  0.00    +0.000 C 
ATOM     33  C   UNL     1       0.185   9.599  21.743  0.00  0.00    +0.000 C 
ENDBRANCH  18  33
ENDBRANCH   1  20
TORSDOF 6
ENDMDL
MODEL 7
REMARK VINA RESULT:      -6.3      2.514      6.231
REMARK  Name = 
REMARK  8 active torsions:
REMARK  status: ('A' for Active; 'I' for Inactive)
REMARK    1  A    between atoms: C_1  and  C_2
REMARK    2  A    between atoms: C_3  and  C_4
REMARK    3  A    between atoms: N_6  and  C_7
REMARK    4  A    between atoms: N_6  and  C_17
REMARK    5  A    between atoms: N_14  and  C_15
REMARK    6  A    between atoms: C_17  and  C_18
REMARK    7  A    between atoms: N_20  and  C_21
REMARK    8  A    between atoms: C_21  and  C_22
REMARK                            x       y       z     vdW  Elec       q    Type
REMARK                         _______ _______ _______ _____ _____    ______ ____
ROOT
ATOM      1  C   UNL     1      -2.709  13.671  22.342  0.00  0.00    +0.000 C 
ATOM      2  C   UNL     1      -3.101  14.575  23.547  0.00  0.00    +0.000 C 
ATOM      3  C   UNL     1      -4.606  14.694  23.796  0.00  0.00    +0.000 C 
ATOM      4  C   UNL     1      -5.277  13.336  23.811  0.00  0.00    +0.000 C 
ATOM      5  O   UNL     1      -4.959  12.616  22.625  0.00  0.00    +0.000 OA
ATOM      6  C   UNL     1      -3.549  12.358  22.513  0.00  0.00    +0.000 C 
ENDROOT
BRANCH   1   7
ATOM      7  C   UNL     1      -3.172  14.244  20.949  0.00  0.00    +0.000 C 
ATOM      8  O   UNL     1      -3.384  15.450  20.774  0.00  0.00    +0.000 OA
ATOM      9  N   UNL     1      -3.394  13.434  19.869  0.00  0.00    +0.000 N 
ATOM     10  H   UNL     1      -3.688  13.944  19.044  0.00  0.00    +0.000 HD
BRANCH   9  11
ATOM     11  C   UNL     1      -3.400  11.989  19.755  0.00  0.00    +0.000 C 
BRANCH  11  12
ATOM     12  C   UNL     1      -3.298  11.463  18.351  0.00  0.00    +0.000 A 
ATOM     13  C   UNL     1      -2.228  10.608  18.038  0.00  0.00    +0.000 A 
ATOM     14  C   UNL     1      -2.112  10.053  16.765  0.00  0.00    +0.000 A 
ATOM     15  C   UNL     1      -3.074  10.333  15.797  0.00  0.00    +0.000 A 
ATOM     16  C   UNL     1      -4.165  11.142  16.110  0.00  0.00    +0.000 A 
ATOM     17  C   UNL     1      -4.284  11.696  17.384  0.00  0.00    +0.000 A 
ENDBRANCH  11  12
ENDBRANCH   9  11
ENDBRANCH   1   7
BRANCH   1  20
ATOM     18  C   UNL     1      -0.312  14.638  22.541  0.00  0.00    +0.000 C 
ATOM     19  O   UNL     1       0.910  14.574  22.476  0.00  0.00    +0.000 OA
ATOM     20  N   UNL     1      -1.186  13.554  22.262  0.00  0.00    +0.000 N 
BRANCH  20  21
ATOM     21  C   UNL     1      -0.564  12.301  21.922  0.00  0.00    +0.000 A 
ATOM     22  C   UNL     1      -0.645  11.191  22.766  0.00  0.00    +0.000 A 
ATOM     23  C   UNL     1      -0.129   9.940  22.394  0.00  0.00    +0.000 A 
ATOM     24  C   UNL     1       0.457   9.832  21.126  0.00  0.00    +0.000 A 
ATOM     25  C   UNL     1       0.577  10.918  20.269  0.00  0.00    +0.000 A 
ATOM     26  C   UNL     1       1.165  10.389  19.098  0.00  0.00    +0.000 A 
ATOM     27  N   UNL     1       1.433   9.086  19.203  0.00  0.00    +0.000 NA
ATOM     28  N   UNL     1       1.043   8.785  20.458  0.00  0.00    +0.000 N 
ATOM     29  C   UNL     1       1.309   7.470  20.991  0.00  0.00    +0.000 C 
ATOM     30  C   UNL     1       0.119  12.177  20.691  0.00  0.00    +0.000 A 
ENDBRANCH  20  21
BRANCH  18  33
ATOM     31  C   UNL     1      -2.109  18.085  23.866  0.00  0.00    +0.000 C 
ATOM     32  C   UNL     1      -1.364  16.932  23.366  0.00  0.00    +0.000 C 
ATOM     33  C   UNL     1      -0.856  15.910  22.966  0.00  0.00    +0.000 C 
ENDBRANCH  18  33
ENDBRANCH   1  20
TORSDOF 6
ENDMDL
MODEL 8
REMARK VINA RESULT:      -6.3      2.074      4.454
REMARK  Name = 
REMARK  8 active torsions:
REMARK  status: ('A' for Active; 'I' for Inactive)
REMARK    1  A    between atoms: C_1  and  C_2
REMARK    2  A    between atoms: C_3  and  C_4
REMARK    3  A    between atoms: N_6  and  C_7
REMARK    4  A    between atoms: N_6  and  C_17
REMARK    5  A    between atoms: N_14  and  C_15
REMARK    6  A    between atoms: C_17  and  C_18
REMARK    7  A    between atoms: N_20  and  C_21
REMARK    8  A    between atoms: C_21  and  C_22
REMARK                            x       y       z     vdW  Elec       q    Type
REMARK                         _______ _______ _______ _____ _____    ______ ____
ROOT
ATOM      1  C   UNL     1      -0.882  11.264  19.872  0.00  0.00    +0.000 C 
ATOM      2  C   UNL     1      -2.147  12.004  19.349  0.00  0.00    +0.000 C 
ATOM      3  C   UNL     1      -2.352  11.931  17.835  0.00  0.00    +0.000 C 
ATOM      4  C   UNL     1      -2.224  10.511  17.324  0.00  0.00    +0.000 C 
ATOM      5  O   UNL     1      -0.992   9.942  17.752  0.00  0.00    +0.000 OA
ATOM      6  C   UNL     1      -0.908   9.855  19.185  0.00  0.00    +0.000 C 
ENDROOT
BRANCH   1   7
ATOM      7  C   UNL     1       0.471  11.905  19.382  0.00  0.00    +0.000 C 
ATOM      8  O   UNL     1       1.510  11.241  19.275  0.00  0.00    +0.000 OA
ATOM      9  N   UNL     1       0.577  13.236  19.081  0.00  0.00    +0.000 N 
ATOM     10  H   UNL     1       1.508  13.501  18.781  0.00  0.00    +0.000 HD
BRANCH   9  11
ATOM     11  C   UNL     1      -0.371  14.319  19.240  0.00  0.00    +0.000 C 
BRANCH  11  12
ATOM     12  C   UNL     1       0.114  15.661  18.766  0.00  0.00    +0.000 A 
ATOM     13  C   UNL     1      -0.824  16.699  18.634  0.00  0.00    +0.000 A 
ATOM     14  C   UNL     1      -0.420  17.974  18.245  0.00  0.00    +0.000 A 
ATOM     15  C   UNL     1       0.927  18.230  18.002  0.00  0.00    +0.000 A 
ATOM     16  C   UNL     1       1.872  17.222  18.175  0.00  0.00    +0.000 A 
ATOM     17  C   UNL     1       1.470  15.945  18.567  0.00  0.00    +0.000 A 
ENDBRANCH  11  12
ENDBRANCH   9  11
ENDBRANCH   1   7
BRANCH   1  20
ATOM     18  C   UNL     1      -0.231  10.324  22.199  0.00  0.00    +0.000 C 
ATOM     19  O   UNL     1      -0.195  10.343  23.424  0.00  0.00    +0.000 OA
ATOM     20  N   UNL     1      -0.845  11.325  21.400  0.00  0.00    +0.000 N 
BRANCH  20  21
ATOM     21  C   UNL     1      -1.418  12.443  22.103  0.00  0.00    +0.000 A 
ATOM     22  C   UNL     1      -2.754  12.444  22.510  0.00  0.00    +0.000 A 
ATOM     23  C   UNL     1      -3.291  13.485  23.284  0.00  0.00    +0.000 A 
ATOM     24  C   UNL     1      -2.429  14.524  23.659  0.00  0.00    +0.000 A 
ATOM     25  C   UNL     1      -1.101  14.570  23.254  0.00  0.00    +0.000 A 
ATOM     26  C   UNL     1      -0.576  15.725  23.874  0.00  0.00    +0.000 A 
ATOM     27  N   UNL     1      -1.491  16.387  24.586  0.00  0.00    +0.000 NA
ATOM     28  N   UNL     1      -2.616  15.667  24.396  0.00  0.00    +0.000 N 
ATOM     29  C   UNL     1      -3.871  16.159  24.910  0.00  0.00    +0.000 C 
ATOM     30  C   UNL     1      -0.605  13.554  22.419  0.00  0.00    +0.000 A 
ENDBRANCH  20  21
BRANCH  18  33
ATOM     31  C   UNL     1       1.911   7.201  20.609  0.00  0.00    +0.000 C 
ATOM     32  C   UNL     1       1.048   8.273  21.099  0.00  0.00    +0.000 C 
ATOM     33  C   UNL     1       0.437   9.206  21.566  0.00  0.00    +0.000 C 
ENDBRANCH  18  33
ENDBRANCH   1  20
TORSDOF 6
ENDMDL
MODEL 9
REMARK VINA RESULT:      -6.3      1.814      2.387
REMARK  Name = 
REMARK  8 active torsions:
REMARK  status: ('A' for Active; 'I' for Inactive)
REMARK    1  A    between atoms: C_1  and  C_2
REMARK    2  A    between atoms: C_3  and  C_4
REMARK    3  A    between atoms: N_6  and  C_7
REMARK    4  A    between atoms: N_6  and  C_17
REMARK    5  A    between atoms: N_14  and  C_15
REMARK    6  A    between atoms: C_17  and  C_18
REMARK    7  A    between atoms: N_20  and  C_21
REMARK    8  A    between atoms: C_21  and  C_22
REMARK                            x       y       z     vdW  Elec       q    Type
REMARK                         _______ _______ _______ _____ _____    ______ ____
ROOT
ATOM      1  C   UNL     1      -0.041  12.799  20.709  0.00  0.00    +0.000 C 
ATOM      2  C   UNL     1       0.389  11.537  19.906  0.00  0.00    +0.000 C 
ATOM      3  C   UNL     1       1.206  11.828  18.646  0.00  0.00    +0.000 C 
ATOM      4  C   UNL     1       2.345  12.785  18.929  0.00  0.00    +0.000 C 
ATOM      5  O   UNL     1       1.854  13.961  19.564  0.00  0.00    +0.000 OA
ATOM      6  C   UNL     1       1.253  13.674  20.838  0.00  0.00    +0.000 C 
ENDROOT
BRANCH   1   7
ATOM      7  C   UNL     1      -1.055  13.724  19.934  0.00  0.00    +0.000 C 
ATOM      8  O   UNL     1      -0.908  14.951  19.875  0.00  0.00    +0.000 OA
ATOM      9  N   UNL     1      -2.167  13.223  19.314  0.00  0.00    +0.000 N 
ATOM     10  H   UNL     1      -2.722  13.937  18.858  0.00  0.00    +0.000 HD
BRANCH   9  11
ATOM     11  C   UNL     1      -2.728  11.887  19.313  0.00  0.00    +0.000 C 
BRANCH  11  12
ATOM     12  C   UNL     1      -2.878  11.263  17.953  0.00  0.00    +0.000 A 
ATOM     13  C   UNL     1      -1.957  10.275  17.569  0.00  0.00    +0.000 A 
ATOM     14  C   UNL     1      -2.079   9.631  16.339  0.00  0.00    +0.000 A 
ATOM     15  C   UNL     1      -3.134   9.955  15.490  0.00  0.00    +0.000 A 
ATOM     16  C   UNL     1      -4.081  10.899  15.880  0.00  0.00    +0.000 A 
ATOM     17  C   UNL     1      -3.962  11.543  17.111  0.00  0.00    +0.000 A 
ENDBRANCH  11  12
ENDBRANCH   9  11
ENDBRANCH   1   7
BRANCH   1  20
ATOM     18  C   UNL     1      -0.632  11.073  22.551  0.00  0.00    +0.000 C 
ATOM     19  O   UNL     1      -1.203  10.702  23.570  0.00  0.00    +0.000 OA
ATOM     20  N   UNL     1      -0.760  12.372  21.991  0.00  0.00    +0.000 N 
BRANCH  20  21
ATOM     21  C   UNL     1      -1.588  13.302  22.712  0.00  0.00    +0.000 A 
ATOM     22  C   UNL     1      -1.041  14.378  23.413  0.00  0.00    +0.000 A 
ATOM     23  C   UNL     1      -1.848  15.346  24.032  0.00  0.00    +0.000 A 
ATOM     24  C   UNL     1      -3.236  15.209  23.904  0.00  0.00    +0.000 A 
ATOM     25  C   UNL     1      -3.819  14.140  23.235  0.00  0.00    +0.000 A 
ATOM     26  C   UNL     1      -5.207  14.395  23.289  0.00  0.00    +0.000 A 
ATOM     27  N   UNL     1      -5.498  15.510  23.962  0.00  0.00    +0.000 NA
ATOM     28  N   UNL     1      -4.292  15.955  24.368  0.00  0.00    +0.000 N 
ATOM     29  C   UNL     1      -4.213  17.089  25.258  0.00  0.00    +0.000 C 
ATOM     30  C   UNL     1      -2.992  13.145  22.686  0.00  0.00    +0.000 A 
ENDBRANCH  20  21
BRANCH  18  33
ATOM     31  C   UNL     1       1.588   8.150  20.710  0.00  0.00    +0.000 C 
ATOM     32  C   UNL     1       0.910   9.259  21.376  0.00  0.00    +0.000 C 
ATOM     33  C   UNL     1       0.244  10.103  21.930  0.00  0.00    +0.000 C 
ENDBRANCH  18  33
ENDBRANCH   1  20
TORSDOF 6
ENDMDL
