MODEL 1
REMARK VINA RESULT:      -8.9      0.000      0.000
REMARK  Name = 
REMARK  5 active torsions:
REMARK  status: ('A' for Active; 'I' for Inactive)
REMARK    1  A    between atoms: C_1  and  C_2
REMARK    2  A    between atoms: C_4  and  C_5
REMARK    3  A    between atoms: N_8  and  C_9
REMARK    4  A    between atoms: C_9  and  N_11
REMARK    5  A    between atoms: N_14  and  C_15
REMARK                            x       y       z     vdW  Elec       q    Type
REMARK                         _______ _______ _______ _____ _____    ______ ____
ROOT
ATOM      1  N   UNL     1       0.705  10.251  19.282  0.00  0.00    +0.000 N 
ATOM      2  C   UNL     1       1.207   9.471  18.120  0.00  0.00    +0.000 C 
ATOM      3  C   UNL     1       2.379   8.530  18.437  0.00  0.00    +0.000 C 
ATOM      4  N   UNL     1       2.048   7.678  19.585  0.00  0.00    +0.000 N 
ATOM      5  C   UNL     1       1.660   8.439  20.784  0.00  0.00    +0.000 C 
ATOM      6  C   UNL     1       0.488   9.406  20.484  0.00  0.00    +0.000 C 
ENDROOT
BRANCH   4   7
ATOM      7  C   UNL     1       2.041   6.299  19.497  0.00  0.00    +0.000 A 
ATOM      8  C   UNL     1       1.708   5.493  20.609  0.00  0.00    +0.000 A 
ATOM      9  C   UNL     1       1.712   4.089  20.584  0.00  0.00    +0.000 A 
ATOM     10  C   UNL     1       2.060   3.502  19.378  0.00  0.00    +0.000 A 
ATOM     11  O   UNL     1       2.132   2.164  19.135  0.00  0.00    +0.000 OA
ATOM     12  C   UNL     1       2.505   2.019  17.836  0.00  0.00    +0.000 A 
ATOM     13  C   UNL     1       2.675   3.249  17.241  0.00  0.00    +0.000 A 
ATOM     14  C   UNL     1       2.386   4.219  18.236  0.00  0.00    +0.000 A 
ATOM     15  C   UNL     1       2.374   5.629  18.303  0.00  0.00    +0.000 A 
ENDBRANCH   4   7
BRANCH   1  16
ATOM     16  C   UNL     1      -0.014  11.459  19.062  0.00  0.00    +0.000 C 
ATOM     17  S   UNL     1       0.771  12.926  18.748  0.00  0.00    +0.000 S 
BRANCH  16  25
ATOM     18  C   UNL     1      -2.960  10.061  14.660  0.00  0.00    +0.000 C 
ATOM     19  C   UNL     1      -3.219  10.604  16.033  0.00  0.00    +0.000 A 
ATOM     20  C   UNL     1      -4.452  11.134  16.388  0.00  0.00    +0.000 A 
ATOM     21  C   UNL     1      -4.619  11.634  17.678  0.00  0.00    +0.000 A 
ATOM     22  C   UNL     1      -5.950  12.195  18.091  0.00  0.00    +0.000 C 
ATOM     23  N   UNL     1      -3.614  11.660  18.597  0.00  0.00    +0.000 NA
ATOM     24  C   UNL     1      -2.399  11.191  18.225  0.00  0.00    +0.000 A 
ATOM     25  N   UNL     1      -1.392  11.319  19.206  0.00  0.00    +0.000 N 
ATOM     26  C   UNL     1      -2.193  10.609  16.979  0.00  0.00    +0.000 A 
ATOM     27  H   UNL     1      -1.782  11.698  20.056  0.00  0.00    +0.000 HD
ENDBRANCH  16  25
ENDBRANCH   1  16
TORSDOF 3
ENDMDL
MODEL 2
REMARK VINA RESULT:      -8.6      0.546      1.366
REMARK  Name = 
REMARK  5 active torsions:
REMARK  status: ('A' for Active; 'I' for Inactive)
REMARK    1  A    between atoms: C_1  and  C_2
REMARK    2  A    between atoms: C_4  and  C_5
REMARK    3  A    between atoms: N_8  and  C_9
REMARK    4  A    between atoms: C_9  and  N_11
REMARK    5  A    between atoms: N_14  and  C_15
REMARK                            x       y       z     vdW  Elec       q    Type
REMARK                         _______ _______ _______ _____ _____    ______ ____
ROOT
ATOM      1  N   UNL     1       0.615  10.410  19.281  0.00  0.00    +0.000 N 
ATOM      2  C   UNL     1       1.145   9.676  18.102  0.00  0.00    +0.000 C 
ATOM      3  C   UNL     1       2.343   8.761  18.402  0.00  0.00    +0.000 C 
ATOM      4  N   UNL     1       2.030   7.871  19.526  0.00  0.00    +0.000 N 
ATOM      5  C   UNL     1       1.614   8.588  20.742  0.00  0.00    +0.000 C 
ATOM      6  C   UNL     1       0.416   9.528  20.460  0.00  0.00    +0.000 C 
ENDROOT
BRANCH   4   7
ATOM      7  C   UNL     1       2.064   6.495  19.403  0.00  0.00    +0.000 A 
ATOM      8  C   UNL     1       2.389   5.875  18.175  0.00  0.00    +0.000 A 
ATOM      9  C   UNL     1       2.410   4.483  17.986  0.00  0.00    +0.000 A 
ATOM     10  C   UNL     1       2.099   3.713  19.094  0.00  0.00    +0.000 A 
ATOM     11  O   UNL     1       2.057   2.352  19.132  0.00  0.00    +0.000 OA
ATOM     12  C   UNL     1       1.714   2.003  20.399  0.00  0.00    +0.000 A 
ATOM     13  C   UNL     1       1.534   3.124  21.179  0.00  0.00    +0.000 A 
ATOM     14  C   UNL     1       1.783   4.240  20.338  0.00  0.00    +0.000 A 
ATOM     15  C   UNL     1       1.768   5.644  20.486  0.00  0.00    +0.000 A 
ENDBRANCH   4   7
BRANCH   1  16
ATOM     16  C   UNL     1      -0.138  11.602  19.088  0.00  0.00    +0.000 C 
ATOM     17  S   UNL     1       0.605  13.101  18.830  0.00  0.00    +0.000 S 
BRANCH  16  25
ATOM     18  C   UNL     1      -2.961  10.121  14.633  0.00  0.00    +0.000 C 
ATOM     19  C   UNL     1      -3.262  10.651  16.002  0.00  0.00    +0.000 A 
ATOM     20  C   UNL     1      -4.518  11.139  16.338  0.00  0.00    +0.000 A 
ATOM     21  C   UNL     1      -4.722  11.629  17.626  0.00  0.00    +0.000 A 
ATOM     22  C   UNL     1      -6.078  12.144  18.018  0.00  0.00    +0.000 C 
ATOM     23  N   UNL     1      -3.735  11.686  18.562  0.00  0.00    +0.000 NA
ATOM     24  C   UNL     1      -2.499  11.258  18.210  0.00  0.00    +0.000 A 
ATOM     25  N   UNL     1      -1.513  11.416  19.208  0.00  0.00    +0.000 N 
ATOM     26  C   UNL     1      -2.252  10.688  16.966  0.00  0.00    +0.000 A 
ATOM     27  H   UNL     1      -1.930  11.780  20.052  0.00  0.00    +0.000 HD
ENDBRANCH  16  25
ENDBRANCH   1  16
TORSDOF 3
ENDMDL
MODEL 3
REMARK VINA RESULT:      -8.5      0.825      1.749
REMARK  Name = 
REMARK  5 active torsions:
REMARK  status: ('A' for Active; 'I' for Inactive)
REMARK    1  A    between atoms: C_1  and  C_2
REMARK    2  A    between atoms: C_4  and  C_5
REMARK    3  A    between atoms: N_8  and  C_9
REMARK    4  A    between atoms: C_9  and  N_11
REMARK    5  A    between atoms: N_14  and  C_15
REMARK                            x       y       z     vdW  Elec       q    Type
REMARK                         _______ _______ _______ _____ _____    ______ ____
ROOT
ATOM      1  N   UNL     1       0.676  10.231  19.413  0.00  0.00    +0.000 N 
ATOM      2  C   UNL     1       1.172   9.477  18.232  0.00  0.00    +0.000 C 
ATOM      3  C   UNL     1       2.350   8.533  18.521  0.00  0.00    +0.000 C 
ATOM      4  N   UNL     1       2.030   7.658  19.655  0.00  0.00    +0.000 N 
ATOM      5  C   UNL     1       1.648   8.393  20.872  0.00  0.00    +0.000 C 
ATOM      6  C   UNL     1       0.471   9.361  20.599  0.00  0.00    +0.000 C 
ENDROOT
BRANCH   4   7
ATOM      7  C   UNL     1       2.027   6.280  19.540  0.00  0.00    +0.000 A 
ATOM      8  C   UNL     1       1.686   5.452  20.632  0.00  0.00    +0.000 A 
ATOM      9  C   UNL     1       1.693   4.048  20.579  0.00  0.00    +0.000 A 
ATOM     10  C   UNL     1       2.054   3.487  19.365  0.00  0.00    +0.000 A 
ATOM     11  O   UNL     1       2.132   2.154  19.096  0.00  0.00    +0.000 OA
ATOM     12  C   UNL     1       2.518   2.035  17.798  0.00  0.00    +0.000 A 
ATOM     13  C   UNL     1       2.690   3.277  17.229  0.00  0.00    +0.000 A 
ATOM     14  C   UNL     1       2.390   4.227  18.240  0.00  0.00    +0.000 A 
ATOM     15  C   UNL     1       2.374   5.635  18.336  0.00  0.00    +0.000 A 
ENDBRANCH   4   7
BRANCH   1  16
ATOM     16  C   UNL     1      -0.049  11.440  19.221  0.00  0.00    +0.000 C 
ATOM     17  S   UNL     1      -0.222  12.587  20.455  0.00  0.00    +0.000 S 
BRANCH  16  25
ATOM     18  C   UNL     1      -5.511  11.779  18.977  0.00  0.00    +0.000 C 
ATOM     19  C   UNL     1      -4.380  11.509  18.031  0.00  0.00    +0.000 A 
ATOM     20  C   UNL     1      -4.597  10.998  16.758  0.00  0.00    +0.000 A 
ATOM     21  C   UNL     1      -3.498  10.758  15.937  0.00  0.00    +0.000 A 
ATOM     22  C   UNL     1      -3.711  10.224  14.548  0.00  0.00    +0.000 C 
ATOM     23  N   UNL     1      -2.214  10.967  16.339  0.00  0.00    +0.000 NA
ATOM     24  C   UNL     1      -2.007  11.414  17.601  0.00  0.00    +0.000 A 
ATOM     25  N   UNL     1      -0.649  11.536  17.969  0.00  0.00    +0.000 N 
ATOM     26  C   UNL     1      -3.066  11.745  18.439  0.00  0.00    +0.000 A 
ATOM     27  H   UNL     1      -0.056  11.314  17.182  0.00  0.00    +0.000 HD
ENDBRANCH  16  25
ENDBRANCH   1  16
TORSDOF 3
ENDMDL
MODEL 4
REMARK VINA RESULT:      -8.2      0.897      1.219
REMARK  Name = 
REMARK  5 active torsions:
REMARK  status: ('A' for Active; 'I' for Inactive)
REMARK    1  A    between atoms: C_1  and  C_2
REMARK    2  A    between atoms: C_4  and  C_5
REMARK    3  A    between atoms: N_8  and  C_9
REMARK    4  A    between atoms: C_9  and  N_11
REMARK    5  A    between atoms: N_14  and  C_15
REMARK                            x       y       z     vdW  Elec       q    Type
REMARK                         _______ _______ _______ _____ _____    ______ ____
ROOT
ATOM      1  N   UNL     1       1.036   9.942  19.037  0.00  0.00    +0.000 N 
ATOM      2  C   UNL     1       1.636   9.344  17.815  0.00  0.00    +0.000 C 
ATOM      3  C   UNL     1       2.809   8.387  18.079  0.00  0.00    +0.000 C 
ATOM      4  N   UNL     1       2.424   7.376  19.070  0.00  0.00    +0.000 N 
ATOM      5  C   UNL     1       1.935   7.952  20.333  0.00  0.00    +0.000 C 
ATOM      6  C   UNL     1       0.761   8.931  20.090  0.00  0.00    +0.000 C 
ENDROOT
BRANCH   4   7
ATOM      7  C   UNL     1       2.460   6.023  18.789  0.00  0.00    +0.000 A 
ATOM      8  C   UNL     1       1.533   5.432  17.901  0.00  0.00    +0.000 A 
ATOM      9  C   UNL     1       1.506   4.060  17.602  0.00  0.00    +0.000 A 
ATOM     10  C   UNL     1       2.466   3.281  18.227  0.00  0.00    +0.000 A 
ATOM     11  O   UNL     1       2.617   1.935  18.083  0.00  0.00    +0.000 OA
ATOM     12  C   UNL     1       3.668   1.570  18.864  0.00  0.00    +0.000 A 
ATOM     13  C   UNL     1       4.195   2.666  19.510  0.00  0.00    +0.000 A 
ATOM     14  C   UNL     1       3.420   3.783  19.100  0.00  0.00    +0.000 A 
ATOM     15  C   UNL     1       3.411   5.167  19.379  0.00  0.00    +0.000 A 
ENDBRANCH   4   7
BRANCH   1  16
ATOM     16  C   UNL     1       0.301  11.156  18.938  0.00  0.00    +0.000 C 
ATOM     17  S   UNL     1       1.061  12.646  18.673  0.00  0.00    +0.000 S 
BRANCH  16  25
ATOM     18  C   UNL     1      -2.909  10.096  14.628  0.00  0.00    +0.000 C 
ATOM     19  C   UNL     1      -3.084  10.527  16.053  0.00  0.00    +0.000 A 
ATOM     20  C   UNL     1      -4.293  11.021  16.524  0.00  0.00    +0.000 A 
ATOM     21  C   UNL     1      -4.380  11.416  17.857  0.00  0.00    +0.000 A 
ATOM     22  C   UNL     1      -5.684  11.934  18.394  0.00  0.00    +0.000 C 
ATOM     23  N   UNL     1      -3.321  11.374  18.712  0.00  0.00    +0.000 NA
ATOM     24  C   UNL     1      -2.131  10.942  18.230  0.00  0.00    +0.000 A 
ATOM     25  N   UNL     1      -1.065  10.998  19.155  0.00  0.00    +0.000 N 
ATOM     26  C   UNL     1      -2.001  10.463  16.932  0.00  0.00    +0.000 A 
ATOM     27  H   UNL     1      -1.403  11.307  20.055  0.00  0.00    +0.000 HD
ENDBRANCH  16  25
ENDBRANCH   1  16
TORSDOF 3
ENDMDL
MODEL 5
REMARK VINA RESULT:      -8.2      4.429      9.022
REMARK  Name = 
REMARK  5 active torsions:
REMARK  status: ('A' for Active; 'I' for Inactive)
REMARK    1  A    between atoms: C_1  and  C_2
REMARK    2  A    between atoms: C_4  and  C_5
REMARK    3  A    between atoms: N_8  and  C_9
REMARK    4  A    between atoms: C_9  and  N_11
REMARK    5  A    between atoms: N_14  and  C_15
REMARK                            x       y       z     vdW  Elec       q    Type
REMARK                         _______ _______ _______ _____ _____    ______ ____
ROOT
ATOM      1  N   UNL     1       2.362   4.810  18.795  0.00  0.00    +0.000 N 
ATOM      2  C   UNL     1       1.837   5.028  20.168  0.00  0.00    +0.000 C 
ATOM      3  C   UNL     1       2.299   6.335  20.832  0.00  0.00    +0.000 C 
ATOM      4  N   UNL     1       2.039   7.473  19.942  0.00  0.00    +0.000 N 
ATOM      5  C   UNL     1       2.652   7.326  18.612  0.00  0.00    +0.000 C 
ATOM      6  C   UNL     1       2.211   6.008  17.930  0.00  0.00    +0.000 C 
ENDROOT
BRANCH   4   7
ATOM      7  C   UNL     1       1.236   8.531  20.321  0.00  0.00    +0.000 A 
ATOM      8  C   UNL     1       0.901   9.562  19.415  0.00  0.00    +0.000 A 
ATOM      9  C   UNL     1       0.112  10.673  19.754  0.00  0.00    +0.000 A 
ATOM     10  C   UNL     1      -0.350  10.717  21.059  0.00  0.00    +0.000 A 
ATOM     11  O   UNL     1      -1.123  11.700  21.597  0.00  0.00    +0.000 OA
ATOM     12  C   UNL     1      -1.351  11.358  22.893  0.00  0.00    +0.000 A 
ATOM     13  C   UNL     1      -0.732  10.165  23.194  0.00  0.00    +0.000 A 
ATOM     14  C   UNL     1      -0.081   9.741  22.007  0.00  0.00    +0.000 A 
ATOM     15  C   UNL     1       0.719   8.641  21.628  0.00  0.00    +0.000 A 
ENDBRANCH   4   7
BRANCH   1  16
ATOM     16  C   UNL     1       2.417   3.491  18.263  0.00  0.00    +0.000 C 
ATOM     17  S   UNL     1       1.384   2.262  18.803  0.00  0.00    +0.000 S 
BRANCH  16  25
ATOM     18  C   UNL     1       7.363   5.554  19.400  0.00  0.00    +0.000 C 
ATOM     19  C   UNL     1       6.646   5.004  18.203  0.00  0.00    +0.000 A 
ATOM     20  C   UNL     1       7.145   5.159  16.917  0.00  0.00    +0.000 A 
ATOM     21  C   UNL     1       6.420   4.634  15.850  0.00  0.00    +0.000 A 
ATOM     22  C   UNL     1       6.950   4.772  14.451  0.00  0.00    +0.000 C 
ATOM     23  N   UNL     1       5.222   4.005  16.007  0.00  0.00    +0.000 NA
ATOM     24  C   UNL     1       4.716   3.905  17.260  0.00  0.00    +0.000 A 
ATOM     25  N   UNL     1       3.438   3.308  17.334  0.00  0.00    +0.000 N 
ATOM     26  C   UNL     1       5.429   4.341  18.371  0.00  0.00    +0.000 A 
ATOM     27  H   UNL     1       3.145   3.002  16.419  0.00  0.00    +0.000 HD
ENDBRANCH  16  25
ENDBRANCH   1  16
TORSDOF 3
ENDMDL
MODEL 6
REMARK VINA RESULT:      -8.1      1.033      2.234
REMARK  Name = 
REMARK  5 active torsions:
REMARK  status: ('A' for Active; 'I' for Inactive)
REMARK    1  A    between atoms: C_1  and  C_2
REMARK    2  A    between atoms: C_4  and  C_5
REMARK    3  A    between atoms: N_8  and  C_9
REMARK    4  A    between atoms: C_9  and  N_11
REMARK    5  A    between atoms: N_14  and  C_15
REMARK                            x       y       z     vdW  Elec       q    Type
REMARK                         _______ _______ _______ _____ _____    ______ ____
ROOT
ATOM      1  N   UNL     1       0.507  10.497  19.443  0.00  0.00    +0.000 N 
ATOM      2  C   UNL     1       1.031   9.785  18.248  0.00  0.00    +0.000 C 
ATOM      3  C   UNL     1       2.255   8.895  18.516  0.00  0.00    +0.000 C 
ATOM      4  N   UNL     1       1.985   7.989  19.638  0.00  0.00    +0.000 N 
ATOM      5  C   UNL     1       1.576   8.687  20.868  0.00  0.00    +0.000 C 
ATOM      6  C   UNL     1       0.352   9.601  20.617  0.00  0.00    +0.000 C 
ENDROOT
BRANCH   4   7
ATOM      7  C   UNL     1       2.048   6.615  19.502  0.00  0.00    +0.000 A 
ATOM      8  C   UNL     1       2.363   6.013  18.263  0.00  0.00    +0.000 A 
ATOM      9  C   UNL     1       2.414   4.624  18.062  0.00  0.00    +0.000 A 
ATOM     10  C   UNL     1       2.141   3.837  19.169  0.00  0.00    +0.000 A 
ATOM     11  O   UNL     1       2.131   2.475  19.195  0.00  0.00    +0.000 OA
ATOM     12  C   UNL     1       1.820   2.108  20.466  0.00  0.00    +0.000 A 
ATOM     13  C   UNL     1       1.629   3.218  21.258  0.00  0.00    +0.000 A 
ATOM     14  C   UNL     1       1.837   4.347  20.423  0.00  0.00    +0.000 A 
ATOM     15  C   UNL     1       1.793   5.749  20.584  0.00  0.00    +0.000 A 
ENDBRANCH   4   7
BRANCH   1  16
ATOM     16  C   UNL     1      -0.276  11.672  19.274  0.00  0.00    +0.000 C 
ATOM     17  S   UNL     1      -0.524  12.774  20.536  0.00  0.00    +0.000 S 
BRANCH  16  25
ATOM     18  C   UNL     1      -5.741  11.495  18.941  0.00  0.00    +0.000 C 
ATOM     19  C   UNL     1      -4.576  11.382  18.005  0.00  0.00    +0.000 A 
ATOM     20  C   UNL     1      -4.723  10.917  16.705  0.00  0.00    +0.000 A 
ATOM     21  C   UNL     1      -3.595  10.826  15.895  0.00  0.00    +0.000 A 
ATOM     22  C   UNL     1      -3.734  10.344  14.478  0.00  0.00    +0.000 C 
ATOM     23  N   UNL     1      -2.343  11.138  16.331  0.00  0.00    +0.000 NA
ATOM     24  C   UNL     1      -2.199  11.539  17.617  0.00  0.00    +0.000 A 
ATOM     25  N   UNL     1      -0.865  11.772  18.016  0.00  0.00    +0.000 N 
ATOM     26  C   UNL     1      -3.297  11.723  18.450  0.00  0.00    +0.000 A 
ATOM     27  H   UNL     1      -0.242  11.649  17.232  0.00  0.00    +0.000 HD
ENDBRANCH  16  25
ENDBRANCH   1  16
TORSDOF 3
ENDMDL
MODEL 7
REMARK VINA RESULT:      -8.0      1.252      2.153
REMARK  Name = 
REMARK  5 active torsions:
REMARK  status: ('A' for Active; 'I' for Inactive)
REMARK    1  A    between atoms: C_1  and  C_2
REMARK    2  A    between atoms: C_4  and  C_5
REMARK    3  A    between atoms: N_8  and  C_9
REMARK    4  A    between atoms: C_9  and  N_11
REMARK    5  A    between atoms: N_14  and  C_15
REMARK                            x       y       z     vdW  Elec       q    Type
REMARK                         _______ _______ _______ _____ _____    ______ ____
ROOT
ATOM      1  N   UNL     1       0.851   9.782  19.234  0.00  0.00    +0.000 N 
ATOM      2  C   UNL     1       1.410   9.221  17.977  0.00  0.00    +0.000 C 
ATOM      3  C   UNL     1       2.658   8.344  18.164  0.00  0.00    +0.000 C 
ATOM      4  N   UNL     1       2.404   7.313  19.177  0.00  0.00    +0.000 N 
ATOM      5  C   UNL     1       1.960   7.860  20.470  0.00  0.00    +0.000 C 
ATOM      6  C   UNL     1       0.710   8.759  20.302  0.00  0.00    +0.000 C 
ENDROOT
BRANCH   4   7
ATOM      7  C   UNL     1       2.511   5.964  18.894  0.00  0.00    +0.000 A 
ATOM      8  C   UNL     1       1.679   5.347  17.933  0.00  0.00    +0.000 A 
ATOM      9  C   UNL     1       1.725   3.977  17.626  0.00  0.00    +0.000 A 
ATOM     10  C   UNL     1       2.661   3.228  18.321  0.00  0.00    +0.000 A 
ATOM     11  O   UNL     1       2.871   1.890  18.183  0.00  0.00    +0.000 OA
ATOM     12  C   UNL     1       3.871   1.558  19.042  0.00  0.00    +0.000 A 
ATOM     13  C   UNL     1       4.305   2.667  19.732  0.00  0.00    +0.000 A 
ATOM     14  C   UNL     1       3.525   3.758  19.269  0.00  0.00    +0.000 A 
ATOM     15  C   UNL     1       3.444   5.139  19.552  0.00  0.00    +0.000 A 
ENDBRANCH   4   7
BRANCH   1  16
ATOM     16  C   UNL     1       0.033  10.945  19.183  0.00  0.00    +0.000 C 
ATOM     17  S   UNL     1      -0.235  11.915  20.545  0.00  0.00    +0.000 S 
BRANCH  16  25
ATOM     18  C   UNL     1      -5.357  11.913  19.040  0.00  0.00    +0.000 C 
ATOM     19  C   UNL     1      -4.277  11.544  18.067  0.00  0.00    +0.000 A 
ATOM     20  C   UNL     1      -4.568  11.101  16.784  0.00  0.00    +0.000 A 
ATOM     21  C   UNL     1      -3.515  10.762  15.938  0.00  0.00    +0.000 A 
ATOM     22  C   UNL     1      -3.806  10.299  14.539  0.00  0.00    +0.000 C 
ATOM     23  N   UNL     1      -2.210  10.811  16.324  0.00  0.00    +0.000 NA
ATOM     24  C   UNL     1      -1.937  11.193  17.595  0.00  0.00    +0.000 A 
ATOM     25  N   UNL     1      -0.569  11.147  17.944  0.00  0.00    +0.000 N 
ATOM     26  C   UNL     1      -2.939  11.616  18.461  0.00  0.00    +0.000 A 
ATOM     27  H   UNL     1      -0.016  10.884  17.142  0.00  0.00    +0.000 HD
ENDBRANCH  16  25
ENDBRANCH   1  16
TORSDOF 3
ENDMDL
MODEL 8
REMARK VINA RESULT:      -7.9      4.131      8.928
REMARK  Name = 
REMARK  5 active torsions:
REMARK  status: ('A' for Active; 'I' for Inactive)
REMARK    1  A    between atoms: C_1  and  C_2
REMARK    2  A    between atoms: C_4  and  C_5
REMARK    3  A    between atoms: N_8  and  C_9
REMARK    4  A    between atoms: C_9  and  N_11
REMARK    5  A    between atoms: N_14  and  C_15
REMARK                            x       y       z     vdW  Elec       q    Type
REMARK                         _______ _______ _______ _____ _____    ______ ____
ROOT
ATOM      1  N   UNL     1       1.281   9.189  20.215  0.00  0.00    +0.000 N 
ATOM      2  C   UNL     1       0.384   8.830  21.344  0.00  0.00    +0.000 C 
ATOM      3  C   UNL     1       0.109   9.973  22.334  0.00  0.00    +0.000 C 
ATOM      4  N   UNL     1      -0.343  11.169  21.613  0.00  0.00    +0.000 N 
ATOM      5  C   UNL     1       0.592  11.608  20.565  0.00  0.00    +0.000 C 
ATOM      6  C   UNL     1       0.894  10.467  19.564  0.00  0.00    +0.000 C 
ENDROOT
BRANCH   4   7
ATOM      7  C   UNL     1      -1.567  11.759  21.868  0.00  0.00    +0.000 A 
ATOM      8  C   UNL     1      -2.282  12.435  20.854  0.00  0.00    +0.000 A 
ATOM      9  C   UNL     1      -3.514  13.076  21.064  0.00  0.00    +0.000 A 
ATOM     10  C   UNL     1      -4.024  13.009  22.351  0.00  0.00    +0.000 A 
ATOM     11  O   UNL     1      -5.195  13.562  22.772  0.00  0.00    +0.000 OA
ATOM     12  C   UNL     1      -5.319  13.264  24.092  0.00  0.00    +0.000 A 
ATOM     13  C   UNL     1      -4.240  12.527  24.526  0.00  0.00    +0.000 A 
ATOM     14  C   UNL     1      -3.394  12.355  23.399  0.00  0.00    +0.000 A 
ATOM     15  C   UNL     1      -2.155  11.726  23.148  0.00  0.00    +0.000 A 
ENDBRANCH   4   7
BRANCH   1  16
ATOM     16  C   UNL     1       1.984   8.164  19.521  0.00  0.00    +0.000 C 
ATOM     17  S   UNL     1       2.368   8.294  17.877  0.00  0.00    +0.000 S 
BRANCH  16  25
ATOM     18  C   UNL     1       2.610   3.337  17.009  0.00  0.00    +0.000 C 
ATOM     19  C   UNL     1       2.390   3.832  18.407  0.00  0.00    +0.000 A 
ATOM     20  C   UNL     1       2.031   2.974  19.439  0.00  0.00    +0.000 A 
ATOM     21  C   UNL     1       1.830   3.505  20.710  0.00  0.00    +0.000 A 
ATOM     22  C   UNL     1       1.461   2.593  21.846  0.00  0.00    +0.000 C 
ATOM     23  N   UNL     1       1.932   4.835  20.982  0.00  0.00    +0.000 NA
ATOM     24  C   UNL     1       2.228   5.672  19.959  0.00  0.00    +0.000 A 
ATOM     25  N   UNL     1       2.244   7.042  20.303  0.00  0.00    +0.000 N 
ATOM     26  C   UNL     1       2.517   5.194  18.686  0.00  0.00    +0.000 A 
ATOM     27  H   UNL     1       2.081   7.152  21.293  0.00  0.00    +0.000 HD
ENDBRANCH  16  25
ENDBRANCH   1  16
TORSDOF 3
ENDMDL
MODEL 9
REMARK VINA RESULT:      -7.9      3.992      8.943
REMARK  Name = 
REMARK  5 active torsions:
REMARK  status: ('A' for Active; 'I' for Inactive)
REMARK    1  A    between atoms: C_1  and  C_2
REMARK    2  A    between atoms: C_4  and  C_5
REMARK    3  A    between atoms: N_8  and  C_9
REMARK    4  A    between atoms: C_9  and  N_11
REMARK    5  A    between atoms: N_14  and  C_15
REMARK                            x       y       z     vdW  Elec       q    Type
REMARK                         _______ _______ _______ _____ _____    ______ ____
ROOT
ATOM      1  N   UNL     1       2.477   5.719  19.592  0.00  0.00    +0.000 N 
ATOM      2  C   UNL     1       1.675   6.407  20.637  0.00  0.00    +0.000 C 
ATOM      3  C   UNL     1       1.819   7.937  20.653  0.00  0.00    +0.000 C 
ATOM      4  N   UNL     1       1.581   8.482  19.311  0.00  0.00    +0.000 N 
ATOM      5  C   UNL     1       2.450   7.894  18.279  0.00  0.00    +0.000 C 
ATOM      6  C   UNL     1       2.331   6.350  18.255  0.00  0.00    +0.000 C 
ENDROOT
BRANCH   4   7
ATOM      7  C   UNL     1       0.582   9.404  19.061  0.00  0.00    +0.000 A 
ATOM      8  C   UNL     1       0.360  10.500  19.925  0.00  0.00    +0.000 A 
ATOM      9  C   UNL     1      -0.657  11.450  19.735  0.00  0.00    +0.000 A 
ATOM     10  C   UNL     1      -1.458  11.269  18.619  0.00  0.00    +0.000 A 
ATOM     11  O   UNL     1      -2.499  12.066  18.250  0.00  0.00    +0.000 OA
ATOM     12  C   UNL     1      -3.011  11.539  17.106  0.00  0.00    +0.000 A 
ATOM     13  C   UNL     1      -2.312  10.412  16.736  0.00  0.00    +0.000 A 
ATOM     14  C   UNL     1      -1.299  10.230  17.714  0.00  0.00    +0.000 A 
ATOM     15  C   UNL     1      -0.268   9.293  17.943  0.00  0.00    +0.000 A 
ENDBRANCH   4   7
BRANCH   1  16
ATOM     16  C   UNL     1       2.812   4.346  19.752  0.00  0.00    +0.000 C 
ATOM     17  S   UNL     1       2.433   3.489  21.162  0.00  0.00    +0.000 S 
BRANCH  16  25
ATOM     18  C   UNL     1       8.054   5.831  19.183  0.00  0.00    +0.000 C 
ATOM     19  C   UNL     1       7.002   5.158  18.353  0.00  0.00    +0.000 A 
ATOM     20  C   UNL     1       7.162   4.964  16.987  0.00  0.00    +0.000 A 
ATOM     21  C   UNL     1       6.138   4.344  16.276  0.00  0.00    +0.000 A 
ATOM     22  C   UNL     1       6.297   4.106  14.800  0.00  0.00    +0.000 C 
ATOM     23  N   UNL     1       4.969   3.949  16.852  0.00  0.00    +0.000 NA
ATOM     24  C   UNL     1       4.799   4.191  18.174  0.00  0.00    +0.000 A 
ATOM     25  N   UNL     1       3.534   3.822  18.683  0.00  0.00    +0.000 N 
ATOM     26  C   UNL     1       5.814   4.736  18.952  0.00  0.00    +0.000 A 
ATOM     27  H   UNL     1       2.986   3.379  17.961  0.00  0.00    +0.000 HD
ENDBRANCH  16  25
ENDBRANCH   1  16
TORSDOF 3
ENDMDL
