MODEL 1
REMARK VINA RESULT:      -8.5      0.000      0.000
REMARK  Name = 
REMARK  12 active torsions:
REMARK  status: ('A' for Active; 'I' for Inactive)
REMARK    1  A    between atoms: C_2  and  C_3
REMARK    2  A    between atoms: C_5  and  C_6
REMARK    3  A    between atoms: N_8  and  C_9
REMARK    4  A    between atoms: C_9  and  C_10
REMARK    5  A    between atoms: C_9  and  C_18
REMARK    6  A    between atoms: C_10  and  C_11
REMARK    7  A    between atoms: C_11  and  C_12
REMARK    8  A    between atoms: C_18  and  C_19
REMARK    9  A    between atoms: C_19  and  O_21
REMARK   10  A    between atoms: C_22  and  O_23
REMARK   11  A    between atoms: C_27  and  O_28
REMARK   12  A    between atoms: O_28  and  C_29
REMARK                            x       y       z     vdW  Elec       q    Type
REMARK                         _______ _______ _______ _____ _____    ______ ____
ROOT
ATOM      1  C   UNL     1       0.636  11.246  19.420  0.00  0.00    +0.000 A 
ATOM      2  N   UNL     1       1.386  10.433  18.644  0.00  0.00    +0.000 NA
ATOM      3  C   UNL     1       1.680   9.198  19.117  0.00  0.00    +0.000 A 
ATOM      4  C   UNL     1       1.267   8.749  20.371  0.00  0.00    +0.000 A 
ATOM      5  C   UNL     1       0.498   9.613  21.180  0.00  0.00    +0.000 A 
ATOM      6  C   UNL     1       0.039   9.232  22.458  0.00  0.00    +0.000 A 
ATOM      7  C   UNL     1      -0.739  10.089  23.234  0.00  0.00    +0.000 A 
ATOM      8  C   UNL     1      -1.043  11.366  22.769  0.00  0.00    +0.000 A 
ATOM      9  C   UNL     1      -0.649  11.748  21.490  0.00  0.00    +0.000 A 
ATOM     10  C   UNL     1       0.147  10.896  20.690  0.00  0.00    +0.000 A 
ENDROOT
BRANCH   3  11
ATOM     11  C   UNL     1       2.397   8.329  18.125  0.00  0.00    +0.000 C 
ATOM     12  O   UNL     1       2.305   8.589  16.931  0.00  0.00    +0.000 OA
ATOM     13  N   UNL     1       3.108   7.235  18.610  0.00  0.00    +0.000 N 
ATOM     14  H   UNL     1       3.426   7.303  19.573  0.00  0.00    +0.000 HD
BRANCH  13  15
ATOM     15  C   UNL     1       3.898   6.327  17.743  0.00  0.00    +0.000 C 
BRANCH  15  16
ATOM     16  C   UNL     1       3.159   4.998  17.506  0.00  0.00    +0.000 C 
BRANCH  16  17
ATOM     17  C   UNL     1       1.858   4.871  18.304  0.00  0.00    +0.000 C 
BRANCH  17  18
ATOM     18  C   UNL     1       2.073   4.001  19.515  0.00  0.00    +0.000 A 
ATOM     19  C   UNL     1       3.272   3.291  19.664  0.00  0.00    +0.000 A 
ATOM     20  C   UNL     1       3.455   2.431  20.746  0.00  0.00    +0.000 A 
ATOM     21  C   UNL     1       2.438   2.273  21.686  0.00  0.00    +0.000 A 
ATOM     22  C   UNL     1       1.241   2.972  21.547  0.00  0.00    +0.000 A 
ATOM     23  C   UNL     1       1.057   3.833  20.464  0.00  0.00    +0.000 A 
ENDBRANCH  17  18
ENDBRANCH  16  17
ENDBRANCH  15  16
BRANCH  15  24
ATOM     24  C   UNL     1       5.320   6.075  18.283  0.00  0.00    +0.000 C 
BRANCH  24  25
ATOM     25  C   UNL     1       6.065   5.005  17.530  0.00  0.00    +0.000 C 
ATOM     26  O   UNL     1       6.387   5.083  16.355  0.00  0.00    +0.000 OA
BRANCH  25  27
ATOM     27  O   UNL     1       6.384   3.942  18.304  0.00  0.00    +0.000 OA
ATOM     28  H   UNL     1       6.306   3.077  17.852  0.00  0.00    +0.000 HD
ENDBRANCH  25  27
ENDBRANCH  24  25
ENDBRANCH  15  24
ENDBRANCH  13  15
ENDBRANCH   3  11
BRANCH   1  30
ATOM     29  N   UNL     1       0.189  13.602  18.420  0.00  0.00    +0.000 NA
ATOM     30  C   UNL     1       0.393  12.544  18.842  0.00  0.00    +0.000 C 
ENDBRANCH   1  30
BRANCH   4  31
ATOM     31  O   UNL     1       1.539   7.490  20.844  0.00  0.00    +0.000 OA
ATOM     32  H   UNL     1       0.777   6.907  20.669  0.00  0.00    +0.000 HD
ENDBRANCH   4  31
BRANCH   8  33
ATOM     33  O   UNL     1      -1.727  12.307  23.506  0.00  0.00    +0.000 OA
BRANCH  33  34
ATOM     34  C   UNL     1      -3.078  12.450  23.272  0.00  0.00    +0.000 A 
ATOM     35  C   UNL     1      -3.630  12.614  21.996  0.00  0.00    +0.000 A 
ATOM     36  C   UNL     1      -4.986  12.895  21.853  0.00  0.00    +0.000 A 
ATOM     37  C   UNL     1      -5.806  12.937  22.979  0.00  0.00    +0.000 A 
ATOM     38  C   UNL     1      -5.276  12.670  24.242  0.00  0.00    +0.000 A 
ATOM     39  C   UNL     1      -3.911  12.423  24.390  0.00  0.00    +0.000 A 
ENDBRANCH  33  34
ENDBRANCH   8  33
TORSDOF 12
ENDMDL
MODEL 2
REMARK VINA RESULT:      -8.5      3.092     10.546
REMARK  Name = 
REMARK  12 active torsions:
REMARK  status: ('A' for Active; 'I' for Inactive)
REMARK    1  A    between atoms: C_2  and  C_3
REMARK    2  A    between atoms: C_5  and  C_6
REMARK    3  A    between atoms: N_8  and  C_9
REMARK    4  A    between atoms: C_9  and  C_10
REMARK    5  A    between atoms: C_9  and  C_18
REMARK    6  A    between atoms: C_10  and  C_11
REMARK    7  A    between atoms: C_11  and  C_12
REMARK    8  A    between atoms: C_18  and  C_19
REMARK    9  A    between atoms: C_19  and  O_21
REMARK   10  A    between atoms: C_22  and  O_23
REMARK   11  A    between atoms: C_27  and  O_28
REMARK   12  A    between atoms: O_28  and  C_29
REMARK                            x       y       z     vdW  Elec       q    Type
REMARK                         _______ _______ _______ _____ _____    ______ ____
ROOT
ATOM      1  C   UNL     1       3.154   5.149  19.345  0.00  0.00    +0.000 A 
ATOM      2  N   UNL     1       2.355   6.015  20.007  0.00  0.00    +0.000 NA
ATOM      3  C   UNL     1       2.219   7.265  19.504  0.00  0.00    +0.000 A 
ATOM      4  C   UNL     1       2.886   7.697  18.358  0.00  0.00    +0.000 A 
ATOM      5  C   UNL     1       3.731   6.790  17.683  0.00  0.00    +0.000 A 
ATOM      6  C   UNL     1       4.436   7.148  16.515  0.00  0.00    +0.000 A 
ATOM      7  C   UNL     1       5.248   6.232  15.848  0.00  0.00    +0.000 A 
ATOM      8  C   UNL     1       5.408   4.945  16.356  0.00  0.00    +0.000 A 
ATOM      9  C   UNL     1       4.682   4.548  17.475  0.00  0.00    +0.000 A 
ATOM     10  C   UNL     1       3.859   5.464  18.170  0.00  0.00    +0.000 A 
ENDROOT
BRANCH   3  11
ATOM     11  C   UNL     1       1.207   8.100  20.233  0.00  0.00    +0.000 C 
ATOM     12  O   UNL     1       0.716   7.668  21.270  0.00  0.00    +0.000 OA
ATOM     13  N   UNL     1       0.843   9.320  19.672  0.00  0.00    +0.000 N 
ATOM     14  H   UNL     1       1.527   9.748  19.054  0.00  0.00    +0.000 HD
BRANCH  13  15
ATOM     15  C   UNL     1      -0.108  10.261  20.314  0.00  0.00    +0.000 C 
BRANCH  15  16
ATOM     16  C   UNL     1      -0.579  11.342  19.325  0.00  0.00    +0.000 C 
BRANCH  16  17
ATOM     17  C   UNL     1      -2.093  11.575  19.350  0.00  0.00    +0.000 C 
BRANCH  17  18
ATOM     18  C   UNL     1      -2.707  11.141  18.045  0.00  0.00    +0.000 A 
ATOM     19  C   UNL     1      -1.985  10.321  17.168  0.00  0.00    +0.000 A 
ATOM     20  C   UNL     1      -2.518   9.968  15.929  0.00  0.00    +0.000 A 
ATOM     21  C   UNL     1      -3.776  10.436  15.555  0.00  0.00    +0.000 A 
ATOM     22  C   UNL     1      -4.503  11.254  16.419  0.00  0.00    +0.000 A 
ATOM     23  C   UNL     1      -3.971  11.608  17.659  0.00  0.00    +0.000 A 
ENDBRANCH  17  18
ENDBRANCH  16  17
ENDBRANCH  15  16
BRANCH  15  24
ATOM     24  C   UNL     1       0.460  10.901  21.596  0.00  0.00    +0.000 C 
BRANCH  24  25
ATOM     25  C   UNL     1      -0.291  10.514  22.842  0.00  0.00    +0.000 C 
ATOM     26  O   UNL     1      -1.412  10.907  23.124  0.00  0.00    +0.000 OA
BRANCH  25  27
ATOM     27  O   UNL     1       0.392   9.642  23.619  0.00  0.00    +0.000 OA
ATOM     28  H   UNL     1       0.118   9.639  24.558  0.00  0.00    +0.000 HD
ENDBRANCH  25  27
ENDBRANCH  24  25
ENDBRANCH  15  24
ENDBRANCH  13  15
ENDBRANCH   3  11
BRANCH   1  30
ATOM     29  N   UNL     1       3.295   2.823  20.493  0.00  0.00    +0.000 NA
ATOM     30  C   UNL     1       3.252   3.853  19.966  0.00  0.00    +0.000 C 
ENDBRANCH   1  30
BRANCH   4  31
ATOM     31  O   UNL     1       2.731   8.953  17.828  0.00  0.00    +0.000 OA
ATOM     32  H   UNL     1       3.131   8.981  16.939  0.00  0.00    +0.000 HD
ENDBRANCH   4  31
BRANCH   8  33
ATOM     33  O   UNL     1       6.259   4.009  15.813  0.00  0.00    +0.000 OA
BRANCH  33  34
ATOM     34  C   UNL     1       6.626   4.162  14.493  0.00  0.00    +0.000 A 
ATOM     35  C   UNL     1       7.640   5.026  14.066  0.00  0.00    +0.000 A 
ATOM     36  C   UNL     1       7.855   5.231  12.707  0.00  0.00    +0.000 A 
ATOM     37  C   UNL     1       7.108   4.517  11.772  0.00  0.00    +0.000 A 
ATOM     38  C   UNL     1       6.168   3.577  12.198  0.00  0.00    +0.000 A 
ATOM     39  C   UNL     1       5.927   3.396  13.560  0.00  0.00    +0.000 A 
ENDBRANCH  33  34
ENDBRANCH   8  33
TORSDOF 12
ENDMDL
MODEL 3
REMARK VINA RESULT:      -8.4      0.676      1.140
REMARK  Name = 
REMARK  12 active torsions:
REMARK  status: ('A' for Active; 'I' for Inactive)
REMARK    1  A    between atoms: C_2  and  C_3
REMARK    2  A    between atoms: C_5  and  C_6
REMARK    3  A    between atoms: N_8  and  C_9
REMARK    4  A    between atoms: C_9  and  C_10
REMARK    5  A    between atoms: C_9  and  C_18
REMARK    6  A    between atoms: C_10  and  C_11
REMARK    7  A    between atoms: C_11  and  C_12
REMARK    8  A    between atoms: C_18  and  C_19
REMARK    9  A    between atoms: C_19  and  O_21
REMARK   10  A    between atoms: C_22  and  O_23
REMARK   11  A    between atoms: C_27  and  O_28
REMARK   12  A    between atoms: O_28  and  C_29
REMARK                            x       y       z     vdW  Elec       q    Type
REMARK                         _______ _______ _______ _____ _____    ______ ____
ROOT
ATOM      1  C   UNL     1       0.907  11.092  19.373  0.00  0.00    +0.000 A 
ATOM      2  N   UNL     1       1.644  10.297  18.567  0.00  0.00    +0.000 NA
ATOM      3  C   UNL     1       1.914   9.039  18.991  0.00  0.00    +0.000 A 
ATOM      4  C   UNL     1       1.490   8.549  20.225  0.00  0.00    +0.000 A 
ATOM      5  C   UNL     1       0.735   9.393  21.067  0.00  0.00    +0.000 A 
ATOM      6  C   UNL     1       0.265   8.970  22.327  0.00  0.00    +0.000 A 
ATOM      7  C   UNL     1      -0.499   9.810  23.136  0.00  0.00    +0.000 A 
ATOM      8  C   UNL     1      -0.779  11.110  22.721  0.00  0.00    +0.000 A 
ATOM      9  C   UNL     1      -0.375  11.535  21.459  0.00  0.00    +0.000 A 
ATOM     10  C   UNL     1       0.408  10.701  20.628  0.00  0.00    +0.000 A 
ENDROOT
BRANCH   3  11
ATOM     11  C   UNL     1       2.617   8.197  17.966  0.00  0.00    +0.000 C 
ATOM     12  O   UNL     1       2.579   8.538  16.789  0.00  0.00    +0.000 OA
ATOM     13  N   UNL     1       3.253   7.038  18.400  0.00  0.00    +0.000 N 
ATOM     14  H   UNL     1       3.542   7.027  19.374  0.00  0.00    +0.000 HD
BRANCH  13  15
ATOM     15  C   UNL     1       4.023   6.145  17.500  0.00  0.00    +0.000 C 
BRANCH  15  16
ATOM     16  C   UNL     1       3.346   4.771  17.362  0.00  0.00    +0.000 C 
BRANCH  16  17
ATOM     17  C   UNL     1       1.983   4.688  18.058  0.00  0.00    +0.000 C 
BRANCH  17  18
ATOM     18  C   UNL     1       2.086   3.847  19.304  0.00  0.00    +0.000 A 
ATOM     19  C   UNL     1       0.977   3.710  20.150  0.00  0.00    +0.000 A 
ATOM     20  C   UNL     1       1.080   2.989  21.339  0.00  0.00    +0.000 A 
ATOM     21  C   UNL     1       2.294   2.403  21.693  0.00  0.00    +0.000 A 
ATOM     22  C   UNL     1       3.403   2.535  20.860  0.00  0.00    +0.000 A 
ATOM     23  C   UNL     1       3.302   3.256  19.670  0.00  0.00    +0.000 A 
ENDBRANCH  17  18
ENDBRANCH  16  17
ENDBRANCH  15  16
BRANCH  15  24
ATOM     24  C   UNL     1       5.495   5.989  17.932  0.00  0.00    +0.000 C 
BRANCH  24  25
ATOM     25  C   UNL     1       6.476   6.494  16.906  0.00  0.00    +0.000 C 
ATOM     26  O   UNL     1       6.772   5.900  15.882  0.00  0.00    +0.000 OA
BRANCH  25  27
ATOM     27  O   UNL     1       6.981   7.710  17.216  0.00  0.00    +0.000 OA
ATOM     28  H   UNL     1       6.780   8.010  18.126  0.00  0.00    +0.000 HD
ENDBRANCH  25  27
ENDBRANCH  24  25
ENDBRANCH  15  24
ENDBRANCH  13  15
ENDBRANCH   3  11
BRANCH   1  30
ATOM     29  N   UNL     1       0.558  13.492  18.440  0.00  0.00    +0.000 NA
ATOM     30  C   UNL     1       0.690  12.417  18.847  0.00  0.00    +0.000 C 
ENDBRANCH   1  30
BRANCH   4  31
ATOM     31  O   UNL     1       1.737   7.267  20.648  0.00  0.00    +0.000 OA
ATOM     32  H   UNL     1       1.255   7.102  21.480  0.00  0.00    +0.000 HD
ENDBRANCH   4  31
BRANCH   8  33
ATOM     33  O   UNL     1      -1.447  12.033  23.494  0.00  0.00    +0.000 OA
BRANCH  33  34
ATOM     34  C   UNL     1      -2.750  12.332  23.156  0.00  0.00    +0.000 A 
ATOM     35  C   UNL     1      -3.170  12.592  21.847  0.00  0.00    +0.000 A 
ATOM     36  C   UNL     1      -4.470  13.026  21.605  0.00  0.00    +0.000 A 
ATOM     37  C   UNL     1      -5.374  13.130  22.661  0.00  0.00    +0.000 A 
ATOM     38  C   UNL     1      -4.985  12.770  23.953  0.00  0.00    +0.000 A 
ATOM     39  C   UNL     1      -3.672  12.368  24.201  0.00  0.00    +0.000 A 
ENDBRANCH  33  34
ENDBRANCH   8  33
TORSDOF 12
ENDMDL
MODEL 4
REMARK VINA RESULT:      -8.2      3.249     10.502
REMARK  Name = 
REMARK  12 active torsions:
REMARK  status: ('A' for Active; 'I' for Inactive)
REMARK    1  A    between atoms: C_2  and  C_3
REMARK    2  A    between atoms: C_5  and  C_6
REMARK    3  A    between atoms: N_8  and  C_9
REMARK    4  A    between atoms: C_9  and  C_10
REMARK    5  A    between atoms: C_9  and  C_18
REMARK    6  A    between atoms: C_10  and  C_11
REMARK    7  A    between atoms: C_11  and  C_12
REMARK    8  A    between atoms: C_18  and  C_19
REMARK    9  A    between atoms: C_19  and  O_21
REMARK   10  A    between atoms: C_22  and  O_23
REMARK   11  A    between atoms: C_27  and  O_28
REMARK   12  A    between atoms: O_28  and  C_29
REMARK                            x       y       z     vdW  Elec       q    Type
REMARK                         _______ _______ _______ _____ _____    ______ ____
ROOT
ATOM      1  C   UNL     1       3.021   5.106  19.329  0.00  0.00    +0.000 A 
ATOM      2  N   UNL     1       2.348   6.037  20.041  0.00  0.00    +0.000 NA
ATOM      3  C   UNL     1       2.331   7.306  19.569  0.00  0.00    +0.000 A 
ATOM      4  C   UNL     1       2.996   7.691  18.406  0.00  0.00    +0.000 A 
ATOM      5  C   UNL     1       3.710   6.715  17.679  0.00  0.00    +0.000 A 
ATOM      6  C   UNL     1       4.405   7.023  16.491  0.00  0.00    +0.000 A 
ATOM      7  C   UNL     1       5.086   6.041  15.773  0.00  0.00    +0.000 A 
ATOM      8  C   UNL     1       5.123   4.731  16.248  0.00  0.00    +0.000 A 
ATOM      9  C   UNL     1       4.401   4.389  17.387  0.00  0.00    +0.000 A 
ATOM     10  C   UNL     1       3.711   5.371  18.134  0.00  0.00    +0.000 A 
ENDROOT
BRANCH   3  11
ATOM     11  C   UNL     1       1.445   8.229  20.356  0.00  0.00    +0.000 C 
ATOM     12  O   UNL     1       1.084   7.892  21.478  0.00  0.00    +0.000 OA
ATOM     13  N   UNL     1       1.040   9.415  19.753  0.00  0.00    +0.000 N 
ATOM     14  H   UNL     1       1.647   9.771  19.020  0.00  0.00    +0.000 HD
BRANCH  13  15
ATOM     15  C   UNL     1       0.206  10.434  20.437  0.00  0.00    +0.000 C 
BRANCH  15  16
ATOM     16  C   UNL     1      -1.066  10.748  19.631  0.00  0.00    +0.000 C 
BRANCH  16  17
ATOM     17  C   UNL     1      -1.131  10.023  18.283  0.00  0.00    +0.000 C 
BRANCH  17  18
ATOM     18  C   UNL     1      -2.316  10.506  17.488  0.00  0.00    +0.000 A 
ATOM     19  C   UNL     1      -3.350  11.203  18.126  0.00  0.00    +0.000 A 
ATOM     20  C   UNL     1      -4.482  11.596  17.413  0.00  0.00    +0.000 A 
ATOM     21  C   UNL     1      -4.590  11.291  16.058  0.00  0.00    +0.000 A 
ATOM     22  C   UNL     1      -3.568  10.596  15.414  0.00  0.00    +0.000 A 
ATOM     23  C   UNL     1      -2.435  10.202  16.126  0.00  0.00    +0.000 A 
ENDBRANCH  17  18
ENDBRANCH  16  17
ENDBRANCH  15  16
BRANCH  15  24
ATOM     24  C   UNL     1       0.985  11.726  20.756  0.00  0.00    +0.000 C 
BRANCH  24  25
ATOM     25  C   UNL     1       1.470  12.451  19.528  0.00  0.00    +0.000 C 
ATOM     26  O   UNL     1       2.106  11.933  18.624  0.00  0.00    +0.000 OA
BRANCH  25  27
ATOM     27  O   UNL     1       1.095  13.751  19.504  0.00  0.00    +0.000 OA
ATOM     28  H   UNL     1       1.529  14.308  20.181  0.00  0.00    +0.000 HD
ENDBRANCH  25  27
ENDBRANCH  24  25
ENDBRANCH  15  24
ENDBRANCH  13  15
ENDBRANCH   3  11
BRANCH   1  30
ATOM     29  N   UNL     1       2.945   2.727  20.370  0.00  0.00    +0.000 NA
ATOM     30  C   UNL     1       3.000   3.792  19.920  0.00  0.00    +0.000 C 
ENDBRANCH   1  30
BRANCH   4  31
ATOM     31  O   UNL     1       2.960   8.970  17.909  0.00  0.00    +0.000 OA
ATOM     32  H   UNL     1       2.058   9.170  17.597  0.00  0.00    +0.000 HD
ENDBRANCH   4  31
BRANCH   8  33
ATOM     33  O   UNL     1       5.845   3.722  15.652  0.00  0.00    +0.000 OA
BRANCH  33  34
ATOM     34  C   UNL     1       6.384   3.965  14.407  0.00  0.00    +0.000 A 
ATOM     35  C   UNL     1       7.481   4.806  14.189  0.00  0.00    +0.000 A 
ATOM     36  C   UNL     1       7.877   5.113  12.890  0.00  0.00    +0.000 A 
ATOM     37  C   UNL     1       7.226   4.522  11.809  0.00  0.00    +0.000 A 
ATOM     38  C   UNL     1       6.199   3.601  12.029  0.00  0.00    +0.000 A 
ATOM     39  C   UNL     1       5.779   3.320  13.329  0.00  0.00    +0.000 A 
ENDBRANCH  33  34
ENDBRANCH   8  33
TORSDOF 12
ENDMDL
MODEL 5
REMARK VINA RESULT:      -8.2      1.299      1.617
REMARK  Name = 
REMARK  12 active torsions:
REMARK  status: ('A' for Active; 'I' for Inactive)
REMARK    1  A    between atoms: C_2  and  C_3
REMARK    2  A    between atoms: C_5  and  C_6
REMARK    3  A    between atoms: N_8  and  C_9
REMARK    4  A    between atoms: C_9  and  C_10
REMARK    5  A    between atoms: C_9  and  C_18
REMARK    6  A    between atoms: C_10  and  C_11
REMARK    7  A    between atoms: C_11  and  C_12
REMARK    8  A    between atoms: C_18  and  C_19
REMARK    9  A    between atoms: C_19  and  O_21
REMARK   10  A    between atoms: C_22  and  O_23
REMARK   11  A    between atoms: C_27  and  O_28
REMARK   12  A    between atoms: O_28  and  C_29
REMARK                            x       y       z     vdW  Elec       q    Type
REMARK                         _______ _______ _______ _____ _____    ______ ____
ROOT
ATOM      1  C   UNL     1       1.535  10.169  19.233  0.00  0.00    +0.000 A 
ATOM      2  N   UNL     1       2.156   9.147  18.604  0.00  0.00    +0.000 NA
ATOM      3  C   UNL     1       2.132   7.929  19.196  0.00  0.00    +0.000 A 
ATOM      4  C   UNL     1       1.522   7.698  20.428  0.00  0.00    +0.000 A 
ATOM      5  C   UNL     1       0.890   8.776  21.085  0.00  0.00    +0.000 A 
ATOM      6  C   UNL     1       0.248   8.622  22.331  0.00  0.00    +0.000 A 
ATOM      7  C   UNL     1      -0.391   9.693  22.954  0.00  0.00    +0.000 A 
ATOM      8  C   UNL     1      -0.369  10.955  22.365  0.00  0.00    +0.000 A 
ATOM      9  C   UNL     1       0.210  11.123  21.110  0.00  0.00    +0.000 A 
ATOM     10  C   UNL     1       0.870  10.051  20.466  0.00  0.00    +0.000 A 
ENDROOT
BRANCH   3  11
ATOM     11  C   UNL     1       2.729   6.838  18.354  0.00  0.00    +0.000 C 
ATOM     12  O   UNL     1       1.982   6.029  17.814  0.00  0.00    +0.000 OA
ATOM     13  N   UNL     1       4.115   6.774  18.256  0.00  0.00    +0.000 N 
ATOM     14  H   UNL     1       4.613   7.646  18.412  0.00  0.00    +0.000 HD
BRANCH  13  15
ATOM     15  C   UNL     1       4.828   5.778  17.419  0.00  0.00    +0.000 C 
BRANCH  15  16
ATOM     16  C   UNL     1       5.069   4.469  18.191  0.00  0.00    +0.000 C 
BRANCH  16  17
ATOM     17  C   UNL     1       4.148   3.325  17.756  0.00  0.00    +0.000 C 
BRANCH  17  18
ATOM     18  C   UNL     1       3.083   3.089  18.795  0.00  0.00    +0.000 A 
ATOM     19  C   UNL     1       1.782   2.752  18.401  0.00  0.00    +0.000 A 
ATOM     20  C   UNL     1       0.773   2.597  19.352  0.00  0.00    +0.000 A 
ATOM     21  C   UNL     1       1.058   2.783  20.703  0.00  0.00    +0.000 A 
ATOM     22  C   UNL     1       2.348   3.121  21.106  0.00  0.00    +0.000 A 
ATOM     23  C   UNL     1       3.359   3.276  20.156  0.00  0.00    +0.000 A 
ENDBRANCH  17  18
ENDBRANCH  16  17
ENDBRANCH  15  16
BRANCH  15  24
ATOM     24  C   UNL     1       6.148   6.323  16.839  0.00  0.00    +0.000 C 
BRANCH  24  25
ATOM     25  C   UNL     1       6.765   5.420  15.803  0.00  0.00    +0.000 C 
ATOM     26  O   UNL     1       6.389   5.338  14.645  0.00  0.00    +0.000 OA
BRANCH  25  27
ATOM     27  O   UNL     1       7.820   4.719  16.279  0.00  0.00    +0.000 OA
ATOM     28  H   UNL     1       8.690   5.124  16.090  0.00  0.00    +0.000 HD
ENDBRANCH  25  27
ENDBRANCH  24  25
ENDBRANCH  15  24
ENDBRANCH  13  15
ENDBRANCH   3  11
BRANCH   1  30
ATOM     29  N   UNL     1       1.748  12.422  17.957  0.00  0.00    +0.000 NA
ATOM     30  C   UNL     1       1.631  11.427  18.537  0.00  0.00    +0.000 C 
ENDBRANCH   1  30
BRANCH   4  31
ATOM     31  O   UNL     1       1.472   6.461  21.020  0.00  0.00    +0.000 OA
ATOM     32  H   UNL     1       1.887   6.506  21.902  0.00  0.00    +0.000 HD
ENDBRANCH   4  31
BRANCH   8  33
ATOM     33  O   UNL     1      -0.895  12.084  22.953  0.00  0.00    +0.000 OA
BRANCH  33  34
ATOM     34  C   UNL     1      -2.234  12.347  22.755  0.00  0.00    +0.000 A 
ATOM     35  C   UNL     1      -2.788  12.649  21.506  0.00  0.00    +0.000 A 
ATOM     36  C   UNL     1      -4.119  13.043  21.410  0.00  0.00    +0.000 A 
ATOM     37  C   UNL     1      -4.920  13.063  22.551  0.00  0.00    +0.000 A 
ATOM     38  C   UNL     1      -4.395  12.660  23.781  0.00  0.00    +0.000 A 
ATOM     39  C   UNL     1      -3.051  12.299  23.884  0.00  0.00    +0.000 A 
ENDBRANCH  33  34
ENDBRANCH   8  33
TORSDOF 12
ENDMDL
MODEL 6
REMARK VINA RESULT:      -8.1      0.584      1.343
REMARK  Name = 
REMARK  12 active torsions:
REMARK  status: ('A' for Active; 'I' for Inactive)
REMARK    1  A    between atoms: C_2  and  C_3
REMARK    2  A    between atoms: C_5  and  C_6
REMARK    3  A    between atoms: N_8  and  C_9
REMARK    4  A    between atoms: C_9  and  C_10
REMARK    5  A    between atoms: C_9  and  C_18
REMARK    6  A    between atoms: C_10  and  C_11
REMARK    7  A    between atoms: C_11  and  C_12
REMARK    8  A    between atoms: C_18  and  C_19
REMARK    9  A    between atoms: C_19  and  O_21
REMARK   10  A    between atoms: C_22  and  O_23
REMARK   11  A    between atoms: C_27  and  O_28
REMARK   12  A    between atoms: O_28  and  C_29
REMARK                            x       y       z     vdW  Elec       q    Type
REMARK                         _______ _______ _______ _____ _____    ______ ____
ROOT
ATOM      1  C   UNL     1       0.781  11.187  19.472  0.00  0.00    +0.000 A 
ATOM      2  N   UNL     1       1.501  10.406  18.636  0.00  0.00    +0.000 NA
ATOM      3  C   UNL     1       1.769   9.137  19.026  0.00  0.00    +0.000 A 
ATOM      4  C   UNL     1       1.357   8.619  20.254  0.00  0.00    +0.000 A 
ATOM      5  C   UNL     1       0.620   9.448  21.126  0.00  0.00    +0.000 A 
ATOM      6  C   UNL     1       0.164   8.998  22.382  0.00  0.00    +0.000 A 
ATOM      7  C   UNL     1      -0.583   9.823  23.221  0.00  0.00    +0.000 A 
ATOM      8  C   UNL     1      -0.860  11.135  22.842  0.00  0.00    +0.000 A 
ATOM      9  C   UNL     1      -0.470  11.587  21.585  0.00  0.00    +0.000 A 
ATOM     10  C   UNL     1       0.296  10.769  20.723  0.00  0.00    +0.000 A 
ENDROOT
BRANCH   3  11
ATOM     11  C   UNL     1       2.452   8.315  17.972  0.00  0.00    +0.000 C 
ATOM     12  O   UNL     1       2.474   8.728  16.818  0.00  0.00    +0.000 OA
ATOM     13  N   UNL     1       3.001   7.094  18.351  0.00  0.00    +0.000 N 
ATOM     14  H   UNL     1       3.255   7.006  19.331  0.00  0.00    +0.000 HD
BRANCH  13  15
ATOM     15  C   UNL     1       3.743   6.210  17.420  0.00  0.00    +0.000 C 
BRANCH  15  16
ATOM     16  C   UNL     1       3.194   4.773  17.455  0.00  0.00    +0.000 C 
BRANCH  16  17
ATOM     17  C   UNL     1       1.860   4.647  18.197  0.00  0.00    +0.000 C 
BRANCH  17  18
ATOM     18  C   UNL     1       2.025   3.787  19.423  0.00  0.00    +0.000 A 
ATOM     19  C   UNL     1       1.061   3.822  20.439  0.00  0.00    +0.000 A 
ATOM     20  C   UNL     1       1.238   3.081  21.607  0.00  0.00    +0.000 A 
ATOM     21  C   UNL     1       2.382   2.302  21.769  0.00  0.00    +0.000 A 
ATOM     22  C   UNL     1       3.348   2.261  20.766  0.00  0.00    +0.000 A 
ATOM     23  C   UNL     1       3.173   3.002  19.597  0.00  0.00    +0.000 A 
ENDBRANCH  17  18
ENDBRANCH  16  17
ENDBRANCH  15  16
BRANCH  15  24
ATOM     24  C   UNL     1       5.264   6.222  17.673  0.00  0.00    +0.000 C 
BRANCH  24  25
ATOM     25  C   UNL     1       5.688   5.338  18.817  0.00  0.00    +0.000 C 
ATOM     26  O   UNL     1       6.501   4.432  18.727  0.00  0.00    +0.000 OA
BRANCH  25  27
ATOM     27  O   UNL     1       5.097   5.674  19.987  0.00  0.00    +0.000 OA
ATOM     28  H   UNL     1       5.704   5.688  20.755  0.00  0.00    +0.000 HD
ENDBRANCH  25  27
ENDBRANCH  24  25
ENDBRANCH  15  24
ENDBRANCH  13  15
ENDBRANCH   3  11
BRANCH   1  30
ATOM     29  N   UNL     1       0.352  13.600  18.610  0.00  0.00    +0.000 NA
ATOM     30  C   UNL     1       0.565  12.525  18.980  0.00  0.00    +0.000 C 
ENDBRANCH   1  30
BRANCH   4  31
ATOM     31  O   UNL     1       1.602   7.327  20.643  0.00  0.00    +0.000 OA
ATOM     32  H   UNL     1       1.466   6.729  19.884  0.00  0.00    +0.000 HD
ENDBRANCH   4  31
BRANCH   8  33
ATOM     33  O   UNL     1      -1.511  12.043  23.646  0.00  0.00    +0.000 OA
BRANCH  33  34
ATOM     34  C   UNL     1      -2.807  12.379  23.317  0.00  0.00    +0.000 A 
ATOM     35  C   UNL     1      -3.839  12.494  24.255  0.00  0.00    +0.000 A 
ATOM     36  C   UNL     1      -5.149  12.697  23.829  0.00  0.00    +0.000 A 
ATOM     37  C   UNL     1      -5.418  12.861  22.472  0.00  0.00    +0.000 A 
ATOM     38  C   UNL     1      -4.374  12.852  21.545  0.00  0.00    +0.000 A 
ATOM     39  C   UNL     1      -3.066  12.613  21.967  0.00  0.00    +0.000 A 
ENDBRANCH  33  34
ENDBRANCH   8  33
TORSDOF 12
ENDMDL
MODEL 7
REMARK VINA RESULT:      -8.1      3.267     10.421
REMARK  Name = 
REMARK  12 active torsions:
REMARK  status: ('A' for Active; 'I' for Inactive)
REMARK    1  A    between atoms: C_2  and  C_3
REMARK    2  A    between atoms: C_5  and  C_6
REMARK    3  A    between atoms: N_8  and  C_9
REMARK    4  A    between atoms: C_9  and  C_10
REMARK    5  A    between atoms: C_9  and  C_18
REMARK    6  A    between atoms: C_10  and  C_11
REMARK    7  A    between atoms: C_11  and  C_12
REMARK    8  A    between atoms: C_18  and  C_19
REMARK    9  A    between atoms: C_19  and  O_21
REMARK   10  A    between atoms: C_22  and  O_23
REMARK   11  A    between atoms: C_27  and  O_28
REMARK   12  A    between atoms: O_28  and  C_29
REMARK                            x       y       z     vdW  Elec       q    Type
REMARK                         _______ _______ _______ _____ _____    ______ ____
ROOT
ATOM      1  C   UNL     1       2.925   5.451  19.335  0.00  0.00    +0.000 A 
ATOM      2  N   UNL     1       2.217   6.394  19.995  0.00  0.00    +0.000 NA
ATOM      3  C   UNL     1       2.175   7.641  19.468  0.00  0.00    +0.000 A 
ATOM      4  C   UNL     1       2.850   7.992  18.299  0.00  0.00    +0.000 A 
ATOM      5  C   UNL     1       3.600   7.003  17.627  0.00  0.00    +0.000 A 
ATOM      6  C   UNL     1       4.307   7.278  16.437  0.00  0.00    +0.000 A 
ATOM      7  C   UNL     1       5.024   6.283  15.774  0.00  0.00    +0.000 A 
ATOM      8  C   UNL     1       5.086   4.997  16.306  0.00  0.00    +0.000 A 
ATOM      9  C   UNL     1       4.354   4.685  17.448  0.00  0.00    +0.000 A 
ATOM     10  C   UNL     1       3.628   5.682  18.140  0.00  0.00    +0.000 A 
ENDROOT
BRANCH   3  11
ATOM     11  C   UNL     1       1.254   8.573  20.200  0.00  0.00    +0.000 C 
ATOM     12  O   UNL     1       0.735   8.196  21.244  0.00  0.00    +0.000 OA
ATOM     13  N   UNL     1       1.000   9.818  19.632  0.00  0.00    +0.000 N 
ATOM     14  H   UNL     1       1.715  10.174  19.004  0.00  0.00    +0.000 HD
BRANCH  13  15
ATOM     15  C   UNL     1       0.149  10.848  20.275  0.00  0.00    +0.000 C 
BRANCH  15  16
ATOM     16  C   UNL     1      -1.238  10.921  19.612  0.00  0.00    +0.000 C 
BRANCH  16  17
ATOM     17  C   UNL     1      -1.493   9.797  18.604  0.00  0.00    +0.000 C 
BRANCH  17  18
ATOM     18  C   UNL     1      -2.475  10.251  17.555  0.00  0.00    +0.000 A 
ATOM     19  C   UNL     1      -2.243   9.958  16.205  0.00  0.00    +0.000 A 
ATOM     20  C   UNL     1      -3.111  10.431  15.220  0.00  0.00    +0.000 A 
ATOM     21  C   UNL     1      -4.214  11.203  15.579  0.00  0.00    +0.000 A 
ATOM     22  C   UNL     1      -4.452  11.502  16.919  0.00  0.00    +0.000 A 
ATOM     23  C   UNL     1      -3.586  11.029  17.905  0.00  0.00    +0.000 A 
ENDBRANCH  17  18
ENDBRANCH  16  17
ENDBRANCH  15  16
BRANCH  15  24
ATOM     24  C   UNL     1       0.816  12.238  20.305  0.00  0.00    +0.000 C 
BRANCH  24  25
ATOM     25  C   UNL     1       0.902  12.891  18.950  0.00  0.00    +0.000 C 
ATOM     26  O   UNL     1       0.299  13.903  18.630  0.00  0.00    +0.000 OA
BRANCH  25  27
ATOM     27  O   UNL     1       1.756  12.256  18.115  0.00  0.00    +0.000 OA
ATOM     28  H   UNL     1       2.257  12.853  17.522  0.00  0.00    +0.000 HD
ENDBRANCH  25  27
ENDBRANCH  24  25
ENDBRANCH  15  24
ENDBRANCH  13  15
ENDBRANCH   3  11
BRANCH   1  30
ATOM     29  N   UNL     1       2.951   3.149  20.539  0.00  0.00    +0.000 NA
ATOM     30  C   UNL     1       2.927   4.163  19.982  0.00  0.00    +0.000 C 
ENDBRANCH   1  30
BRANCH   4  31
ATOM     31  O   UNL     1       2.790   9.246  17.746  0.00  0.00    +0.000 OA
ATOM     32  H   UNL     1       2.331   9.199  16.887  0.00  0.00    +0.000 HD
ENDBRANCH   4  31
BRANCH   8  33
ATOM     33  O   UNL     1       5.843   3.981  15.766  0.00  0.00    +0.000 OA
BRANCH  33  34
ATOM     34  C   UNL     1       6.233   4.100  14.449  0.00  0.00    +0.000 A 
ATOM     35  C   UNL     1       5.555   3.498  13.383  0.00  0.00    +0.000 A 
ATOM     36  C   UNL     1       6.091   3.547  12.099  0.00  0.00    +0.000 A 
ATOM     37  C   UNL     1       7.265   4.260  11.865  0.00  0.00    +0.000 A 
ATOM     38  C   UNL     1       7.885   4.949  12.909  0.00  0.00    +0.000 A 
ATOM     39  C   UNL     1       7.367   4.872  14.203  0.00  0.00    +0.000 A 
ENDBRANCH  33  34
ENDBRANCH   8  33
TORSDOF 12
ENDMDL
MODEL 8
REMARK VINA RESULT:      -8.0      3.227      5.316
REMARK  Name = 
REMARK  12 active torsions:
REMARK  status: ('A' for Active; 'I' for Inactive)
REMARK    1  A    between atoms: C_2  and  C_3
REMARK    2  A    between atoms: C_5  and  C_6
REMARK    3  A    between atoms: N_8  and  C_9
REMARK    4  A    between atoms: C_9  and  C_10
REMARK    5  A    between atoms: C_9  and  C_18
REMARK    6  A    between atoms: C_10  and  C_11
REMARK    7  A    between atoms: C_11  and  C_12
REMARK    8  A    between atoms: C_18  and  C_19
REMARK    9  A    between atoms: C_19  and  O_21
REMARK   10  A    between atoms: C_22  and  O_23
REMARK   11  A    between atoms: C_27  and  O_28
REMARK   12  A    between atoms: O_28  and  C_29
REMARK                            x       y       z     vdW  Elec       q    Type
REMARK                         _______ _______ _______ _____ _____    ______ ____
ROOT
ATOM      1  C   UNL     1       0.842   9.333  21.545  0.00  0.00    +0.000 A 
ATOM      2  N   UNL     1       1.197   8.058  21.271  0.00  0.00    +0.000 NA
ATOM      3  C   UNL     1       1.618   7.773  20.016  0.00  0.00    +0.000 A 
ATOM      4  C   UNL     1       1.674   8.727  19.000  0.00  0.00    +0.000 A 
ATOM      5  C   UNL     1       1.285  10.052  19.293  0.00  0.00    +0.000 A 
ATOM      6  C   UNL     1       1.316  11.075  18.323  0.00  0.00    +0.000 A 
ATOM      7  C   UNL     1       0.951  12.383  18.636  0.00  0.00    +0.000 A 
ATOM      8  C   UNL     1       0.506  12.694  19.919  0.00  0.00    +0.000 A 
ATOM      9  C   UNL     1       0.517  11.716  20.910  0.00  0.00    +0.000 A 
ATOM     10  C   UNL     1       0.876  10.382  20.610  0.00  0.00    +0.000 A 
ENDROOT
BRANCH   3  11
ATOM     11  C   UNL     1       2.118   6.367  19.854  0.00  0.00    +0.000 C 
ATOM     12  O   UNL     1       2.232   5.659  20.848  0.00  0.00    +0.000 OA
ATOM     13  N   UNL     1       2.467   5.942  18.576  0.00  0.00    +0.000 N 
ATOM     14  H   UNL     1       2.016   6.430  17.806  0.00  0.00    +0.000 HD
BRANCH  13  15
ATOM     15  C   UNL     1       2.927   4.565  18.272  0.00  0.00    +0.000 C 
BRANCH  15  16
ATOM     16  C   UNL     1       4.001   4.565  17.171  0.00  0.00    +0.000 C 
BRANCH  16  17
ATOM     17  C   UNL     1       4.499   5.966  16.802  0.00  0.00    +0.000 C 
BRANCH  17  18
ATOM     18  C   UNL     1       5.778   6.274  17.536  0.00  0.00    +0.000 A 
ATOM     19  C   UNL     1       6.557   7.375  17.155  0.00  0.00    +0.000 A 
ATOM     20  C   UNL     1       7.776   7.629  17.783  0.00  0.00    +0.000 A 
ATOM     21  C   UNL     1       8.226   6.783  18.795  0.00  0.00    +0.000 A 
ATOM     22  C   UNL     1       7.460   5.685  19.180  0.00  0.00    +0.000 A 
ATOM     23  C   UNL     1       6.241   5.428  18.552  0.00  0.00    +0.000 A 
ENDBRANCH  17  18
ENDBRANCH  16  17
ENDBRANCH  15  16
BRANCH  15  24
ATOM     24  C   UNL     1       1.768   3.616  17.907  0.00  0.00    +0.000 C 
BRANCH  24  25
ATOM     25  C   UNL     1       1.353   2.715  19.040  0.00  0.00    +0.000 C 
ATOM     26  O   UNL     1       1.782   1.587  19.220  0.00  0.00    +0.000 OA
BRANCH  25  27
ATOM     27  O   UNL     1       0.467   3.300  19.879  0.00  0.00    +0.000 OA
ATOM     28  H   UNL     1      -0.398   3.507  19.470  0.00  0.00    +0.000 HD
ENDBRANCH  25  27
ENDBRANCH  24  25
ENDBRANCH  15  24
ENDBRANCH  13  15
ENDBRANCH   3  11
BRANCH   1  30
ATOM     29  N   UNL     1       0.069   9.689  24.000  0.00  0.00    +0.000 NA
ATOM     30  C   UNL     1       0.389   9.535  22.899  0.00  0.00    +0.000 C 
ENDBRANCH   1  30
BRANCH   4  31
ATOM     31  O   UNL     1       2.125   8.451  17.735  0.00  0.00    +0.000 OA
ATOM     32  H   UNL     1       1.414   8.019  17.224  0.00  0.00    +0.000 HD
ENDBRANCH   4  31
BRANCH   8  33
ATOM     33  O   UNL     1       0.041  13.936  20.288  0.00  0.00    +0.000 OA
BRANCH  33  34
ATOM     34  C   UNL     1       0.584  15.038  19.662  0.00  0.00    +0.000 A 
ATOM     35  C   UNL     1      -0.153  15.910  18.853  0.00  0.00    +0.000 A 
ATOM     36  C   UNL     1       0.495  16.916  18.141  0.00  0.00    +0.000 A 
ATOM     37  C   UNL     1       1.868  17.099  18.295  0.00  0.00    +0.000 A 
ATOM     38  C   UNL     1       2.586  16.295  19.182  0.00  0.00    +0.000 A 
ATOM     39  C   UNL     1       1.944  15.265  19.869  0.00  0.00    +0.000 A 
ENDBRANCH  33  34
ENDBRANCH   8  33
TORSDOF 12
ENDMDL
MODEL 9
REMARK VINA RESULT:      -8.0      1.142      1.499
REMARK  Name = 
REMARK  12 active torsions:
REMARK  status: ('A' for Active; 'I' for Inactive)
REMARK    1  A    between atoms: C_2  and  C_3
REMARK    2  A    between atoms: C_5  and  C_6
REMARK    3  A    between atoms: N_8  and  C_9
REMARK    4  A    between atoms: C_9  and  C_10
REMARK    5  A    between atoms: C_9  and  C_18
REMARK    6  A    between atoms: C_10  and  C_11
REMARK    7  A    between atoms: C_11  and  C_12
REMARK    8  A    between atoms: C_18  and  C_19
REMARK    9  A    between atoms: C_19  and  O_21
REMARK   10  A    between atoms: C_22  and  O_23
REMARK   11  A    between atoms: C_27  and  O_28
REMARK   12  A    between atoms: O_28  and  C_29
REMARK                            x       y       z     vdW  Elec       q    Type
REMARK                         _______ _______ _______ _____ _____    ______ ____
ROOT
ATOM      1  C   UNL     1       0.991  10.739  19.325  0.00  0.00    +0.000 A 
ATOM      2  N   UNL     1       1.750  10.001  18.486  0.00  0.00    +0.000 NA
ATOM      3  C   UNL     1       2.100   8.752  18.879  0.00  0.00    +0.000 A 
ATOM      4  C   UNL     1       1.734   8.217  20.113  0.00  0.00    +0.000 A 
ATOM      5  C   UNL     1       0.955   9.003  20.989  0.00  0.00    +0.000 A 
ATOM      6  C   UNL     1       0.542   8.532  22.253  0.00  0.00    +0.000 A 
ATOM      7  C   UNL     1      -0.247   9.314  23.096  0.00  0.00    +0.000 A 
ATOM      8  C   UNL     1      -0.608  10.604  22.712  0.00  0.00    +0.000 A 
ATOM      9  C   UNL     1      -0.260  11.073  21.449  0.00  0.00    +0.000 A 
ATOM     10  C   UNL     1       0.546  10.299  20.583  0.00  0.00    +0.000 A 
ENDROOT
BRANCH   3  11
ATOM     11  C   UNL     1       2.822   7.969  17.822  0.00  0.00    +0.000 C 
ATOM     12  O   UNL     1       2.783   8.361  16.661  0.00  0.00    +0.000 OA
ATOM     13  N   UNL     1       3.476   6.803  18.207  0.00  0.00    +0.000 N 
ATOM     14  H   UNL     1       3.761   6.754  19.181  0.00  0.00    +0.000 HD
BRANCH  13  15
ATOM     15  C   UNL     1       4.265   5.964  17.272  0.00  0.00    +0.000 C 
BRANCH  15  16
ATOM     16  C   UNL     1       3.884   4.479  17.395  0.00  0.00    +0.000 C 
BRANCH  16  17
ATOM     17  C   UNL     1       2.411   4.253  17.752  0.00  0.00    +0.000 C 
BRANCH  17  18
ATOM     18  C   UNL     1       2.293   3.678  19.139  0.00  0.00    +0.000 A 
ATOM     19  C   UNL     1       3.415   3.115  19.762  0.00  0.00    +0.000 A 
ATOM     20  C   UNL     1       3.302   2.520  21.018  0.00  0.00    +0.000 A 
ATOM     21  C   UNL     1       2.066   2.482  21.660  0.00  0.00    +0.000 A 
ATOM     22  C   UNL     1       0.943   3.037  21.048  0.00  0.00    +0.000 A 
ATOM     23  C   UNL     1       1.055   3.633  19.792  0.00  0.00    +0.000 A 
ENDBRANCH  17  18
ENDBRANCH  16  17
ENDBRANCH  15  16
BRANCH  15  24
ATOM     24  C   UNL     1       5.786   6.155  17.439  0.00  0.00    +0.000 C 
BRANCH  24  25
ATOM     25  C   UNL     1       6.393   5.251  18.480  0.00  0.00    +0.000 C 
ATOM     26  O   UNL     1       7.222   4.386  18.246  0.00  0.00    +0.000 OA
BRANCH  25  27
ATOM     27  O   UNL     1       5.949   5.517  19.730  0.00  0.00    +0.000 OA
ATOM     28  H   UNL     1       5.031   5.223  19.902  0.00  0.00    +0.000 HD
ENDBRANCH  25  27
ENDBRANCH  24  25
ENDBRANCH  15  24
ENDBRANCH  13  15
ENDBRANCH   3  11
BRANCH   1  30
ATOM     29  N   UNL     1       0.489  13.121  18.418  0.00  0.00    +0.000 NA
ATOM     30  C   UNL     1       0.688  12.058  18.829  0.00  0.00    +0.000 C 
ENDBRANCH   1  30
BRANCH   4  31
ATOM     31  O   UNL     1       2.063   6.944  20.506  0.00  0.00    +0.000 OA
ATOM     32  H   UNL     1       3.015   6.794  20.355  0.00  0.00    +0.000 HD
ENDBRANCH   4  31
BRANCH   8  33
ATOM     33  O   UNL     1      -1.307  11.474  23.519  0.00  0.00    +0.000 OA
BRANCH  33  34
ATOM     34  C   UNL     1      -1.823  12.614  22.941  0.00  0.00    +0.000 A 
ATOM     35  C   UNL     1      -3.057  12.659  22.283  0.00  0.00    +0.000 A 
ATOM     36  C   UNL     1      -3.443  13.810  21.602  0.00  0.00    +0.000 A 
ATOM     37  C   UNL     1      -2.632  14.942  21.641  0.00  0.00    +0.000 A 
ATOM     38  C   UNL     1      -1.451  14.932  22.385  0.00  0.00    +0.000 A 
ATOM     39  C   UNL     1      -1.046  13.768  23.038  0.00  0.00    +0.000 A 
ENDBRANCH  33  34
ENDBRANCH   8  33
TORSDOF 12
ENDMDL
