MODEL 1
REMARK VINA RESULT:      -7.6      0.000      0.000
REMARK  Name = 
REMARK  3 active torsions:
REMARK  status: ('A' for Active; 'I' for Inactive)
REMARK    1  A    between atoms: C_2  and  C_3
REMARK    2  A    between atoms: C_13  and  N_14
REMARK    3  A    between atoms: N_17  and  C_18
REMARK                            x       y       z     vdW  Elec       q    Type
REMARK                         _______ _______ _______ _____ _____    ______ ____
ROOT
ATOM      1  O   UNL     1      -3.586  12.493  21.160  0.00  0.00    +0.000 OA
ATOM      2  C   UNL     1      -3.716  12.269  19.960  0.00  0.00    +0.000 C 
ATOM      3  N   UNL     1      -2.625  12.020  19.118  0.00  0.00    +0.000 N 
ATOM      4  C   UNL     1      -2.697  11.832  17.676  0.00  0.00    +0.000 C 
ATOM      5  C   UNL     1      -2.536  10.349  17.409  0.00  0.00    +0.000 C 
ATOM      6  C   UNL     1      -1.133   9.927  17.831  0.00  0.00    +0.000 C 
ATOM      7  C   UNL     1      -0.692  10.409  19.238  0.00  0.00    +0.000 C 
ATOM      8  C   UNL     1      -1.292  11.794  19.666  0.00  0.00    +0.000 C 
ENDROOT
BRANCH   2   9
ATOM      9  C   UNL     1      -5.094  12.298  19.383  0.00  0.00    +0.000 A 
ATOM     10  C   UNL     1      -5.748  13.512  19.241  0.00  0.00    +0.000 A 
ATOM     11  N   UNL     1      -6.938  13.624  18.590  0.00  0.00    +0.000 NA
ATOM     12  C   UNL     1      -7.444  12.468  18.099  0.00  0.00    +0.000 A 
ATOM     13  C   UNL     1      -6.818  11.248  18.285  0.00  0.00    +0.000 A 
ATOM     14  N   UNL     1      -5.647  11.132  18.945  0.00  0.00    +0.000 NA
ENDBRANCH   2   9
BRANCH   7  15
ATOM     15  N   UNL     1       0.763  10.330  19.500  0.00  0.00    +0.000 NA
ATOM     16  C   UNL     1       1.140   9.688  20.772  0.00  0.00    +0.000 C 
ATOM     17  C   UNL     1       1.262   8.143  20.764  0.00  0.00    +0.000 C 
ATOM     18  N   UNL     1       2.084   7.665  19.639  0.00  0.00    +0.000 N 
ATOM     19  C   UNL     1       1.781   8.263  18.324  0.00  0.00    +0.000 C 
ATOM     20  C   UNL     1       1.627   9.799  18.427  0.00  0.00    +0.000 C 
BRANCH  18  21
ATOM     21  C   UNL     1       2.564   6.354  19.653  0.00  0.00    +0.000 A 
ATOM     22  C   UNL     1       3.500   5.868  18.723  0.00  0.00    +0.000 A 
ATOM     23  C   UNL     1       3.888   4.522  18.697  0.00  0.00    +0.000 A 
ATOM     24  C   UNL     1       3.348   3.626  19.611  0.00  0.00    +0.000 A 
ATOM     25  C   UNL     1       2.432   4.083  20.549  0.00  0.00    +0.000 A 
ATOM     26 CL   UNL     1       1.736   2.986  21.678  0.00  0.00    +0.000 Cl
ATOM     27  C   UNL     1       2.050   5.426  20.572  0.00  0.00    +0.000 A 
ENDBRANCH  18  21
ENDBRANCH   7  15
TORSDOF 3
ENDMDL
MODEL 2
REMARK VINA RESULT:      -7.4      1.787      2.016
REMARK  Name = 
REMARK  3 active torsions:
REMARK  status: ('A' for Active; 'I' for Inactive)
REMARK    1  A    between atoms: C_2  and  C_3
REMARK    2  A    between atoms: C_13  and  N_14
REMARK    3  A    between atoms: N_17  and  C_18
REMARK                            x       y       z     vdW  Elec       q    Type
REMARK                         _______ _______ _______ _____ _____    ______ ____
ROOT
ATOM      1  O   UNL     1      -3.476  12.409  23.518  0.00  0.00    +0.000 OA
ATOM      2  C   UNL     1      -3.739  12.698  22.354  0.00  0.00    +0.000 C 
ATOM      3  N   UNL     1      -2.758  12.791  21.360  0.00  0.00    +0.000 N 
ATOM      4  C   UNL     1      -2.985  13.211  19.984  0.00  0.00    +0.000 C 
ATOM      5  C   UNL     1      -2.954  11.963  19.125  0.00  0.00    +0.000 C 
ATOM      6  C   UNL     1      -1.548  11.375  19.170  0.00  0.00    +0.000 C 
ATOM      7  C   UNL     1      -0.938  11.230  20.589  0.00  0.00    +0.000 C 
ATOM      8  C   UNL     1      -1.395  12.331  21.607  0.00  0.00    +0.000 C 
ENDROOT
BRANCH   2   9
ATOM      9  C   UNL     1      -5.163  12.990  22.007  0.00  0.00    +0.000 A 
ATOM     10  C   UNL     1      -5.662  14.270  22.197  0.00  0.00    +0.000 A 
ATOM     11  N   UNL     1      -6.899  14.638  21.765  0.00  0.00    +0.000 NA
ATOM     12  C   UNL     1      -7.612  13.670  21.144  0.00  0.00    +0.000 A 
ATOM     13  C   UNL     1      -7.136  12.378  20.999  0.00  0.00    +0.000 A 
ATOM     14  N   UNL     1      -5.916  12.005  21.442  0.00  0.00    +0.000 NA
ENDBRANCH   2   9
BRANCH   7  15
ATOM     15  N   UNL     1       0.528  11.019  20.621  0.00  0.00    +0.000 NA
ATOM     16  C   UNL     1       1.008  10.101  21.669  0.00  0.00    +0.000 C 
ATOM     17  C   UNL     1       1.001   8.589  21.328  0.00  0.00    +0.000 C 
ATOM     18  N   UNL     1       1.632   8.319  20.025  0.00  0.00    +0.000 N 
ATOM     19  C   UNL     1       1.216   9.199  18.916  0.00  0.00    +0.000 C 
ATOM     20  C   UNL     1       1.203  10.684  19.351  0.00  0.00    +0.000 C 
BRANCH  18  21
ATOM     21  C   UNL     1       2.002   7.011  19.702  0.00  0.00    +0.000 A 
ATOM     22  C   UNL     1       2.585   6.658  18.473  0.00  0.00    +0.000 A 
ATOM     23  C   UNL     1       2.852   5.324  18.137  0.00  0.00    +0.000 A 
ATOM     24  C   UNL     1       2.543   4.307  19.030  0.00  0.00    +0.000 A 
ATOM     25  C   UNL     1       1.978   4.629  20.257  0.00  0.00    +0.000 A 
ATOM     26 CL   UNL     1       1.570   3.383  21.372  0.00  0.00    +0.000 Cl
ATOM     27  C   UNL     1       1.716   5.960  20.589  0.00  0.00    +0.000 A 
ENDBRANCH  18  21
ENDBRANCH   7  15
TORSDOF 3
ENDMDL
MODEL 3
REMARK VINA RESULT:      -7.3      1.029      1.358
REMARK  Name = 
REMARK  3 active torsions:
REMARK  status: ('A' for Active; 'I' for Inactive)
REMARK    1  A    between atoms: C_2  and  C_3
REMARK    2  A    between atoms: C_13  and  N_14
REMARK    3  A    between atoms: N_17  and  C_18
REMARK                            x       y       z     vdW  Elec       q    Type
REMARK                         _______ _______ _______ _____ _____    ______ ____
ROOT
ATOM      1  O   UNL     1      -3.457  12.546  20.953  0.00  0.00    +0.000 OA
ATOM      2  C   UNL     1      -3.580  12.269  19.763  0.00  0.00    +0.000 C 
ATOM      3  N   UNL     1      -2.485  11.969  18.942  0.00  0.00    +0.000 N 
ATOM      4  C   UNL     1      -2.547  11.717  17.510  0.00  0.00    +0.000 C 
ATOM      5  C   UNL     1      -2.402  10.221  17.313  0.00  0.00    +0.000 C 
ATOM      6  C   UNL     1      -1.008   9.803  17.766  0.00  0.00    +0.000 C 
ATOM      7  C   UNL     1      -0.573  10.343  19.153  0.00  0.00    +0.000 C 
ATOM      8  C   UNL     1      -1.159  11.753  19.512  0.00  0.00    +0.000 C 
ENDROOT
BRANCH   2   9
ATOM      9  C   UNL     1      -4.953  12.287  19.174  0.00  0.00    +0.000 A 
ATOM     10  C   UNL     1      -5.555  11.091  18.813  0.00  0.00    +0.000 A 
ATOM     11  N   UNL     1      -6.853  11.025  18.411  0.00  0.00    +0.000 NA
ATOM     12  C   UNL     1      -7.514  12.205  18.380  0.00  0.00    +0.000 A 
ATOM     13  C   UNL     1      -6.900  13.406  18.690  0.00  0.00    +0.000 A 
ATOM     14  N   UNL     1      -5.608  13.477  19.072  0.00  0.00    +0.000 NA
ENDBRANCH   2   9
BRANCH   7  15
ATOM     15  N   UNL     1       0.880  10.259  19.430  0.00  0.00    +0.000 NA
ATOM     16  C   UNL     1       1.265   9.296  20.477  0.00  0.00    +0.000 C 
ATOM     17  C   UNL     1       1.471   7.827  20.030  0.00  0.00    +0.000 C 
ATOM     18  N   UNL     1       2.340   7.732  18.844  0.00  0.00    +0.000 N 
ATOM     19  C   UNL     1       2.031   8.669  17.746  0.00  0.00    +0.000 C 
ATOM     20  C   UNL     1       1.792  10.101  18.281  0.00  0.00    +0.000 C 
BRANCH  18  21
ATOM     21  C   UNL     1       2.890   6.496  18.497  0.00  0.00    +0.000 A 
ATOM     22  C   UNL     1       3.984   6.360  17.625  0.00  0.00    +0.000 A 
ATOM     23  C   UNL     1       4.451   5.104  17.215  0.00  0.00    +0.000 A 
ATOM     24  C   UNL     1       3.833   3.948  17.675  0.00  0.00    +0.000 A 
ATOM     25  C   UNL     1       2.758   4.055  18.547  0.00  0.00    +0.000 A 
ATOM     26 CL   UNL     1       1.965   2.636  19.114  0.00  0.00    +0.000 Cl
ATOM     27  C   UNL     1       2.298   5.308  18.955  0.00  0.00    +0.000 A 
ENDBRANCH  18  21
ENDBRANCH   7  15
TORSDOF 3
ENDMDL
MODEL 4
REMARK VINA RESULT:      -7.2      1.176      1.673
REMARK  Name = 
REMARK  3 active torsions:
REMARK  status: ('A' for Active; 'I' for Inactive)
REMARK    1  A    between atoms: C_2  and  C_3
REMARK    2  A    between atoms: C_13  and  N_14
REMARK    3  A    between atoms: N_17  and  C_18
REMARK                            x       y       z     vdW  Elec       q    Type
REMARK                         _______ _______ _______ _____ _____    ______ ____
ROOT
ATOM      1  O   UNL     1      -3.596  12.583  21.146  0.00  0.00    +0.000 OA
ATOM      2  C   UNL     1      -3.679  12.357  19.942  0.00  0.00    +0.000 C 
ATOM      3  N   UNL     1      -2.560  12.080  19.147  0.00  0.00    +0.000 N 
ATOM      4  C   UNL     1      -2.574  11.889  17.704  0.00  0.00    +0.000 C 
ATOM      5  C   UNL     1      -2.436  10.401  17.448  0.00  0.00    +0.000 C 
ATOM      6  C   UNL     1      -1.063   9.949  17.931  0.00  0.00    +0.000 C 
ATOM      7  C   UNL     1      -0.671  10.426  19.354  0.00  0.00    +0.000 C 
ATOM      8  C   UNL     1      -1.257  11.826  19.752  0.00  0.00    +0.000 C 
ENDROOT
BRANCH   2   9
ATOM      9  C   UNL     1      -5.031  12.415  19.307  0.00  0.00    +0.000 A 
ATOM     10  C   UNL     1      -5.665  11.235  18.946  0.00  0.00    +0.000 A 
ATOM     11  N   UNL     1      -6.951  11.209  18.502  0.00  0.00    +0.000 NA
ATOM     12  C   UNL     1      -7.567  12.412  18.429  0.00  0.00    +0.000 A 
ATOM     13  C   UNL     1      -6.919  13.595  18.739  0.00  0.00    +0.000 A 
ATOM     14  N   UNL     1      -5.638  13.626  19.164  0.00  0.00    +0.000 NA
ENDBRANCH   2   9
BRANCH   7  15
ATOM     15  N   UNL     1       0.770  10.315  19.677  0.00  0.00    +0.000 NA
ATOM     16  C   UNL     1       1.079   9.630  20.945  0.00  0.00    +0.000 C 
ATOM     17  C   UNL     1       1.178   8.084  20.895  0.00  0.00    +0.000 C 
ATOM     18  N   UNL     1       2.042   7.626  19.794  0.00  0.00    +0.000 N 
ATOM     19  C   UNL     1       1.808   8.267  18.485  0.00  0.00    +0.000 C 
ATOM     20  C   UNL     1       1.673   9.802  18.628  0.00  0.00    +0.000 C 
BRANCH  18  21
ATOM     21  C   UNL     1       2.501   6.307  19.789  0.00  0.00    +0.000 A 
ATOM     22  C   UNL     1       1.919   5.288  20.563  0.00  0.00    +0.000 A 
ATOM     23  C   UNL     1       2.464   3.998  20.617  0.00  0.00    +0.000 A 
ATOM     24  C   UNL     1       3.607   3.695  19.889  0.00  0.00    +0.000 A 
ATOM     25  C   UNL     1       4.194   4.680  19.105  0.00  0.00    +0.000 A 
ATOM     26 CL   UNL     1       5.622   4.331  18.210  0.00  0.00    +0.000 Cl
ATOM     27  C   UNL     1       3.647   5.963  19.053  0.00  0.00    +0.000 A 
ENDBRANCH  18  21
ENDBRANCH   7  15
TORSDOF 3
ENDMDL
MODEL 5
REMARK VINA RESULT:      -7.1      2.083      2.445
REMARK  Name = 
REMARK  3 active torsions:
REMARK  status: ('A' for Active; 'I' for Inactive)
REMARK    1  A    between atoms: C_2  and  C_3
REMARK    2  A    between atoms: C_13  and  N_14
REMARK    3  A    between atoms: N_17  and  C_18
REMARK                            x       y       z     vdW  Elec       q    Type
REMARK                         _______ _______ _______ _____ _____    ______ ____
ROOT
ATOM      1  O   UNL     1      -3.242  12.260  23.527  0.00  0.00    +0.000 OA
ATOM      2  C   UNL     1      -3.519  12.566  22.372  0.00  0.00    +0.000 C 
ATOM      3  N   UNL     1      -2.549  12.673  21.367  0.00  0.00    +0.000 N 
ATOM      4  C   UNL     1      -2.792  13.114  20.001  0.00  0.00    +0.000 C 
ATOM      5  C   UNL     1      -2.773  11.880  19.122  0.00  0.00    +0.000 C 
ATOM      6  C   UNL     1      -1.368  11.289  19.142  0.00  0.00    +0.000 C 
ATOM      7  C   UNL     1      -0.741  11.122  20.551  0.00  0.00    +0.000 C 
ATOM      8  C   UNL     1      -1.185  12.208  21.591  0.00  0.00    +0.000 C 
ENDROOT
BRANCH   2   9
ATOM      9  C   UNL     1      -4.946  12.866  22.045  0.00  0.00    +0.000 A 
ATOM     10  C   UNL     1      -5.438  14.146  22.248  0.00  0.00    +0.000 A 
ATOM     11  N   UNL     1      -6.679  14.521  21.836  0.00  0.00    +0.000 NA
ATOM     12  C   UNL     1      -7.404  13.558  21.220  0.00  0.00    +0.000 A 
ATOM     13  C   UNL     1      -6.935  12.265  21.063  0.00  0.00    +0.000 A 
ATOM     14  N   UNL     1      -5.711  11.886  21.487  0.00  0.00    +0.000 NA
ENDBRANCH   2   9
BRANCH   7  15
ATOM     15  N   UNL     1       0.725  10.908  20.562  0.00  0.00    +0.000 NA
ATOM     16  C   UNL     1       1.220   9.996  21.609  0.00  0.00    +0.000 C 
ATOM     17  C   UNL     1       1.205   8.482  21.278  0.00  0.00    +0.000 C 
ATOM     18  N   UNL     1       1.816   8.203  19.967  0.00  0.00    +0.000 N 
ATOM     19  C   UNL     1       1.385   9.077  18.859  0.00  0.00    +0.000 C 
ATOM     20  C   UNL     1       1.380  10.564  19.285  0.00  0.00    +0.000 C 
BRANCH  18  21
ATOM     21  C   UNL     1       2.179   6.892  19.647  0.00  0.00    +0.000 A 
ATOM     22  C   UNL     1       1.845   5.786  20.448  0.00  0.00    +0.000 A 
ATOM     23  C   UNL     1       2.308   4.496  20.157  0.00  0.00    +0.000 A 
ATOM     24  C   UNL     1       3.118   4.281  19.048  0.00  0.00    +0.000 A 
ATOM     25  C   UNL     1       3.450   5.355  18.233  0.00  0.00    +0.000 A 
ATOM     26 CL   UNL     1       4.467   5.115  16.865  0.00  0.00    +0.000 Cl
ATOM     27  C   UNL     1       2.985   6.638  18.526  0.00  0.00    +0.000 A 
ENDBRANCH  18  21
ENDBRANCH   7  15
TORSDOF 3
ENDMDL
MODEL 6
REMARK VINA RESULT:      -7.0      4.430      7.403
REMARK  Name = 
REMARK  3 active torsions:
REMARK  status: ('A' for Active; 'I' for Inactive)
REMARK    1  A    between atoms: C_2  and  C_3
REMARK    2  A    between atoms: C_13  and  N_14
REMARK    3  A    between atoms: N_17  and  C_18
REMARK                            x       y       z     vdW  Elec       q    Type
REMARK                         _______ _______ _______ _____ _____    ______ ____
ROOT
ATOM      1  O   UNL     1       3.268   9.111  17.549  0.00  0.00    +0.000 OA
ATOM      2  C   UNL     1       2.402   8.428  18.089  0.00  0.00    +0.000 C 
ATOM      3  N   UNL     1       2.539   7.047  18.275  0.00  0.00    +0.000 N 
ATOM      4  C   UNL     1       1.521   6.164  18.827  0.00  0.00    +0.000 C 
ATOM      5  C   UNL     1       1.934   5.839  20.249  0.00  0.00    +0.000 C 
ATOM      6  C   UNL     1       3.229   5.035  20.209  0.00  0.00    +0.000 C 
ATOM      7  C   UNL     1       4.343   5.620  19.302  0.00  0.00    +0.000 C 
ATOM      8  C   UNL     1       3.815   6.382  18.036  0.00  0.00    +0.000 C 
ENDROOT
BRANCH   2   9
ATOM      9  C   UNL     1       1.145   9.105  18.531  0.00  0.00    +0.000 A 
ATOM     10  C   UNL     1       0.982   9.432  19.869  0.00  0.00    +0.000 A 
ATOM     11  N   UNL     1      -0.067  10.178  20.311  0.00  0.00    +0.000 NA
ATOM     12  C   UNL     1      -0.944  10.571  19.358  0.00  0.00    +0.000 A 
ATOM     13  C   UNL     1      -0.811  10.202  18.031  0.00  0.00    +0.000 A 
ATOM     14  N   UNL     1       0.219   9.449  17.593  0.00  0.00    +0.000 NA
ENDBRANCH   2   9
BRANCH   7  15
ATOM     15  N   UNL     1       5.437   4.679  18.967  0.00  0.00    +0.000 NA
ATOM     16  C   UNL     1       5.045   3.532  18.129  0.00  0.00    +0.000 C 
ATOM     17  C   UNL     1       5.043   3.758  16.596  0.00  0.00    +0.000 C 
ATOM     18  N   UNL     1       6.296   4.380  16.132  0.00  0.00    +0.000 N 
ATOM     19  C   UNL     1       6.769   5.533  16.921  0.00  0.00    +0.000 C 
ATOM     20  C   UNL     1       6.694   5.245  18.440  0.00  0.00    +0.000 C 
BRANCH  18  21
ATOM     21  C   UNL     1       6.604   4.364  14.770  0.00  0.00    +0.000 A 
ATOM     22  C   UNL     1       7.562   5.212  14.189  0.00  0.00    +0.000 A 
ATOM     23  C   UNL     1       7.777   5.245  12.804  0.00  0.00    +0.000 A 
ATOM     24  C   UNL     1       7.037   4.422  11.965  0.00  0.00    +0.000 A 
ATOM     25  C   UNL     1       6.094   3.565  12.516  0.00  0.00    +0.000 A 
ATOM     26 CL   UNL     1       5.152   2.550  11.493  0.00  0.00    +0.000 Cl
ATOM     27  C   UNL     1       5.884   3.533  13.896  0.00  0.00    +0.000 A 
ENDBRANCH  18  21
ENDBRANCH   7  15
TORSDOF 3
ENDMDL
MODEL 7
REMARK VINA RESULT:      -6.8      7.079     11.150
REMARK  Name = 
REMARK  3 active torsions:
REMARK  status: ('A' for Active; 'I' for Inactive)
REMARK    1  A    between atoms: C_2  and  C_3
REMARK    2  A    between atoms: C_13  and  N_14
REMARK    3  A    between atoms: N_17  and  C_18
REMARK                            x       y       z     vdW  Elec       q    Type
REMARK                         _______ _______ _______ _____ _____    ______ ____
ROOT
ATOM      1  O   UNL     1       7.625  12.478  16.980  0.00  0.00    +0.000 OA
ATOM      2  C   UNL     1       8.226  13.221  17.751  0.00  0.00    +0.000 C 
ATOM      3  N   UNL     1       7.659  14.396  18.260  0.00  0.00    +0.000 N 
ATOM      4  C   UNL     1       8.340  15.365  19.108  0.00  0.00    +0.000 C 
ATOM      5  C   UNL     1       7.827  15.162  20.519  0.00  0.00    +0.000 C 
ATOM      6  C   UNL     1       6.346  15.521  20.557  0.00  0.00    +0.000 C 
ATOM      7  C   UNL     1       5.485  14.890  19.431  0.00  0.00    +0.000 C 
ATOM      8  C   UNL     1       6.241  14.686  18.073  0.00  0.00    +0.000 C 
ENDROOT
BRANCH   2   9
ATOM      9  C   UNL     1       9.626  12.860  18.130  0.00  0.00    +0.000 A 
ATOM     10  C   UNL     1       9.852  12.129  19.286  0.00  0.00    +0.000 A 
ATOM     11  N   UNL     1      11.081  11.644  19.609  0.00  0.00    +0.000 NA
ATOM     12  C   UNL     1      12.070  11.929  18.729  0.00  0.00    +0.000 A 
ATOM     13  C   UNL     1      11.856  12.703  17.601  0.00  0.00    +0.000 A 
ATOM     14  N   UNL     1      10.641  13.200  17.288  0.00  0.00    +0.000 NA
ENDBRANCH   2   9
BRANCH   7  15
ATOM     15  N   UNL     1       4.155  15.513  19.238  0.00  0.00    +0.000 NA
ATOM     16  C   UNL     1       3.487  15.188  17.964  0.00  0.00    +0.000 C 
ATOM     17  C   UNL     1       2.656  13.881  17.927  0.00  0.00    +0.000 C 
ATOM     18  N   UNL     1       1.737  13.784  19.075  0.00  0.00    +0.000 N 
ATOM     19  C   UNL     1       2.320  14.102  20.392  0.00  0.00    +0.000 C 
ATOM     20  C   UNL     1       3.172  15.392  20.333  0.00  0.00    +0.000 C 
BRANCH  18  21
ATOM     21  C   UNL     1       0.698  12.851  19.040  0.00  0.00    +0.000 A 
ATOM     22  C   UNL     1      -0.497  13.058  18.330  0.00  0.00    +0.000 A 
ATOM     23  C   UNL     1      -1.563  12.151  18.396  0.00  0.00    +0.000 A 
ATOM     24  C   UNL     1      -1.455  11.006  19.176  0.00  0.00    +0.000 A 
ATOM     25  C   UNL     1      -0.280  10.771  19.877  0.00  0.00    +0.000 A 
ATOM     26 CL   UNL     1      -0.131   9.369  20.863  0.00  0.00    +0.000 Cl
ATOM     27  C   UNL     1       0.781  11.677  19.806  0.00  0.00    +0.000 A 
ENDBRANCH  18  21
ENDBRANCH   7  15
TORSDOF 3
ENDMDL
MODEL 8
REMARK VINA RESULT:      -6.7      4.406      6.350
REMARK  Name = 
REMARK  3 active torsions:
REMARK  status: ('A' for Active; 'I' for Inactive)
REMARK    1  A    between atoms: C_2  and  C_3
REMARK    2  A    between atoms: C_13  and  N_14
REMARK    3  A    between atoms: N_17  and  C_18
REMARK                            x       y       z     vdW  Elec       q    Type
REMARK                         _______ _______ _______ _____ _____    ______ ____
ROOT
ATOM      1  O   UNL     1       3.685  13.905  18.320  0.00  0.00    +0.000 OA
ATOM      2  C   UNL     1       2.891  14.440  19.089  0.00  0.00    +0.000 C 
ATOM      3  N   UNL     1       1.637  13.887  19.382  0.00  0.00    +0.000 N 
ATOM      4  C   UNL     1       0.615  14.506  20.214  0.00  0.00    +0.000 C 
ATOM      5  C   UNL     1       0.629  13.789  21.548  0.00  0.00    +0.000 C 
ATOM      6  C   UNL     1       0.193  12.344  21.330  0.00  0.00    +0.000 C 
ATOM      7  C   UNL     1       0.903  11.609  20.163  0.00  0.00    +0.000 C 
ATOM      8  C   UNL     1       1.299  12.533  18.960  0.00  0.00    +0.000 C 
ENDROOT
BRANCH   2   9
ATOM      9  C   UNL     1       3.277  15.746  19.704  0.00  0.00    +0.000 A 
ATOM     10  C   UNL     1       2.806  16.926  19.149  0.00  0.00    +0.000 A 
ATOM     11  N   UNL     1       2.997  18.135  19.744  0.00  0.00    +0.000 NA
ATOM     12  C   UNL     1       3.684  18.108  20.910  0.00  0.00    +0.000 A 
ATOM     13  C   UNL     1       4.199  16.937  21.439  0.00  0.00    +0.000 A 
ATOM     14  N   UNL     1       4.026  15.739  20.842  0.00  0.00    +0.000 NA
ENDBRANCH   2   9
BRANCH   7  15
ATOM     15  N   UNL     1       0.239  10.364  19.712  0.00  0.00    +0.000 NA
ATOM     16  C   UNL     1       0.520   9.970  18.320  0.00  0.00    +0.000 C 
ATOM     17  C   UNL     1       1.803   9.134  18.078  0.00  0.00    +0.000 C 
ATOM     18  N   UNL     1       1.896   7.993  19.006  0.00  0.00    +0.000 N 
ATOM     19  C   UNL     1       1.619   8.295  20.424  0.00  0.00    +0.000 C 
ATOM     20  C   UNL     1       0.353   9.171  20.575  0.00  0.00    +0.000 C 
BRANCH  18  21
ATOM     21  C   UNL     1       2.798   6.962  18.733  0.00  0.00    +0.000 A 
ATOM     22  C   UNL     1       3.091   5.935  19.647  0.00  0.00    +0.000 A 
ATOM     23  C   UNL     1       4.075   4.972  19.388  0.00  0.00    +0.000 A 
ATOM     24  C   UNL     1       4.789   5.012  18.197  0.00  0.00    +0.000 A 
ATOM     25  C   UNL     1       4.510   6.008  17.271  0.00  0.00    +0.000 A 
ATOM     26 CL   UNL     1       5.396   6.087  15.798  0.00  0.00    +0.000 Cl
ATOM     27  C   UNL     1       3.527   6.964  17.533  0.00  0.00    +0.000 A 
ENDBRANCH  18  21
ENDBRANCH   7  15
TORSDOF 3
ENDMDL
MODEL 9
REMARK VINA RESULT:      -6.7      3.565      5.713
REMARK  Name = 
REMARK  3 active torsions:
REMARK  status: ('A' for Active; 'I' for Inactive)
REMARK    1  A    between atoms: C_2  and  C_3
REMARK    2  A    between atoms: C_13  and  N_14
REMARK    3  A    between atoms: N_17  and  C_18
REMARK                            x       y       z     vdW  Elec       q    Type
REMARK                         _______ _______ _______ _____ _____    ______ ____
ROOT
ATOM      1  O   UNL     1      -0.478   8.330  21.644  0.00  0.00    +0.000 OA
ATOM      2  C   UNL     1       0.015   9.063  20.792  0.00  0.00    +0.000 C 
ATOM      3  N   UNL     1       1.248   8.791  20.185  0.00  0.00    +0.000 N 
ATOM      4  C   UNL     1       1.931   9.657  19.235  0.00  0.00    +0.000 C 
ATOM      5  C   UNL     1       1.745   9.047  17.860  0.00  0.00    +0.000 C 
ATOM      6  C   UNL     1       2.467   7.705  17.820  0.00  0.00    +0.000 C 
ATOM      7  C   UNL     1       2.179   6.763  19.018  0.00  0.00    +0.000 C 
ATOM      8  C   UNL     1       1.906   7.503  20.374  0.00  0.00    +0.000 C 
ENDROOT
BRANCH   2   9
ATOM      9  C   UNL     1      -0.724  10.308  20.421  0.00  0.00    +0.000 A 
ATOM     10  C   UNL     1      -1.387  10.369  19.205  0.00  0.00    +0.000 A 
ATOM     11  N   UNL     1      -2.197  11.410  18.871  0.00  0.00    +0.000 NA
ATOM     12  C   UNL     1      -2.306  12.386  19.803  0.00  0.00    +0.000 A 
ATOM     13  C   UNL     1      -1.604  12.351  20.996  0.00  0.00    +0.000 A 
ATOM     14  N   UNL     1      -0.786  11.328  21.322  0.00  0.00    +0.000 NA
ENDBRANCH   2   9
BRANCH   7  15
ATOM     15  N   UNL     1       3.136   5.644  19.179  0.00  0.00    +0.000 NA
ATOM     16  C   UNL     1       2.885   4.472  18.321  0.00  0.00    +0.000 C 
ATOM     17  C   UNL     1       3.484   4.513  16.893  0.00  0.00    +0.000 C 
ATOM     18  N   UNL     1       4.908   4.893  16.907  0.00  0.00    +0.000 N 
ATOM     19  C   UNL     1       5.253   6.054  17.750  0.00  0.00    +0.000 C 
ATOM     20  C   UNL     1       4.578   5.961  19.139  0.00  0.00    +0.000 C 
BRANCH  18  21
ATOM     21  C   UNL     1       5.685   4.673  15.767  0.00  0.00    +0.000 A 
ATOM     22  C   UNL     1       7.011   5.122  15.644  0.00  0.00    +0.000 A 
ATOM     23  C   UNL     1       7.733   4.977  14.452  0.00  0.00    +0.000 A 
ATOM     24  C   UNL     1       7.142   4.370  13.351  0.00  0.00    +0.000 A 
ATOM     25  C   UNL     1       5.837   3.905  13.451  0.00  0.00    +0.000 A 
ATOM     26 CL   UNL     1       5.079   3.167  12.093  0.00  0.00    +0.000 Cl
ATOM     27  C   UNL     1       5.123   4.051  14.642  0.00  0.00    +0.000 A 
ENDBRANCH  18  21
ENDBRANCH   7  15
TORSDOF 3
ENDMDL
