MODEL 1
REMARK VINA RESULT:      -9.0      0.000      0.000
REMARK  Name = 
REMARK  8 active torsions:
REMARK  status: ('A' for Active; 'I' for Inactive)
REMARK    1  A    between atoms: C_1  and  C_2
REMARK    2  A    between atoms: C_4  and  C_5
REMARK    3  A    between atoms: C_6  and  C_7
REMARK    4  A    between atoms: C_10  and  C_11
REMARK    5  A    between atoms: C_14  and  C_15
REMARK    6  A    between atoms: C_15  and  C_16
REMARK    7  A    between atoms: C_16  and  O_18
REMARK    8  A    between atoms: C_26  and  C_27
REMARK                            x       y       z     vdW  Elec       q    Type
REMARK                         _______ _______ _______ _____ _____    ______ ____
ROOT
ATOM      1  C   UNL     1       0.536   9.370  20.449  0.00  0.00    +0.000 A 
ATOM      2  C   UNL     1       0.894   8.136  21.001  0.00  0.00    +0.000 A 
ATOM      3  C   UNL     1       1.781   7.273  20.381  0.00  0.00    +0.000 A 
ATOM      4  C   UNL     1       2.263   7.539  19.100  0.00  0.00    +0.000 A 
ATOM      5  C   UNL     1       1.825   8.716  18.479  0.00  0.00    +0.000 A 
ATOM      6  C   UNL     1       0.988   9.625  19.145  0.00  0.00    +0.000 A 
ENDROOT
BRANCH   1  12
ATOM      7  C   UNL     1      -2.654  13.069  23.382  0.00  0.00    +0.000 C 
ATOM      8  C   UNL     1      -1.801  12.139  22.581  0.00  0.00    +0.000 A 
ATOM      9  N   UNL     1      -1.158  11.189  23.307  0.00  0.00    +0.000 NA
ATOM     10  C   UNL     1      -0.375  10.306  22.635  0.00  0.00    +0.000 A 
ATOM     11  C   UNL     1       0.346   9.335  23.527  0.00  0.00    +0.000 C 
ATOM     12  C   UNL     1      -0.256  10.343  21.231  0.00  0.00    +0.000 A 
ATOM     13  N   UNL     1      -0.879  11.311  20.499  0.00  0.00    +0.000 NA
ATOM     14  C   UNL     1      -1.652  12.202  21.200  0.00  0.00    +0.000 A 
BRANCH  14  15
ATOM     15  C   UNL     1      -2.328  13.256  20.372  0.00  0.00    +0.000 C 
ATOM     16  N   UNL     1      -3.405  12.842  19.638  0.00  0.00    +0.000 N 
ATOM     17  O   UNL     1      -1.971  14.430  20.329  0.00  0.00    +0.000 OA
ATOM     18  H   UNL     1      -3.710  11.872  19.691  0.00  0.00    +0.000 HD
ATOM     19  H   UNL     1      -3.913  13.509  19.081  0.00  0.00    +0.000 HD
ENDBRANCH  14  15
ENDBRANCH   1  12
BRANCH   4  20
ATOM     20  C   UNL     1       3.222   6.568  18.415  0.00  0.00    +0.000 C 
ATOM     21  C   UNL     1       3.989   7.220  17.231  0.00  0.00    +0.000 C 
ATOM     22  C   UNL     1       4.949   6.248  16.562  0.00  0.00    +0.000 C 
ATOM     23  C   UNL     1       4.869   4.859  17.227  0.00  0.00    +0.000 C 
ATOM     24  C   UNL     1       3.402   4.364  17.173  0.00  0.00    +0.000 C 
ATOM     25  C   UNL     1       2.446   5.360  17.839  0.00  0.00    +0.000 C 
ATOM     26  C   UNL     1       5.236   5.037  18.719  0.00  0.00    +0.000 C 
ATOM     27  C   UNL     1       4.284   6.029  19.406  0.00  0.00    +0.000 C 
BRANCH  23  28
ATOM     28  C   UNL     1       5.780   3.850  16.512  0.00  0.00    +0.000 C 
BRANCH  28  29
ATOM     29  C   UNL     1       7.177   4.359  16.232  0.00  0.00    +0.000 C 
ATOM     30  O   UNL     1       7.510   4.898  15.189  0.00  0.00    +0.000 OA
BRANCH  29  31
ATOM     31  O   UNL     1       8.046   4.141  17.244  0.00  0.00    +0.000 OA
ATOM     32  H   UNL     1       8.571   4.922  17.498  0.00  0.00    +0.000 HD
ENDBRANCH  29  31
ENDBRANCH  28  29
ENDBRANCH  23  28
ENDBRANCH   4  20
TORSDOF 6
ENDMDL
MODEL 2
REMARK VINA RESULT:      -9.0      0.585      1.412
REMARK  Name = 
REMARK  8 active torsions:
REMARK  status: ('A' for Active; 'I' for Inactive)
REMARK    1  A    between atoms: C_1  and  C_2
REMARK    2  A    between atoms: C_4  and  C_5
REMARK    3  A    between atoms: C_6  and  C_7
REMARK    4  A    between atoms: C_10  and  C_11
REMARK    5  A    between atoms: C_14  and  C_15
REMARK    6  A    between atoms: C_15  and  C_16
REMARK    7  A    between atoms: C_16  and  O_18
REMARK    8  A    between atoms: C_26  and  C_27
REMARK                            x       y       z     vdW  Elec       q    Type
REMARK                         _______ _______ _______ _____ _____    ______ ____
ROOT
ATOM      1  C   UNL     1       0.496   9.331  20.458  0.00  0.00    +0.000 A 
ATOM      2  C   UNL     1       0.875   8.108  21.020  0.00  0.00    +0.000 A 
ATOM      3  C   UNL     1       1.764   7.247  20.399  0.00  0.00    +0.000 A 
ATOM      4  C   UNL     1       2.224   7.500  19.108  0.00  0.00    +0.000 A 
ATOM      5  C   UNL     1       1.764   8.665  18.478  0.00  0.00    +0.000 A 
ATOM      6  C   UNL     1       0.926   9.573  19.144  0.00  0.00    +0.000 A 
ENDROOT
BRANCH   1  12
ATOM      7  C   UNL     1      -2.694  13.030  23.392  0.00  0.00    +0.000 C 
ATOM      8  C   UNL     1      -1.843  12.099  22.589  0.00  0.00    +0.000 A 
ATOM      9  N   UNL     1      -1.148  11.190  23.319  0.00  0.00    +0.000 NA
ATOM     10  C   UNL     1      -0.364  10.308  22.646  0.00  0.00    +0.000 A 
ATOM     11  C   UNL     1       0.416   9.385  23.540  0.00  0.00    +0.000 C 
ATOM     12  C   UNL     1      -0.296  10.305  21.238  0.00  0.00    +0.000 A 
ATOM     13  N   UNL     1      -0.972  11.232  20.501  0.00  0.00    +0.000 NA
ATOM     14  C   UNL     1      -1.744  12.123  21.202  0.00  0.00    +0.000 A 
BRANCH  14  15
ATOM     15  C   UNL     1      -2.479  13.132  20.367  0.00  0.00    +0.000 C 
ATOM     16  N   UNL     1      -1.750  14.212  19.952  0.00  0.00    +0.000 N 
ATOM     17  O   UNL     1      -3.661  13.031  20.050  0.00  0.00    +0.000 OA
ATOM     18  H   UNL     1      -0.765  14.282  20.200  0.00  0.00    +0.000 HD
ATOM     19  H   UNL     1      -2.183  14.910  19.370  0.00  0.00    +0.000 HD
ENDBRANCH  14  15
ENDBRANCH   1  12
BRANCH   4  20
ATOM     20  C   UNL     1       3.183   6.531  18.422  0.00  0.00    +0.000 C 
ATOM     21  C   UNL     1       4.258   5.966  19.393  0.00  0.00    +0.000 C 
ATOM     22  C   UNL     1       5.202   4.993  18.702  0.00  0.00    +0.000 C 
ATOM     23  C   UNL     1       4.851   4.862  17.207  0.00  0.00    +0.000 C 
ATOM     24  C   UNL     1       4.886   6.270  16.561  0.00  0.00    +0.000 C 
ATOM     25  C   UNL     1       3.940   7.241  17.276  0.00  0.00    +0.000 C 
ATOM     26  C   UNL     1       3.393   4.354  17.115  0.00  0.00    +0.000 C 
ATOM     27  C   UNL     1       2.427   5.318  17.821  0.00  0.00    +0.000 C 
BRANCH  23  28
ATOM     28  C   UNL     1       5.844   3.939  16.485  0.00  0.00    +0.000 C 
BRANCH  28  29
ATOM     29  C   UNL     1       7.246   4.495  16.375  0.00  0.00    +0.000 C 
ATOM     30  O   UNL     1       8.091   4.392  17.250  0.00  0.00    +0.000 OA
BRANCH  29  31
ATOM     31  O   UNL     1       7.481   5.149  15.217  0.00  0.00    +0.000 OA
ATOM     32  H   UNL     1       6.728   5.150  14.596  0.00  0.00    +0.000 HD
ENDBRANCH  29  31
ENDBRANCH  28  29
ENDBRANCH  23  28
ENDBRANCH   4  20
TORSDOF 6
ENDMDL
MODEL 3
REMARK VINA RESULT:      -8.9      0.760      1.634
REMARK  Name = 
REMARK  8 active torsions:
REMARK  status: ('A' for Active; 'I' for Inactive)
REMARK    1  A    between atoms: C_1  and  C_2
REMARK    2  A    between atoms: C_4  and  C_5
REMARK    3  A    between atoms: C_6  and  C_7
REMARK    4  A    between atoms: C_10  and  C_11
REMARK    5  A    between atoms: C_14  and  C_15
REMARK    6  A    between atoms: C_15  and  C_16
REMARK    7  A    between atoms: C_16  and  O_18
REMARK    8  A    between atoms: C_26  and  C_27
REMARK                            x       y       z     vdW  Elec       q    Type
REMARK                         _______ _______ _______ _____ _____    ______ ____
ROOT
ATOM      1  C   UNL     1       0.704   9.204  20.592  0.00  0.00    +0.000 A 
ATOM      2  C   UNL     1       1.277   9.478  19.347  0.00  0.00    +0.000 A 
ATOM      3  C   UNL     1       2.033   8.547  18.655  0.00  0.00    +0.000 A 
ATOM      4  C   UNL     1       2.373   7.325  19.235  0.00  0.00    +0.000 A 
ATOM      5  C   UNL     1       1.905   7.077  20.533  0.00  0.00    +0.000 A 
ATOM      6  C   UNL     1       1.072   7.992  21.196  0.00  0.00    +0.000 A 
ENDROOT
BRANCH   1  12
ATOM      7  C   UNL     1      -3.113  12.774  22.864  0.00  0.00    +0.000 C 
ATOM      8  C   UNL     1      -2.097  11.876  22.234  0.00  0.00    +0.000 A 
ATOM      9  N   UNL     1      -1.432  11.073  23.102  0.00  0.00    +0.000 NA
ATOM     10  C   UNL     1      -0.502  10.225  22.590  0.00  0.00    +0.000 A 
ATOM     11  C   UNL     1       0.228   9.424  23.631  0.00  0.00    +0.000 C 
ATOM     12  C   UNL     1      -0.255  10.149  21.204  0.00  0.00    +0.000 A 
ATOM     13  N   UNL     1      -0.902  10.972  20.330  0.00  0.00    +0.000 NA
ATOM     14  C   UNL     1      -1.824  11.831  20.871  0.00  0.00    +0.000 A 
BRANCH  14  15
ATOM     15  C   UNL     1      -2.523  12.725  19.888  0.00  0.00    +0.000 C 
ATOM     16  N   UNL     1      -1.937  13.939  19.658  0.00  0.00    +0.000 N 
ATOM     17  O   UNL     1      -3.559  12.423  19.300  0.00  0.00    +0.000 OA
ATOM     18  H   UNL     1      -1.068  14.177  20.132  0.00  0.00    +0.000 HD
ATOM     19  H   UNL     1      -2.348  14.571  18.992  0.00  0.00    +0.000 HD
ENDBRANCH  14  15
ENDBRANCH   1  12
BRANCH   4  20
ATOM     20  C   UNL     1       3.229   6.316  18.474  0.00  0.00    +0.000 C 
ATOM     21  C   UNL     1       4.312   5.654  19.370  0.00  0.00    +0.000 C 
ATOM     22  C   UNL     1       5.152   4.643  18.605  0.00  0.00    +0.000 C 
ATOM     23  C   UNL     1       4.717   4.579  17.128  0.00  0.00    +0.000 C 
ATOM     24  C   UNL     1       4.812   6.001  16.518  0.00  0.00    +0.000 C 
ATOM     25  C   UNL     1       3.971   7.010  17.308  0.00  0.00    +0.000 C 
ATOM     26  C   UNL     1       3.225   4.170  17.100  0.00  0.00    +0.000 C 
ATOM     27  C   UNL     1       2.364   5.174  17.882  0.00  0.00    +0.000 C 
BRANCH  23  28
ATOM     28  C   UNL     1       5.608   3.616  16.330  0.00  0.00    +0.000 C 
BRANCH  28  29
ATOM     29  C   UNL     1       6.790   4.274  15.654  0.00  0.00    +0.000 C 
ATOM     30  O   UNL     1       6.820   4.576  14.472  0.00  0.00    +0.000 OA
BRANCH  29  31
ATOM     31  O   UNL     1       7.840   4.480  16.480  0.00  0.00    +0.000 OA
ATOM     32  H   UNL     1       8.070   5.419  16.610  0.00  0.00    +0.000 HD
ENDBRANCH  29  31
ENDBRANCH  28  29
ENDBRANCH  23  28
ENDBRANCH   4  20
TORSDOF 6
ENDMDL
MODEL 4
REMARK VINA RESULT:      -8.9      0.749      1.289
REMARK  Name = 
REMARK  8 active torsions:
REMARK  status: ('A' for Active; 'I' for Inactive)
REMARK    1  A    between atoms: C_1  and  C_2
REMARK    2  A    between atoms: C_4  and  C_5
REMARK    3  A    between atoms: C_6  and  C_7
REMARK    4  A    between atoms: C_10  and  C_11
REMARK    5  A    between atoms: C_14  and  C_15
REMARK    6  A    between atoms: C_15  and  C_16
REMARK    7  A    between atoms: C_16  and  O_18
REMARK    8  A    between atoms: C_26  and  C_27
REMARK                            x       y       z     vdW  Elec       q    Type
REMARK                         _______ _______ _______ _____ _____    ______ ____
ROOT
ATOM      1  C   UNL     1       0.673   9.260  20.627  0.00  0.00    +0.000 A 
ATOM      2  C   UNL     1       1.214   9.542  19.368  0.00  0.00    +0.000 A 
ATOM      3  C   UNL     1       1.976   8.626  18.664  0.00  0.00    +0.000 A 
ATOM      4  C   UNL     1       2.355   7.415  19.240  0.00  0.00    +0.000 A 
ATOM      5  C   UNL     1       1.921   7.161  20.549  0.00  0.00    +0.000 A 
ATOM      6  C   UNL     1       1.082   8.060  21.227  0.00  0.00    +0.000 A 
ENDROOT
BRANCH   1  12
ATOM      7  C   UNL     1      -3.173  12.755  22.964  0.00  0.00    +0.000 C 
ATOM      8  C   UNL     1      -2.149  11.877  22.318  0.00  0.00    +0.000 A 
ATOM      9  N   UNL     1      -1.472  11.069  23.172  0.00  0.00    +0.000 NA
ATOM     10  C   UNL     1      -0.536  10.239  22.644  0.00  0.00    +0.000 A 
ATOM     11  C   UNL     1       0.207   9.431  23.670  0.00  0.00    +0.000 C 
ATOM     12  C   UNL     1      -0.293  10.186  21.256  0.00  0.00    +0.000 A 
ATOM     13  N   UNL     1      -0.952  11.015  20.396  0.00  0.00    +0.000 NA
ATOM     14  C   UNL     1      -1.882  11.855  20.953  0.00  0.00    +0.000 A 
BRANCH  14  15
ATOM     15  C   UNL     1      -2.594  12.756  19.986  0.00  0.00    +0.000 C 
ATOM     16  N   UNL     1      -1.978  13.944  19.706  0.00  0.00    +0.000 N 
ATOM     17  O   UNL     1      -3.666  12.480  19.452  0.00  0.00    +0.000 OA
ATOM     18  H   UNL     1      -1.080  14.160  20.135  0.00  0.00    +0.000 HD
ATOM     19  H   UNL     1      -2.397  14.578  19.047  0.00  0.00    +0.000 HD
ENDBRANCH  14  15
ENDBRANCH   1  12
BRANCH   4  20
ATOM     20  C   UNL     1       3.217   6.422  18.464  0.00  0.00    +0.000 C 
ATOM     21  C   UNL     1       3.969   7.085  17.276  0.00  0.00    +0.000 C 
ATOM     22  C   UNL     1       4.833   6.091  16.516  0.00  0.00    +0.000 C 
ATOM     23  C   UNL     1       4.696   4.678  17.117  0.00  0.00    +0.000 C 
ATOM     24  C   UNL     1       3.199   4.277  17.112  0.00  0.00    +0.000 C 
ATOM     25  C   UNL     1       2.341   5.295  17.870  0.00  0.00    +0.000 C 
ATOM     26  C   UNL     1       5.142   4.758  18.596  0.00  0.00    +0.000 C 
ATOM     27  C   UNL     1       4.288   5.770  19.376  0.00  0.00    +0.000 C 
BRANCH  23  28
ATOM     28  C   UNL     1       5.507   3.653  16.311  0.00  0.00    +0.000 C 
BRANCH  28  29
ATOM     29  C   UNL     1       6.800   4.190  15.739  0.00  0.00    +0.000 C 
ATOM     30  O   UNL     1       7.782   4.463  16.410  0.00  0.00    +0.000 OA
BRANCH  29  31
ATOM     31  O   UNL     1       6.767   4.369  14.400  0.00  0.00    +0.000 OA
ATOM     32  H   UNL     1       6.244   5.141  14.111  0.00  0.00    +0.000 HD
ENDBRANCH  29  31
ENDBRANCH  28  29
ENDBRANCH  23  28
ENDBRANCH   4  20
TORSDOF 6
ENDMDL
MODEL 5
REMARK VINA RESULT:      -8.9      0.752      1.621
REMARK  Name = 
REMARK  8 active torsions:
REMARK  status: ('A' for Active; 'I' for Inactive)
REMARK    1  A    between atoms: C_1  and  C_2
REMARK    2  A    between atoms: C_4  and  C_5
REMARK    3  A    between atoms: C_6  and  C_7
REMARK    4  A    between atoms: C_10  and  C_11
REMARK    5  A    between atoms: C_14  and  C_15
REMARK    6  A    between atoms: C_15  and  C_16
REMARK    7  A    between atoms: C_16  and  O_18
REMARK    8  A    between atoms: C_26  and  C_27
REMARK                            x       y       z     vdW  Elec       q    Type
REMARK                         _______ _______ _______ _____ _____    ______ ____
ROOT
ATOM      1  C   UNL     1       0.700   9.241  20.588  0.00  0.00    +0.000 A 
ATOM      2  C   UNL     1       1.203   9.495  19.308  0.00  0.00    +0.000 A 
ATOM      3  C   UNL     1       1.955   8.568  18.606  0.00  0.00    +0.000 A 
ATOM      4  C   UNL     1       2.362   7.376  19.203  0.00  0.00    +0.000 A 
ATOM      5  C   UNL     1       1.967   7.152  20.529  0.00  0.00    +0.000 A 
ATOM      6  C   UNL     1       1.138   8.060  21.207  0.00  0.00    +0.000 A 
ENDROOT
BRANCH   1  12
ATOM      7  C   UNL     1      -3.116  12.762  22.934  0.00  0.00    +0.000 C 
ATOM      8  C   UNL     1      -2.100  11.877  22.285  0.00  0.00    +0.000 A 
ATOM      9  N   UNL     1      -1.426  11.065  23.138  0.00  0.00    +0.000 NA
ATOM     10  C   UNL     1      -0.496  10.228  22.607  0.00  0.00    +0.000 A 
ATOM     11  C   UNL     1       0.244   9.416  23.632  0.00  0.00    +0.000 C 
ATOM     12  C   UNL     1      -0.258  10.173  21.219  0.00  0.00    +0.000 A 
ATOM     13  N   UNL     1      -0.914  11.005  20.361  0.00  0.00    +0.000 NA
ATOM     14  C   UNL     1      -1.837  11.853  20.920  0.00  0.00    +0.000 A 
BRANCH  14  15
ATOM     15  C   UNL     1      -2.546  12.757  19.954  0.00  0.00    +0.000 C 
ATOM     16  N   UNL     1      -1.912  13.931  19.655  0.00  0.00    +0.000 N 
ATOM     17  O   UNL     1      -3.630  12.496  19.437  0.00  0.00    +0.000 OA
ATOM     18  H   UNL     1      -1.005  14.135  20.070  0.00  0.00    +0.000 HD
ATOM     19  H   UNL     1      -2.329  14.567  18.996  0.00  0.00    +0.000 HD
ENDBRANCH  14  15
ENDBRANCH   1  12
BRANCH   4  20
ATOM     20  C   UNL     1       3.213   6.372  18.429  0.00  0.00    +0.000 C 
ATOM     21  C   UNL     1       2.372   5.206  17.838  0.00  0.00    +0.000 C 
ATOM     22  C   UNL     1       3.228   4.217  17.060  0.00  0.00    +0.000 C 
ATOM     23  C   UNL     1       4.712   4.629  17.103  0.00  0.00    +0.000 C 
ATOM     24  C   UNL     1       5.154   4.747  18.584  0.00  0.00    +0.000 C 
ATOM     25  C   UNL     1       4.276   5.737  19.357  0.00  0.00    +0.000 C 
ATOM     26  C   UNL     1       4.821   6.041  16.480  0.00  0.00    +0.000 C 
ATOM     27  C   UNL     1       3.950   7.049  17.246  0.00  0.00    +0.000 C 
BRANCH  23  28
ATOM     28  C   UNL     1       5.594   3.597  16.383  0.00  0.00    +0.000 C 
BRANCH  28  29
ATOM     29  C   UNL     1       6.757   4.193  15.622  0.00  0.00    +0.000 C 
ATOM     30  O   UNL     1       6.757   4.385  14.417  0.00  0.00    +0.000 OA
BRANCH  29  31
ATOM     31  O   UNL     1       7.825   4.476  16.400  0.00  0.00    +0.000 OA
ATOM     32  H   UNL     1       7.730   5.288  16.933  0.00  0.00    +0.000 HD
ENDBRANCH  29  31
ENDBRANCH  28  29
ENDBRANCH  23  28
ENDBRANCH   4  20
TORSDOF 6
ENDMDL
MODEL 6
REMARK VINA RESULT:      -8.8      3.231      9.907
REMARK  Name = 
REMARK  8 active torsions:
REMARK  status: ('A' for Active; 'I' for Inactive)
REMARK    1  A    between atoms: C_1  and  C_2
REMARK    2  A    between atoms: C_4  and  C_5
REMARK    3  A    between atoms: C_6  and  C_7
REMARK    4  A    between atoms: C_10  and  C_11
REMARK    5  A    between atoms: C_14  and  C_15
REMARK    6  A    between atoms: C_15  and  C_16
REMARK    7  A    between atoms: C_16  and  O_18
REMARK    8  A    between atoms: C_26  and  C_27
REMARK                            x       y       z     vdW  Elec       q    Type
REMARK                         _______ _______ _______ _____ _____    ______ ____
ROOT
ATOM      1  C   UNL     1       2.516   7.178  18.709  0.00  0.00    +0.000 A 
ATOM      2  C   UNL     1       1.995   8.279  18.022  0.00  0.00    +0.000 A 
ATOM      3  C   UNL     1       1.316   9.301  18.662  0.00  0.00    +0.000 A 
ATOM      4  C   UNL     1       1.000   9.214  20.017  0.00  0.00    +0.000 A 
ATOM      5  C   UNL     1       1.413   8.063  20.702  0.00  0.00    +0.000 A 
ATOM      6  C   UNL     1       2.171   7.067  20.065  0.00  0.00    +0.000 A 
ENDROOT
BRANCH   1  12
ATOM      7  C   UNL     1       6.020   3.448  16.203  0.00  0.00    +0.000 C 
ATOM      8  C   UNL     1       5.125   4.466  16.834  0.00  0.00    +0.000 A 
ATOM      9  N   UNL     1       3.832   4.079  16.973  0.00  0.00    +0.000 NA
ATOM     10  C   UNL     1       2.970   4.956  17.550  0.00  0.00    +0.000 A 
ATOM     11  C   UNL     1       1.550   4.467  17.602  0.00  0.00    +0.000 C 
ATOM     12  C   UNL     1       3.401   6.213  18.023  0.00  0.00    +0.000 A 
ATOM     13  N   UNL     1       4.694   6.616  17.863  0.00  0.00    +0.000 NA
ATOM     14  C   UNL     1       5.542   5.721  17.263  0.00  0.00    +0.000 A 
BRANCH  14  15
ATOM     15  C   UNL     1       6.959   6.189  17.100  0.00  0.00    +0.000 C 
ATOM     16  N   UNL     1       7.646   6.437  18.257  0.00  0.00    +0.000 N 
ATOM     17  O   UNL     1       7.509   6.350  16.014  0.00  0.00    +0.000 OA
ATOM     18  H   UNL     1       7.194   6.283  19.156  0.00  0.00    +0.000 HD
ATOM     19  H   UNL     1       8.608   6.731  18.210  0.00  0.00    +0.000 HD
ENDBRANCH  14  15
ENDBRANCH   1  12
BRANCH   4  20
ATOM     20  C   UNL     1       0.228  10.336  20.707  0.00  0.00    +0.000 C 
ATOM     21  C   UNL     1       1.077  11.626  20.884  0.00  0.00    +0.000 C 
ATOM     22  C   UNL     1       0.296  12.741  21.562  0.00  0.00    +0.000 C 
ATOM     23  C   UNL     1      -1.126  12.267  21.924  0.00  0.00    +0.000 C 
ATOM     24  C   UNL     1      -1.019  11.002  22.813  0.00  0.00    +0.000 C 
ATOM     25  C   UNL     1      -0.218   9.894  22.121  0.00  0.00    +0.000 C 
ATOM     26  C   UNL     1      -1.823  11.844  20.610  0.00  0.00    +0.000 C 
ATOM     27  C   UNL     1      -1.038  10.728  19.903  0.00  0.00    +0.000 C 
BRANCH  23  28
ATOM     28  C   UNL     1      -1.899  13.361  22.676  0.00  0.00    +0.000 C 
BRANCH  28  29
ATOM     29  C   UNL     1      -3.396  13.152  22.716  0.00  0.00    +0.000 C 
ATOM     30  O   UNL     1      -3.942  12.246  23.324  0.00  0.00    +0.000 OA
BRANCH  29  31
ATOM     31  O   UNL     1      -4.089  14.056  21.989  0.00  0.00    +0.000 OA
ATOM     32  H   UNL     1      -3.621  14.900  21.844  0.00  0.00    +0.000 HD
ENDBRANCH  29  31
ENDBRANCH  28  29
ENDBRANCH  23  28
ENDBRANCH   4  20
TORSDOF 6
ENDMDL
MODEL 7
REMARK VINA RESULT:      -8.8      0.211      1.151
REMARK  Name = 
REMARK  8 active torsions:
REMARK  status: ('A' for Active; 'I' for Inactive)
REMARK    1  A    between atoms: C_1  and  C_2
REMARK    2  A    between atoms: C_4  and  C_5
REMARK    3  A    between atoms: C_6  and  C_7
REMARK    4  A    between atoms: C_10  and  C_11
REMARK    5  A    between atoms: C_14  and  C_15
REMARK    6  A    between atoms: C_15  and  C_16
REMARK    7  A    between atoms: C_16  and  O_18
REMARK    8  A    between atoms: C_26  and  C_27
REMARK                            x       y       z     vdW  Elec       q    Type
REMARK                         _______ _______ _______ _____ _____    ______ ____
ROOT
ATOM      1  C   UNL     1       0.495   9.460  20.485  0.00  0.00    +0.000 A 
ATOM      2  C   UNL     1       0.857   8.237  21.059  0.00  0.00    +0.000 A 
ATOM      3  C   UNL     1       1.729   7.355  20.444  0.00  0.00    +0.000 A 
ATOM      4  C   UNL     1       2.189   7.588  19.148  0.00  0.00    +0.000 A 
ATOM      5  C   UNL     1       1.746   8.754  18.508  0.00  0.00    +0.000 A 
ATOM      6  C   UNL     1       0.925   9.682  19.168  0.00  0.00    +0.000 A 
ENDROOT
BRANCH   1  12
ATOM      7  C   UNL     1      -2.622  13.252  23.378  0.00  0.00    +0.000 C 
ATOM      8  C   UNL     1      -1.785  12.297  22.589  0.00  0.00    +0.000 A 
ATOM      9  N   UNL     1      -1.218  11.301  23.317  0.00  0.00    +0.000 NA
ATOM     10  C   UNL     1      -0.454  10.394  22.656  0.00  0.00    +0.000 A 
ATOM     11  C   UNL     1       0.184   9.370  23.552  0.00  0.00    +0.000 C 
ATOM     12  C   UNL     1      -0.278  10.454  21.258  0.00  0.00    +0.000 A 
ATOM     13  N   UNL     1      -0.824  11.467  20.526  0.00  0.00    +0.000 NA
ATOM     14  C   UNL     1      -1.578  12.381  21.216  0.00  0.00    +0.000 A 
BRANCH  14  15
ATOM     15  C   UNL     1      -2.169  13.484  20.387  0.00  0.00    +0.000 C 
ATOM     16  N   UNL     1      -3.367  13.207  19.787  0.00  0.00    +0.000 N 
ATOM     17  O   UNL     1      -1.646  14.584  20.233  0.00  0.00    +0.000 OA
ATOM     18  H   UNL     1      -3.808  12.301  19.932  0.00  0.00    +0.000 HD
ATOM     19  H   UNL     1      -3.822  13.917  19.237  0.00  0.00    +0.000 HD
ENDBRANCH  14  15
ENDBRANCH   1  12
BRANCH   4  20
ATOM     20  C   UNL     1       3.131   6.597  18.469  0.00  0.00    +0.000 C 
ATOM     21  C   UNL     1       2.381   5.372  17.873  0.00  0.00    +0.000 C 
ATOM     22  C   UNL     1       3.327   4.396  17.190  0.00  0.00    +0.000 C 
ATOM     23  C   UNL     1       4.786   4.877  17.309  0.00  0.00    +0.000 C 
ATOM     24  C   UNL     1       5.127   5.070  18.808  0.00  0.00    +0.000 C 
ATOM     25  C   UNL     1       4.158   6.046  19.485  0.00  0.00    +0.000 C 
ATOM     26  C   UNL     1       4.873   6.268  16.639  0.00  0.00    +0.000 C 
ATOM     27  C   UNL     1       3.912   7.264  17.308  0.00  0.00    +0.000 C 
BRANCH  23  28
ATOM     28  C   UNL     1       5.756   3.861  16.686  0.00  0.00    +0.000 C 
BRANCH  28  29
ATOM     29  C   UNL     1       7.185   4.345  16.583  0.00  0.00    +0.000 C 
ATOM     30  O   UNL     1       7.652   4.884  15.592  0.00  0.00    +0.000 OA
BRANCH  29  31
ATOM     31  O   UNL     1       7.920   4.104  17.690  0.00  0.00    +0.000 OA
ATOM     32  H   UNL     1       8.877   4.262  17.579  0.00  0.00    +0.000 HD
ENDBRANCH  29  31
ENDBRANCH  28  29
ENDBRANCH  23  28
ENDBRANCH   4  20
TORSDOF 6
ENDMDL
MODEL 8
REMARK VINA RESULT:      -8.8      3.186      9.858
REMARK  Name = 
REMARK  8 active torsions:
REMARK  status: ('A' for Active; 'I' for Inactive)
REMARK    1  A    between atoms: C_1  and  C_2
REMARK    2  A    between atoms: C_4  and  C_5
REMARK    3  A    between atoms: C_6  and  C_7
REMARK    4  A    between atoms: C_10  and  C_11
REMARK    5  A    between atoms: C_14  and  C_15
REMARK    6  A    between atoms: C_15  and  C_16
REMARK    7  A    between atoms: C_16  and  O_18
REMARK    8  A    between atoms: C_26  and  C_27
REMARK                            x       y       z     vdW  Elec       q    Type
REMARK                         _______ _______ _______ _____ _____    ______ ____
ROOT
ATOM      1  C   UNL     1       2.558   7.246  18.565  0.00  0.00    +0.000 A 
ATOM      2  C   UNL     1       2.024   8.349  17.891  0.00  0.00    +0.000 A 
ATOM      3  C   UNL     1       1.344   9.362  18.544  0.00  0.00    +0.000 A 
ATOM      4  C   UNL     1       1.041   9.263  19.901  0.00  0.00    +0.000 A 
ATOM      5  C   UNL     1       1.466   8.109  20.573  0.00  0.00    +0.000 A 
ATOM      6  C   UNL     1       2.225   7.123  19.922  0.00  0.00    +0.000 A 
ENDROOT
BRANCH   1  12
ATOM      7  C   UNL     1       6.076   3.578  15.989  0.00  0.00    +0.000 C 
ATOM      8  C   UNL     1       5.171   4.579  16.632  0.00  0.00    +0.000 A 
ATOM      9  N   UNL     1       3.938   4.109  16.952  0.00  0.00    +0.000 NA
ATOM     10  C   UNL     1       3.073   4.968  17.549  0.00  0.00    +0.000 A 
ATOM     11  C   UNL     1       1.713   4.379  17.805  0.00  0.00    +0.000 C 
ATOM     12  C   UNL     1       3.443   6.292  17.864  0.00  0.00    +0.000 A 
ATOM     13  N   UNL     1       4.671   6.776  17.522  0.00  0.00    +0.000 NA
ATOM     14  C   UNL     1       5.523   5.897  16.905  0.00  0.00    +0.000 A 
BRANCH  14  15
ATOM     15  C   UNL     1       6.869   6.454  16.541  0.00  0.00    +0.000 C 
ATOM     16  N   UNL     1       7.309   7.503  17.300  0.00  0.00    +0.000 N 
ATOM     17  O   UNL     1       7.567   6.022  15.627  0.00  0.00    +0.000 OA
ATOM     18  H   UNL     1       6.736   7.845  18.069  0.00  0.00    +0.000 HD
ATOM     19  H   UNL     1       8.214   7.903  17.117  0.00  0.00    +0.000 HD
ENDBRANCH  14  15
ENDBRANCH   1  12
BRANCH   4  20
ATOM     20  C   UNL     1       0.267  10.375  20.607  0.00  0.00    +0.000 C 
ATOM     21  C   UNL     1      -0.184   9.973  22.039  0.00  0.00    +0.000 C 
ATOM     22  C   UNL     1      -0.944  11.090  22.737  0.00  0.00    +0.000 C 
ATOM     23  C   UNL     1      -1.089  12.313  21.809  0.00  0.00    +0.000 C 
ATOM     24  C   UNL     1      -1.782  11.864  20.497  0.00  0.00    +0.000 C 
ATOM     25  C   UNL     1      -1.012  10.729  19.813  0.00  0.00    +0.000 C 
ATOM     26  C   UNL     1       0.335  12.784  21.434  0.00  0.00    +0.000 C 
ATOM     27  C   UNL     1       1.123  11.660  20.741  0.00  0.00    +0.000 C 
BRANCH  23  28
ATOM     28  C   UNL     1      -1.920  13.419  22.477  0.00  0.00    +0.000 C 
BRANCH  28  29
ATOM     29  C   UNL     1      -3.415  13.261  22.316  0.00  0.00    +0.000 C 
ATOM     30  O   UNL     1      -4.095  13.937  21.560  0.00  0.00    +0.000 OA
BRANCH  29  31
ATOM     31  O   UNL     1      -3.948  12.308  23.112  0.00  0.00    +0.000 OA
ATOM     32  H   UNL     1      -3.594  12.300  24.021  0.00  0.00    +0.000 HD
ENDBRANCH  29  31
ENDBRANCH  28  29
ENDBRANCH  23  28
ENDBRANCH   4  20
TORSDOF 6
ENDMDL
MODEL 9
REMARK VINA RESULT:      -8.7      3.179      9.866
REMARK  Name = 
REMARK  8 active torsions:
REMARK  status: ('A' for Active; 'I' for Inactive)
REMARK    1  A    between atoms: C_1  and  C_2
REMARK    2  A    between atoms: C_4  and  C_5
REMARK    3  A    between atoms: C_6  and  C_7
REMARK    4  A    between atoms: C_10  and  C_11
REMARK    5  A    between atoms: C_14  and  C_15
REMARK    6  A    between atoms: C_15  and  C_16
REMARK    7  A    between atoms: C_16  and  O_18
REMARK    8  A    between atoms: C_26  and  C_27
REMARK                            x       y       z     vdW  Elec       q    Type
REMARK                         _______ _______ _______ _____ _____    ______ ____
ROOT
ATOM      1  C   UNL     1       2.547   7.231  18.577  0.00  0.00    +0.000 A 
ATOM      2  C   UNL     1       1.975   8.315  17.904  0.00  0.00    +0.000 A 
ATOM      3  C   UNL     1       1.284   9.318  18.562  0.00  0.00    +0.000 A 
ATOM      4  C   UNL     1       1.009   9.224  19.926  0.00  0.00    +0.000 A 
ATOM      5  C   UNL     1       1.474   8.086  20.599  0.00  0.00    +0.000 A 
ATOM      6  C   UNL     1       2.243   7.112  19.942  0.00  0.00    +0.000 A 
ENDROOT
BRANCH   1  12
ATOM      7  C   UNL     1       6.098   3.618  15.968  0.00  0.00    +0.000 C 
ATOM      8  C   UNL     1       5.184   4.605  16.621  0.00  0.00    +0.000 A 
ATOM      9  N   UNL     1       3.954   4.123  16.930  0.00  0.00    +0.000 NA
ATOM     10  C   UNL     1       3.080   4.969  17.535  0.00  0.00    +0.000 A 
ATOM     11  C   UNL     1       1.724   4.368  17.779  0.00  0.00    +0.000 C 
ATOM     12  C   UNL     1       3.441   6.291  17.867  0.00  0.00    +0.000 A 
ATOM     13  N   UNL     1       4.667   6.788  17.536  0.00  0.00    +0.000 NA
ATOM     14  C   UNL     1       5.527   5.921  16.911  0.00  0.00    +0.000 A 
BRANCH  14  15
ATOM     15  C   UNL     1       6.870   6.492  16.558  0.00  0.00    +0.000 C 
ATOM     16  N   UNL     1       7.279   7.565  17.301  0.00  0.00    +0.000 N 
ATOM     17  O   UNL     1       7.592   6.051  15.667  0.00  0.00    +0.000 OA
ATOM     18  H   UNL     1       6.687   7.916  18.051  0.00  0.00    +0.000 HD
ATOM     19  H   UNL     1       8.182   7.976  17.125  0.00  0.00    +0.000 HD
ENDBRANCH  14  15
ENDBRANCH   1  12
BRANCH   4  20
ATOM     20  C   UNL     1       0.224  10.323  20.636  0.00  0.00    +0.000 C 
ATOM     21  C   UNL     1      -1.048  10.753  19.851  0.00  0.00    +0.000 C 
ATOM     22  C   UNL     1      -1.828  11.841  20.572  0.00  0.00    +0.000 C 
ATOM     23  C   UNL     1      -1.118  12.247  21.879  0.00  0.00    +0.000 C 
ATOM     24  C   UNL     1       0.329  12.690  21.542  0.00  0.00    +0.000 C 
ATOM     25  C   UNL     1       1.098  11.588  20.805  0.00  0.00    +0.000 C 
ATOM     26  C   UNL     1      -1.014  10.983  22.764  0.00  0.00    +0.000 C 
ATOM     27  C   UNL     1      -0.240   9.867  22.043  0.00  0.00    +0.000 C 
BRANCH  23  28
ATOM     28  C   UNL     1      -1.859  13.397  22.577  0.00  0.00    +0.000 C 
BRANCH  28  29
ATOM     29  C   UNL     1      -3.366  13.331  22.459  0.00  0.00    +0.000 C 
ATOM     30  O   UNL     1      -4.028  14.079  21.758  0.00  0.00    +0.000 OA
BRANCH  29  31
ATOM     31  O   UNL     1      -3.928  12.373  23.227  0.00  0.00    +0.000 OA
ATOM     32  H   UNL     1      -3.366  11.588  23.367  0.00  0.00    +0.000 HD
ENDBRANCH  29  31
ENDBRANCH  28  29
ENDBRANCH  23  28
ENDBRANCH   4  20
TORSDOF 6
ENDMDL
