MODEL 1
REMARK VINA RESULT:      -6.1      0.000      0.000
REMARK  Name = 
REMARK  3 active torsions:
REMARK  status: ('A' for Active; 'I' for Inactive)
REMARK    1  A    between atoms: C_2  and  C_3
REMARK    2  A    between atoms: C_2  and  C_4
REMARK    3  A    between atoms: C_11  and  C_12
REMARK                            x       y       z     vdW  Elec       q    Type
REMARK                         _______ _______ _______ _____ _____    ______ ____
ROOT
ATOM      1  C   UNL     1       2.132   4.106  17.972  0.00  0.00    +0.000 C 
ATOM      2  C   UNL     1       2.344   5.636  18.158  0.00  0.00    +0.000 C 
ATOM      3  C   UNL     1       3.852   5.921  18.211  0.00  0.00    +0.000 C 
ATOM      4  O   UNL     1       4.387   5.158  19.313  0.00  0.00    +0.000 OA
ATOM      5  O   UNL     1       4.283   3.685  19.036  0.00  0.00    +0.000 OA
ATOM      6  C   UNL     1       3.534   3.451  17.819  0.00  0.00    +0.000 C 
ATOM      7  C   UNL     1       4.319   4.126  16.718  0.00  0.00    +0.000 C 
ATOM      8  C   UNL     1       4.509   5.437  16.938  0.00  0.00    +0.000 C 
ATOM      9  C   UNL     1       5.291   6.381  16.098  0.00  0.00    +0.000 C 
ENDROOT
BRANCH   1  11
ATOM     10  C   UNL     1       0.736   2.195  18.907  0.00  0.00    +0.000 C 
ATOM     11  C   UNL     1       1.285   3.415  19.043  0.00  0.00    +0.000 C 
ATOM     12  C   UNL     1       1.062   4.205  20.306  0.00  0.00    +0.000 C 
ENDBRANCH   1  11
TORSDOF 1
ENDMDL
MODEL 2
REMARK VINA RESULT:      -6.0      0.137      1.017
REMARK  Name = 
REMARK  3 active torsions:
REMARK  status: ('A' for Active; 'I' for Inactive)
REMARK    1  A    between atoms: C_2  and  C_3
REMARK    2  A    between atoms: C_2  and  C_4
REMARK    3  A    between atoms: C_11  and  C_12
REMARK                            x       y       z     vdW  Elec       q    Type
REMARK                         _______ _______ _______ _____ _____    ______ ____
ROOT
ATOM      1  C   UNL     1       2.141   4.256  18.073  0.00  0.00    +0.000 C 
ATOM      2  C   UNL     1       2.394   5.785  18.201  0.00  0.00    +0.000 C 
ATOM      3  C   UNL     1       3.909   6.034  18.209  0.00  0.00    +0.000 C 
ATOM      4  O   UNL     1       4.452   5.295  19.325  0.00  0.00    +0.000 OA
ATOM      5  O   UNL     1       4.306   3.817  19.100  0.00  0.00    +0.000 OA
ATOM      6  C   UNL     1       3.522   3.561  17.910  0.00  0.00    +0.000 C 
ATOM      7  C   UNL     1       4.296   4.178  16.769  0.00  0.00    +0.000 C 
ATOM      8  C   UNL     1       4.523   5.491  16.939  0.00  0.00    +0.000 C 
ATOM      9  C   UNL     1       5.308   6.386  16.049  0.00  0.00    +0.000 C 
ENDROOT
BRANCH   1  11
ATOM     10  C   UNL     1       1.059   4.200  20.376  0.00  0.00    +0.000 C 
ATOM     11  C   UNL     1       1.303   3.622  19.187  0.00  0.00    +0.000 C 
ATOM     12  C   UNL     1       0.757   2.250  18.890  0.00  0.00    +0.000 C 
ENDBRANCH   1  11
TORSDOF 1
ENDMDL
MODEL 3
REMARK VINA RESULT:      -5.9      1.671      4.109
REMARK  Name = 
REMARK  3 active torsions:
REMARK  status: ('A' for Active; 'I' for Inactive)
REMARK    1  A    between atoms: C_2  and  C_3
REMARK    2  A    between atoms: C_2  and  C_4
REMARK    3  A    between atoms: C_11  and  C_12
REMARK                            x       y       z     vdW  Elec       q    Type
REMARK                         _______ _______ _______ _____ _____    ______ ____
ROOT
ATOM      1  C   UNL     1       4.188   4.142  17.997  0.00  0.00    +0.000 C 
ATOM      2  C   UNL     1       3.217   5.128  18.709  0.00  0.00    +0.000 C 
ATOM      3  C   UNL     1       1.836   4.467  18.815  0.00  0.00    +0.000 C 
ATOM      4  O   UNL     1       1.412   4.158  17.470  0.00  0.00    +0.000 OA
ATOM      5  O   UNL     1       2.296   3.104  16.867  0.00  0.00    +0.000 OA
ATOM      6  C   UNL     1       3.413   2.818  17.743  0.00  0.00    +0.000 C 
ATOM      7  C   UNL     1       2.806   2.303  19.026  0.00  0.00    +0.000 C 
ATOM      8  C   UNL     1       1.947   3.171  19.586  0.00  0.00    +0.000 C 
ATOM      9  C   UNL     1       1.127   2.958  20.807  0.00  0.00    +0.000 C 
ENDROOT
BRANCH   1  11
ATOM     10  C   UNL     1       5.522   3.901  15.844  0.00  0.00    +0.000 C 
ATOM     11  C   UNL     1       4.864   4.669  16.730  0.00  0.00    +0.000 C 
ATOM     12  C   UNL     1       4.778   6.158  16.517  0.00  0.00    +0.000 C 
ENDBRANCH   1  11
TORSDOF 1
ENDMDL
MODEL 4
REMARK VINA RESULT:      -5.8      1.459      4.228
REMARK  Name = 
REMARK  3 active torsions:
REMARK  status: ('A' for Active; 'I' for Inactive)
REMARK    1  A    between atoms: C_2  and  C_3
REMARK    2  A    between atoms: C_2  and  C_4
REMARK    3  A    between atoms: C_11  and  C_12
REMARK                            x       y       z     vdW  Elec       q    Type
REMARK                         _______ _______ _______ _____ _____    ______ ____
ROOT
ATOM      1  C   UNL     1       3.872   4.849  17.481  0.00  0.00    +0.000 C 
ATOM      2  C   UNL     1       3.615   3.345  17.784  0.00  0.00    +0.000 C 
ATOM      3  C   UNL     1       3.872   3.093  19.277  0.00  0.00    +0.000 C 
ATOM      4  O   UNL     1       5.238   3.477  19.540  0.00  0.00    +0.000 OA
ATOM      5  O   UNL     1       5.413   4.958  19.365  0.00  0.00    +0.000 OA
ATOM      6  C   UNL     1       4.206   5.551  18.828  0.00  0.00    +0.000 C 
ATOM      7  C   UNL     1       3.127   5.280  19.850  0.00  0.00    +0.000 C 
ATOM      8  C   UNL     1       2.965   3.971  20.107  0.00  0.00    +0.000 C 
ATOM      9  C   UNL     1       2.045   3.363  21.103  0.00  0.00    +0.000 C 
ENDROOT
BRANCH   1  11
ATOM     10  C   UNL     1       5.187   6.369  15.920  0.00  0.00    +0.000 C 
ATOM     11  C   UNL     1       4.916   5.143  16.402  0.00  0.00    +0.000 C 
ATOM     12  C   UNL     1       5.646   3.942  15.858  0.00  0.00    +0.000 C 
ENDBRANCH   1  11
TORSDOF 1
ENDMDL
MODEL 5
REMARK VINA RESULT:      -5.8      1.495      4.133
REMARK  Name = 
REMARK  3 active torsions:
REMARK  status: ('A' for Active; 'I' for Inactive)
REMARK    1  A    between atoms: C_2  and  C_3
REMARK    2  A    between atoms: C_2  and  C_4
REMARK    3  A    between atoms: C_11  and  C_12
REMARK                            x       y       z     vdW  Elec       q    Type
REMARK                         _______ _______ _______ _____ _____    ______ ____
ROOT
ATOM      1  C   UNL     1       3.896   4.728  17.473  0.00  0.00    +0.000 C 
ATOM      2  C   UNL     1       3.614   3.242  17.839  0.00  0.00    +0.000 C 
ATOM      3  C   UNL     1       3.875   3.048  19.339  0.00  0.00    +0.000 C 
ATOM      4  O   UNL     1       5.250   3.418  19.580  0.00  0.00    +0.000 OA
ATOM      5  O   UNL     1       5.450   4.888  19.343  0.00  0.00    +0.000 OA
ATOM      6  C   UNL     1       4.250   5.479  18.787  0.00  0.00    +0.000 C 
ATOM      7  C   UNL     1       3.173   5.270  19.825  0.00  0.00    +0.000 C 
ATOM      8  C   UNL     1       2.989   3.976  20.138  0.00  0.00    +0.000 C 
ATOM      9  C   UNL     1       2.064   3.425  21.163  0.00  0.00    +0.000 C 
ENDROOT
BRANCH   1  11
ATOM     10  C   UNL     1       5.652   3.982  15.788  0.00  0.00    +0.000 C 
ATOM     11  C   UNL     1       4.939   4.958  16.377  0.00  0.00    +0.000 C 
ATOM     12  C   UNL     1       5.161   6.395  15.981  0.00  0.00    +0.000 C 
ENDBRANCH   1  11
TORSDOF 1
ENDMDL
MODEL 6
REMARK VINA RESULT:      -5.8      1.051      1.136
REMARK  Name = 
REMARK  3 active torsions:
REMARK  status: ('A' for Active; 'I' for Inactive)
REMARK    1  A    between atoms: C_2  and  C_3
REMARK    2  A    between atoms: C_2  and  C_4
REMARK    3  A    between atoms: C_11  and  C_12
REMARK                            x       y       z     vdW  Elec       q    Type
REMARK                         _______ _______ _______ _____ _____    ______ ____
ROOT
ATOM      1  C   UNL     1       2.418   4.423  18.787  0.00  0.00    +0.000 C 
ATOM      2  C   UNL     1       3.312   5.327  19.683  0.00  0.00    +0.000 C 
ATOM      3  C   UNL     1       4.775   5.154  19.253  0.00  0.00    +0.000 C 
ATOM      4  O   UNL     1       5.094   3.753  19.399  0.00  0.00    +0.000 OA
ATOM      5  O   UNL     1       4.306   2.927  18.423  0.00  0.00    +0.000 OA
ATOM      6  C   UNL     1       3.337   3.751  17.729  0.00  0.00    +0.000 C 
ATOM      7  C   UNL     1       4.142   4.791  16.986  0.00  0.00    +0.000 C 
ATOM      8  C   UNL     1       4.926   5.524  17.795  0.00  0.00    +0.000 C 
ATOM      9  C   UNL     1       5.892   6.578  17.390  0.00  0.00    +0.000 C 
ENDROOT
BRANCH   1  11
ATOM     10  C   UNL     1       0.779   2.480  18.921  0.00  0.00    +0.000 C 
ATOM     11  C   UNL     1       1.545   3.405  19.525  0.00  0.00    +0.000 C 
ATOM     12  C   UNL     1       1.564   3.501  21.029  0.00  0.00    +0.000 C 
ENDBRANCH   1  11
TORSDOF 1
ENDMDL
MODEL 7
REMARK VINA RESULT:      -5.8      1.663      4.211
REMARK  Name = 
REMARK  3 active torsions:
REMARK  status: ('A' for Active; 'I' for Inactive)
REMARK    1  A    between atoms: C_2  and  C_3
REMARK    2  A    between atoms: C_2  and  C_4
REMARK    3  A    between atoms: C_11  and  C_12
REMARK                            x       y       z     vdW  Elec       q    Type
REMARK                         _______ _______ _______ _____ _____    ______ ____
ROOT
ATOM      1  C   UNL     1       4.195   4.244  18.010  0.00  0.00    +0.000 C 
ATOM      2  C   UNL     1       3.190   5.179  18.743  0.00  0.00    +0.000 C 
ATOM      3  C   UNL     1       1.831   4.471  18.826  0.00  0.00    +0.000 C 
ATOM      4  O   UNL     1       1.421   4.185  17.472  0.00  0.00    +0.000 OA
ATOM      5  O   UNL     1       2.341   3.177  16.843  0.00  0.00    +0.000 OA
ATOM      6  C   UNL     1       3.464   2.904  17.716  0.00  0.00    +0.000 C 
ATOM      7  C   UNL     1       2.869   2.334  18.983  0.00  0.00    +0.000 C 
ATOM      8  C   UNL     1       1.981   3.159  19.562  0.00  0.00    +0.000 C 
ATOM      9  C   UNL     1       1.164   2.886  20.774  0.00  0.00    +0.000 C 
ENDROOT
BRANCH   1  11
ATOM     10  C   UNL     1       4.812   6.125  16.410  0.00  0.00    +0.000 C 
ATOM     11  C   UNL     1       4.857   4.827  16.759  0.00  0.00    +0.000 C 
ATOM     12  C   UNL     1       5.578   3.837  15.883  0.00  0.00    +0.000 C 
ENDBRANCH   1  11
TORSDOF 1
ENDMDL
MODEL 8
REMARK VINA RESULT:      -5.8      0.923      1.405
REMARK  Name = 
REMARK  3 active torsions:
REMARK  status: ('A' for Active; 'I' for Inactive)
REMARK    1  A    between atoms: C_2  and  C_3
REMARK    2  A    between atoms: C_2  and  C_4
REMARK    3  A    between atoms: C_11  and  C_12
REMARK                            x       y       z     vdW  Elec       q    Type
REMARK                         _______ _______ _______ _____ _____    ______ ____
ROOT
ATOM      1  C   UNL     1       2.507   4.405  18.511  0.00  0.00    +0.000 C 
ATOM      2  C   UNL     1       3.423   5.439  19.227  0.00  0.00    +0.000 C 
ATOM      3  C   UNL     1       4.888   5.065  18.962  0.00  0.00    +0.000 C 
ATOM      4  O   UNL     1       5.079   3.725  19.465  0.00  0.00    +0.000 OA
ATOM      5  O   UNL     1       4.280   2.740  18.661  0.00  0.00    +0.000 OA
ATOM      6  C   UNL     1       3.425   3.432  17.718  0.00  0.00    +0.000 C 
ATOM      7  C   UNL     1       4.355   4.200  16.809  0.00  0.00    +0.000 C 
ATOM      8  C   UNL     1       5.152   5.054  17.474  0.00  0.00    +0.000 C 
ATOM      9  C   UNL     1       6.224   5.908  16.901  0.00  0.00    +0.000 C 
ENDROOT
BRANCH   1  11
ATOM     10  C   UNL     1       1.259   3.979  20.687  0.00  0.00    +0.000 C 
ATOM     11  C   UNL     1       1.512   3.662  19.405  0.00  0.00    +0.000 C 
ATOM     12  C   UNL     1       0.812   2.491  18.767  0.00  0.00    +0.000 C 
ENDBRANCH   1  11
TORSDOF 1
ENDMDL
MODEL 9
REMARK VINA RESULT:      -5.7      1.401      4.464
REMARK  Name = 
REMARK  3 active torsions:
REMARK  status: ('A' for Active; 'I' for Inactive)
REMARK    1  A    between atoms: C_2  and  C_3
REMARK    2  A    between atoms: C_2  and  C_4
REMARK    3  A    between atoms: C_11  and  C_12
REMARK                            x       y       z     vdW  Elec       q    Type
REMARK                         _______ _______ _______ _____ _____    ______ ____
ROOT
ATOM      1  C   UNL     1       5.267   5.651  17.093  0.00  0.00    +0.000 C 
ATOM      2  C   UNL     1       4.824   4.225  16.657  0.00  0.00    +0.000 C 
ATOM      3  C   UNL     1       3.864   3.663  17.716  0.00  0.00    +0.000 C 
ATOM      4  O   UNL     1       4.579   3.653  18.970  0.00  0.00    +0.000 OA
ATOM      5  O   UNL     1       4.871   5.056  19.422  0.00  0.00    +0.000 OA
ATOM      6  C   UNL     1       4.497   6.007  18.396  0.00  0.00    +0.000 C 
ATOM      7  C   UNL     1       3.010   5.832  18.199  0.00  0.00    +0.000 C 
ATOM      8  C   UNL     1       2.669   4.577  17.860  0.00  0.00    +0.000 C 
ATOM      9  C   UNL     1       1.296   4.046  17.659  0.00  0.00    +0.000 C 
ENDROOT
BRANCH   1  11
ATOM     10  C   UNL     1       7.365   7.071  17.336  0.00  0.00    +0.000 C 
ATOM     11  C   UNL     1       6.776   5.866  17.236  0.00  0.00    +0.000 C 
ATOM     12  C   UNL     1       7.615   4.615  17.236  0.00  0.00    +0.000 C 
ENDBRANCH   1  11
TORSDOF 1
ENDMDL
