MODEL 1
REMARK VINA RESULT:      -5.3      0.000      0.000
REMARK  Name = 
REMARK  4 active torsions:
REMARK  status: ('A' for Active; 'I' for Inactive)
REMARK    1  A    between atoms: C_1  and  N_2
REMARK    2  A    between atoms: N_2  and  C_3
REMARK    3  A    between atoms: C_8  and  C_9
REMARK    4  A    between atoms: C_9  and  O_11
REMARK                            x       y       z     vdW  Elec       q    Type
REMARK                         _______ _______ _______ _____ _____    ______ ____
ROOT
ATOM      1  C   UNL     1       5.698   6.348  16.426  0.00  0.00    +0.000 C 
ATOM      2  C   UNL     1       4.814   6.405  17.692  0.00  0.00    +0.000 C 
ATOM      3  C   UNL     1       3.570   5.538  17.558  0.00  0.00    +0.000 C 
ATOM      4  C   UNL     1       3.953   4.080  17.319  0.00  0.00    +0.000 C 
ATOM      5  C   UNL     1       5.019   3.933  16.276  0.00  0.00    +0.000 C 
ATOM      6  C   UNL     1       5.795   4.951  15.850  0.00  0.00    +0.000 C 
ENDROOT
BRANCH   1   8
ATOM      7  C   UNL     1       7.502   6.568  18.062  0.00  0.00    +0.000 C 
ATOM      8  N   UNL     1       7.050   6.890  16.705  0.00  0.00    +0.000 NA
ATOM      9  H   UNL     1       7.710   6.451  16.054  0.00  0.00    +0.000 HD
ENDBRANCH   1   8
BRANCH   6  10
ATOM     10  C   UNL     1       6.703   4.658  14.703  0.00  0.00    +0.000 C 
ATOM     11  O   UNL     1       7.628   5.381  14.368  0.00  0.00    +0.000 OA
BRANCH  10  12
ATOM     12  O   UNL     1       6.411   3.513  14.053  0.00  0.00    +0.000 OA
ATOM     13  H   UNL     1       5.474   3.234  14.201  0.00  0.00    +0.000 HD
ENDBRANCH  10  12
ENDBRANCH   6  10
TORSDOF 3
ENDMDL
MODEL 2
REMARK VINA RESULT:      -5.3      2.938      4.078
REMARK  Name = 
REMARK  4 active torsions:
REMARK  status: ('A' for Active; 'I' for Inactive)
REMARK    1  A    between atoms: C_1  and  N_2
REMARK    2  A    between atoms: N_2  and  C_3
REMARK    3  A    between atoms: C_8  and  C_9
REMARK    4  A    between atoms: C_9  and  O_11
REMARK                            x       y       z     vdW  Elec       q    Type
REMARK                         _______ _______ _______ _____ _____    ______ ____
ROOT
ATOM      1  C   UNL     1       5.411   4.423  18.107  0.00  0.00    +0.000 C 
ATOM      2  C   UNL     1       4.908   3.654  16.865  0.00  0.00    +0.000 C 
ATOM      3  C   UNL     1       5.216   4.398  15.572  0.00  0.00    +0.000 C 
ATOM      4  C   UNL     1       6.720   4.606  15.417  0.00  0.00    +0.000 C 
ATOM      5  C   UNL     1       7.360   5.106  16.677  0.00  0.00    +0.000 C 
ATOM      6  C   UNL     1       6.772   5.049  17.889  0.00  0.00    +0.000 C 
ENDROOT
BRANCH   1   8
ATOM      7  C   UNL     1       4.117   2.948  19.566  0.00  0.00    +0.000 C 
ATOM      8  N   UNL     1       5.431   3.539  19.299  0.00  0.00    +0.000 NA
ATOM      9  H   UNL     1       6.079   2.766  19.112  0.00  0.00    +0.000 HD
ENDBRANCH   1   8
BRANCH   6  10
ATOM     10  C   UNL     1       7.491   5.726  19.008  0.00  0.00    +0.000 C 
ATOM     11  O   UNL     1       7.521   5.299  20.152  0.00  0.00    +0.000 OA
BRANCH  10  12
ATOM     12  O   UNL     1       8.111   6.868  18.649  0.00  0.00    +0.000 OA
ATOM     13  H   UNL     1       7.849   7.627  19.227  0.00  0.00    +0.000 HD
ENDBRANCH  10  12
ENDBRANCH   6  10
TORSDOF 3
ENDMDL
MODEL 3
REMARK VINA RESULT:      -5.2      5.489      6.519
REMARK  Name = 
REMARK  4 active torsions:
REMARK  status: ('A' for Active; 'I' for Inactive)
REMARK    1  A    between atoms: C_1  and  N_2
REMARK    2  A    between atoms: N_2  and  C_3
REMARK    3  A    between atoms: C_8  and  C_9
REMARK    4  A    between atoms: C_9  and  O_11
REMARK                            x       y       z     vdW  Elec       q    Type
REMARK                         _______ _______ _______ _____ _____    ______ ____
ROOT
ATOM      1  C   UNL     1       1.684   2.966  18.946  0.00  0.00    +0.000 C 
ATOM      2  C   UNL     1       2.026   3.844  17.721  0.00  0.00    +0.000 C 
ATOM      3  C   UNL     1       1.868   5.328  18.023  0.00  0.00    +0.000 C 
ATOM      4  C   UNL     1       2.787   5.744  19.168  0.00  0.00    +0.000 C 
ATOM      5  C   UNL     1       2.729   4.790  20.322  0.00  0.00    +0.000 C 
ATOM      6  C   UNL     1       2.215   3.545  20.240  0.00  0.00    +0.000 C 
ENDROOT
BRANCH   1   8
ATOM      7  C   UNL     1       3.575   1.557  18.300  0.00  0.00    +0.000 C 
ATOM      8  N   UNL     1       2.181   1.581  18.755  0.00  0.00    +0.000 NA
ATOM      9  H   UNL     1       2.150   1.103  19.661  0.00  0.00    +0.000 HD
ENDBRANCH   1   8
BRANCH   6  10
ATOM     10  C   UNL     1       2.104   2.787  21.520  0.00  0.00    +0.000 C 
ATOM     11  O   UNL     1       1.082   2.723  22.184  0.00  0.00    +0.000 OA
BRANCH  10  12
ATOM     12  O   UNL     1       3.244   2.171  21.891  0.00  0.00    +0.000 OA
ATOM     13  H   UNL     1       4.036   2.749  21.755  0.00  0.00    +0.000 HD
ENDBRANCH  10  12
ENDBRANCH   6  10
TORSDOF 3
ENDMDL
MODEL 4
REMARK VINA RESULT:      -5.2      2.569      3.547
REMARK  Name = 
REMARK  4 active torsions:
REMARK  status: ('A' for Active; 'I' for Inactive)
REMARK    1  A    between atoms: C_1  and  N_2
REMARK    2  A    between atoms: N_2  and  C_3
REMARK    3  A    between atoms: C_8  and  C_9
REMARK    4  A    between atoms: C_9  and  O_11
REMARK                            x       y       z     vdW  Elec       q    Type
REMARK                         _______ _______ _______ _____ _____    ______ ____
ROOT
ATOM      1  C   UNL     1       6.560   4.601  17.115  0.00  0.00    +0.000 C 
ATOM      2  C   UNL     1       5.210   4.114  16.543  0.00  0.00    +0.000 C 
ATOM      3  C   UNL     1       4.316   3.519  17.623  0.00  0.00    +0.000 C 
ATOM      4  C   UNL     1       4.021   4.553  18.706  0.00  0.00    +0.000 C 
ATOM      5  C   UNL     1       5.252   5.285  19.147  0.00  0.00    +0.000 C 
ATOM      6  C   UNL     1       6.407   5.296  18.451  0.00  0.00    +0.000 C 
ENDROOT
BRANCH   1   8
ATOM      7  C   UNL     1       7.095   5.018  14.765  0.00  0.00    +0.000 C 
ATOM      8  N   UNL     1       7.252   5.487  16.146  0.00  0.00    +0.000 NA
ATOM      9  H   UNL     1       6.822   6.417  16.200  0.00  0.00    +0.000 HD
ENDBRANCH   1   8
BRANCH   6  10
ATOM     10  C   UNL     1       7.573   5.953  19.109  0.00  0.00    +0.000 C 
ATOM     11  O   UNL     1       8.196   6.881  18.618  0.00  0.00    +0.000 OA
BRANCH  10  12
ATOM     12  O   UNL     1       7.892   5.427  20.310  0.00  0.00    +0.000 OA
ATOM     13  H   UNL     1       8.291   6.102  20.913  0.00  0.00    +0.000 HD
ENDBRANCH  10  12
ENDBRANCH   6  10
TORSDOF 3
ENDMDL
MODEL 5
REMARK VINA RESULT:      -5.2      2.595      3.476
REMARK  Name = 
REMARK  4 active torsions:
REMARK  status: ('A' for Active; 'I' for Inactive)
REMARK    1  A    between atoms: C_1  and  N_2
REMARK    2  A    between atoms: N_2  and  C_3
REMARK    3  A    between atoms: C_8  and  C_9
REMARK    4  A    between atoms: C_9  and  O_11
REMARK                            x       y       z     vdW  Elec       q    Type
REMARK                         _______ _______ _______ _____ _____    ______ ____
ROOT
ATOM      1  C   UNL     1       5.155   4.780  19.124  0.00  0.00    +0.000 C 
ATOM      2  C   UNL     1       3.678   5.192  18.938  0.00  0.00    +0.000 C 
ATOM      3  C   UNL     1       3.547   6.595  18.362  0.00  0.00    +0.000 C 
ATOM      4  C   UNL     1       4.232   6.684  17.001  0.00  0.00    +0.000 C 
ATOM      5  C   UNL     1       5.594   6.059  17.006  0.00  0.00    +0.000 C 
ATOM      6  C   UNL     1       6.029   5.218  17.967  0.00  0.00    +0.000 C 
ENDROOT
BRANCH   1   8
ATOM      7  C   UNL     1       3.993   2.628  19.113  0.00  0.00    +0.000 C 
ATOM      8  N   UNL     1       5.269   3.316  19.334  0.00  0.00    +0.000 NA
ATOM      9  H   UNL     1       5.936   2.945  18.649  0.00  0.00    +0.000 HD
ENDBRANCH   1   8
BRANCH   6  10
ATOM     10  C   UNL     1       7.461   4.806  17.891  0.00  0.00    +0.000 C 
ATOM     11  O   UNL     1       8.002   4.419  16.868  0.00  0.00    +0.000 OA
BRANCH  10  12
ATOM     12  O   UNL     1       8.118   4.893  19.066  0.00  0.00    +0.000 OA
ATOM     13  H   UNL     1       8.059   5.801  19.454  0.00  0.00    +0.000 HD
ENDBRANCH  10  12
ENDBRANCH   6  10
TORSDOF 3
ENDMDL
MODEL 6
REMARK VINA RESULT:      -5.2      2.730      3.645
REMARK  Name = 
REMARK  4 active torsions:
REMARK  status: ('A' for Active; 'I' for Inactive)
REMARK    1  A    between atoms: C_1  and  N_2
REMARK    2  A    between atoms: N_2  and  C_3
REMARK    3  A    between atoms: C_8  and  C_9
REMARK    4  A    between atoms: C_9  and  O_11
REMARK                            x       y       z     vdW  Elec       q    Type
REMARK                         _______ _______ _______ _____ _____    ______ ____
ROOT
ATOM      1  C   UNL     1       5.050   4.687  19.031  0.00  0.00    +0.000 C 
ATOM      2  C   UNL     1       3.656   5.030  18.459  0.00  0.00    +0.000 C 
ATOM      3  C   UNL     1       3.582   6.468  17.965  0.00  0.00    +0.000 C 
ATOM      4  C   UNL     1       4.613   6.714  16.867  0.00  0.00    +0.000 C 
ATOM      5  C   UNL     1       5.963   6.169  17.219  0.00  0.00    +0.000 C 
ATOM      6  C   UNL     1       6.175   5.273  18.205  0.00  0.00    +0.000 C 
ENDROOT
BRANCH   1   8
ATOM      7  C   UNL     1       3.930   2.515  19.124  0.00  0.00    +0.000 C 
ATOM      8  N   UNL     1       5.216   3.219  19.165  0.00  0.00    +0.000 NA
ATOM      9  H   UNL     1       5.770   2.885  18.369  0.00  0.00    +0.000 HD
ENDBRANCH   1   8
BRANCH   6  10
ATOM     10  C   UNL     1       7.599   4.951  18.515  0.00  0.00    +0.000 C 
ATOM     11  O   UNL     1       8.214   5.428  19.455  0.00  0.00    +0.000 OA
BRANCH  10  12
ATOM     12  O   UNL     1       8.162   4.079  17.654  0.00  0.00    +0.000 OA
ATOM     13  H   UNL     1       7.857   3.152  17.817  0.00  0.00    +0.000 HD
ENDBRANCH  10  12
ENDBRANCH   6  10
TORSDOF 3
ENDMDL
MODEL 7
REMARK VINA RESULT:      -5.1      3.769      4.922
REMARK  Name = 
REMARK  4 active torsions:
REMARK  status: ('A' for Active; 'I' for Inactive)
REMARK    1  A    between atoms: C_1  and  N_2
REMARK    2  A    between atoms: N_2  and  C_3
REMARK    3  A    between atoms: C_8  and  C_9
REMARK    4  A    between atoms: C_9  and  O_11
REMARK                            x       y       z     vdW  Elec       q    Type
REMARK                         _______ _______ _______ _____ _____    ______ ____
ROOT
ATOM      1  C   UNL     1       3.796   2.849  19.989  0.00  0.00    +0.000 C 
ATOM      2  C   UNL     1       2.295   2.744  20.337  0.00  0.00    +0.000 C 
ATOM      3  C   UNL     1       1.807   3.951  21.126  0.00  0.00    +0.000 C 
ATOM      4  C   UNL     1       2.014   5.235  20.328  0.00  0.00    +0.000 C 
ATOM      5  C   UNL     1       3.378   5.311  19.713  0.00  0.00    +0.000 C 
ATOM      6  C   UNL     1       4.198   4.249  19.575  0.00  0.00    +0.000 C 
ENDROOT
BRANCH   1   8
ATOM      7  C   UNL     1       3.162   1.823  17.862  0.00  0.00    +0.000 C 
ATOM      8  N   UNL     1       4.161   1.871  18.935  0.00  0.00    +0.000 NA
ATOM      9  H   UNL     1       5.045   2.172  18.512  0.00  0.00    +0.000 HD
ENDBRANCH   1   8
BRANCH   6  10
ATOM     10  C   UNL     1       5.575   4.533  19.076  0.00  0.00    +0.000 C 
ATOM     11  O   UNL     1       6.407   5.169  19.704  0.00  0.00    +0.000 OA
BRANCH  10  12
ATOM     12  O   UNL     1       5.829   4.026  17.853  0.00  0.00    +0.000 OA
ATOM     13  H   UNL     1       5.496   4.617  17.132  0.00  0.00    +0.000 HD
ENDBRANCH  10  12
ENDBRANCH   6  10
TORSDOF 3
ENDMDL
MODEL 8
REMARK VINA RESULT:      -5.1      2.495      3.394
REMARK  Name = 
REMARK  4 active torsions:
REMARK  status: ('A' for Active; 'I' for Inactive)
REMARK    1  A    between atoms: C_1  and  N_2
REMARK    2  A    between atoms: N_2  and  C_3
REMARK    3  A    between atoms: C_8  and  C_9
REMARK    4  A    between atoms: C_9  and  O_11
REMARK                            x       y       z     vdW  Elec       q    Type
REMARK                         _______ _______ _______ _____ _____    ______ ____
ROOT
ATOM      1  C   UNL     1       5.132   4.758  19.205  0.00  0.00    +0.000 C 
ATOM      2  C   UNL     1       3.624   5.016  19.421  0.00  0.00    +0.000 C 
ATOM      3  C   UNL     1       3.248   6.464  19.140  0.00  0.00    +0.000 C 
ATOM      4  C   UNL     1       3.585   6.837  17.699  0.00  0.00    +0.000 C 
ATOM      5  C   UNL     1       4.955   6.383  17.297  0.00  0.00    +0.000 C 
ATOM      6  C   UNL     1       5.670   5.465  17.979  0.00  0.00    +0.000 C 
ENDROOT
BRANCH   1   8
ATOM      7  C   UNL     1       4.318   2.505  19.696  0.00  0.00    +0.000 C 
ATOM      8  N   UNL     1       5.409   3.302  19.128  0.00  0.00    +0.000 NA
ATOM      9  H   UNL     1       5.491   3.044  18.139  0.00  0.00    +0.000 HD
ENDBRANCH   1   8
BRANCH   6  10
ATOM     10  C   UNL     1       7.072   5.241  17.521  0.00  0.00    +0.000 C 
ATOM     11  O   UNL     1       7.843   4.458  18.053  0.00  0.00    +0.000 OA
BRANCH  10  12
ATOM     12  O   UNL     1       7.426   5.989  16.457  0.00  0.00    +0.000 OA
ATOM     13  H   UNL     1       7.770   5.434  15.714  0.00  0.00    +0.000 HD
ENDBRANCH  10  12
ENDBRANCH   6  10
TORSDOF 3
ENDMDL
MODEL 9
REMARK VINA RESULT:      -5.1      2.169      3.293
REMARK  Name = 
REMARK  4 active torsions:
REMARK  status: ('A' for Active; 'I' for Inactive)
REMARK    1  A    between atoms: C_1  and  N_2
REMARK    2  A    between atoms: N_2  and  C_3
REMARK    3  A    between atoms: C_8  and  C_9
REMARK    4  A    between atoms: C_9  and  O_11
REMARK                            x       y       z     vdW  Elec       q    Type
REMARK                         _______ _______ _______ _____ _____    ______ ____
ROOT
ATOM      1  C   UNL     1       6.664   4.752  16.379  0.00  0.00    +0.000 C 
ATOM      2  C   UNL     1       5.388   4.059  15.852  0.00  0.00    +0.000 C 
ATOM      3  C   UNL     1       4.312   3.956  16.924  0.00  0.00    +0.000 C 
ATOM      4  C   UNL     1       3.919   5.342  17.426  0.00  0.00    +0.000 C 
ATOM      5  C   UNL     1       5.110   6.203  17.716  0.00  0.00    +0.000 C 
ATOM      6  C   UNL     1       6.354   5.937  17.269  0.00  0.00    +0.000 C 
ENDROOT
BRANCH   1   8
ATOM      7  C   UNL     1       6.956   4.828  13.952  0.00  0.00    +0.000 C 
ATOM      8  N   UNL     1       7.540   5.164  15.254  0.00  0.00    +0.000 NA
ATOM      9  H   UNL     1       7.643   6.184  15.286  0.00  0.00    +0.000 HD
ENDBRANCH   1   8
BRANCH   6  10
ATOM     10  C   UNL     1       7.445   6.819  17.776  0.00  0.00    +0.000 C 
ATOM     11  O   UNL     1       8.057   6.615  18.812  0.00  0.00    +0.000 OA
BRANCH  10  12
ATOM     12  O   UNL     1       7.702   7.880  16.984  0.00  0.00    +0.000 OA
ATOM     13  H   UNL     1       8.154   8.608  17.479  0.00  0.00    +0.000 HD
ENDBRANCH  10  12
ENDBRANCH   6  10
TORSDOF 3
ENDMDL
