MODEL 1
REMARK VINA RESULT:      -6.2      0.000      0.000
REMARK  Name = 
REMARK  13 active torsions:
REMARK  status: ('A' for Active; 'I' for Inactive)
REMARK    1  A    between atoms: C_1  and  C_2
REMARK    2  A    between atoms: C_2  and  O_4
REMARK    3  A    between atoms: O_4  and  C_5
REMARK    4  A    between atoms: C_5  and  C_6
REMARK    5  A    between atoms: C_6  and  C_7
REMARK    6  A    between atoms: C_7  and  C_8
REMARK    7  A    between atoms: C_8  and  C_9
REMARK    8  A    between atoms: C_9  and  C_10
REMARK    9  A    between atoms: C_10  and  C_11
REMARK   10  A    between atoms: C_11  and  C_12
REMARK   11  A    between atoms: C_12  and  C_13
REMARK   12  A    between atoms: C_13  and  O_14
REMARK   13  A    between atoms: O_14  and  C_15
REMARK                            x       y       z     vdW  Elec       q    Type
REMARK                         _______ _______ _______ _____ _____    ______ ____
ROOT
ATOM      1  C   UNL     1       4.501   5.558  18.641  0.00  0.00    +0.000 C 
ENDROOT
BRANCH   1   2
ATOM      2  C   UNL     1       3.629   5.156  17.457  0.00  0.00    +0.000 C 
BRANCH   2   3
ATOM      3  C   UNL     1       2.145   5.253  17.810  0.00  0.00    +0.000 C 
BRANCH   3   4
ATOM      4  C   UNL     1       1.448   3.889  17.804  0.00  0.00    +0.000 C 
BRANCH   4   5
ATOM      5  C   UNL     1       2.436   2.721  17.889  0.00  0.00    +0.000 C 
BRANCH   5   6
ATOM      6  C   UNL     1       2.568   2.172  19.305  0.00  0.00    +0.000 C 
BRANCH   6   7
ATOM      7  O   UNL     1       1.387   2.436  20.075  0.00  0.00    +0.000 OA
BRANCH   7   9
ATOM      8  C   UNL     1       2.283   4.214  21.299  0.00  0.00    +0.000 C 
ATOM      9  C   UNL     1       1.604   2.882  21.341  0.00  0.00    +0.000 C 
ATOM     10  O   UNL     1       1.305   2.291  22.370  0.00  0.00    +0.000 OA
ENDBRANCH   7   9
ENDBRANCH   6   7
ENDBRANCH   5   6
ENDBRANCH   4   5
ENDBRANCH   3   4
ENDBRANCH   2   3
ENDBRANCH   1   2
BRANCH   1  11
ATOM     11  C   UNL     1       5.913   5.929  18.182  0.00  0.00    +0.000 C 
BRANCH  11  12
ATOM     12  C   UNL     1       6.882   4.744  18.227  0.00  0.00    +0.000 C 
BRANCH  12  13
ATOM     13  C   UNL     1       7.601   4.543  16.897  0.00  0.00    +0.000 C 
BRANCH  13  14
ATOM     14  O   UNL     1       7.202   5.560  15.977  0.00  0.00    +0.000 OA
BRANCH  14  15
ATOM     15  C   UNL     1       7.070   5.058  14.694  0.00  0.00    +0.000 A 
ATOM     16  C   UNL     1       6.116   4.074  14.509  0.00  0.00    +0.000 A 
ATOM     17  C   UNL     1       5.957   3.545  13.233  0.00  0.00    +0.000 A 
ATOM     18  C   UNL     1       6.752   4.018  12.193  0.00  0.00    +0.000 A 
ATOM     19  C   UNL     1       7.679   5.007  12.474  0.00  0.00    +0.000 A 
ATOM     20  N   UNL     1       7.856   5.536  13.702  0.00  0.00    +0.000 NA
ENDBRANCH  14  15
ENDBRANCH  13  14
ENDBRANCH  12  13
ENDBRANCH  11  12
ENDBRANCH   1  11
TORSDOF 12
ENDMDL
MODEL 2
REMARK VINA RESULT:      -5.7      3.234      6.831
REMARK  Name = 
REMARK  13 active torsions:
REMARK  status: ('A' for Active; 'I' for Inactive)
REMARK    1  A    between atoms: C_1  and  C_2
REMARK    2  A    between atoms: C_2  and  O_4
REMARK    3  A    between atoms: O_4  and  C_5
REMARK    4  A    between atoms: C_5  and  C_6
REMARK    5  A    between atoms: C_6  and  C_7
REMARK    6  A    between atoms: C_7  and  C_8
REMARK    7  A    between atoms: C_8  and  C_9
REMARK    8  A    between atoms: C_9  and  C_10
REMARK    9  A    between atoms: C_10  and  C_11
REMARK   10  A    between atoms: C_11  and  C_12
REMARK   11  A    between atoms: C_12  and  C_13
REMARK   12  A    between atoms: C_13  and  O_14
REMARK   13  A    between atoms: O_14  and  C_15
REMARK                            x       y       z     vdW  Elec       q    Type
REMARK                         _______ _______ _______ _____ _____    ______ ____
ROOT
ATOM      1  C   UNL     1       2.663   2.613  21.098  0.00  0.00    +0.000 C 
ENDROOT
BRANCH   1   2
ATOM      2  C   UNL     1       3.959   2.330  20.347  0.00  0.00    +0.000 C 
BRANCH   2   3
ATOM      3  C   UNL     1       3.785   2.558  18.845  0.00  0.00    +0.000 C 
BRANCH   3   4
ATOM      4  C   UNL     1       4.723   3.639  18.302  0.00  0.00    +0.000 C 
BRANCH   4   5
ATOM      5  C   UNL     1       4.549   3.870  16.797  0.00  0.00    +0.000 C 
BRANCH   5   6
ATOM      6  C   UNL     1       5.757   4.554  16.170  0.00  0.00    +0.000 C 
BRANCH   6   7
ATOM      7  O   UNL     1       6.855   4.612  17.090  0.00  0.00    +0.000 OA
BRANCH   7   9
ATOM      8  C   UNL     1       7.664   6.039  18.756  0.00  0.00    +0.000 C 
ATOM      9  C   UNL     1       7.375   5.852  17.300  0.00  0.00    +0.000 C 
ATOM     10  O   UNL     1       7.573   6.700  16.442  0.00  0.00    +0.000 OA
ENDBRANCH   7   9
ENDBRANCH   6   7
ENDBRANCH   5   6
ENDBRANCH   4   5
ENDBRANCH   3   4
ENDBRANCH   2   3
ENDBRANCH   1   2
BRANCH   1  11
ATOM     11  C   UNL     1       1.515   2.895  20.127  0.00  0.00    +0.000 C 
BRANCH  11  12
ATOM     12  C   UNL     1       0.968   4.319  20.253  0.00  0.00    +0.000 C 
BRANCH  12  13
ATOM     13  C   UNL     1       1.965   5.257  20.925  0.00  0.00    +0.000 C 
BRANCH  13  14
ATOM     14  O   UNL     1       2.801   5.857  19.935  0.00  0.00    +0.000 OA
BRANCH  14  15
ATOM     15  C   UNL     1       2.304   7.083  19.528  0.00  0.00    +0.000 A 
ATOM     16  C   UNL     1       2.481   7.413  18.197  0.00  0.00    +0.000 A 
ATOM     17  C   UNL     1       1.995   8.639  17.754  0.00  0.00    +0.000 A 
ATOM     18  C   UNL     1       1.350   9.483  18.653  0.00  0.00    +0.000 A 
ATOM     19  C   UNL     1       1.217   9.065  19.965  0.00  0.00    +0.000 A 
ATOM     20  N   UNL     1       1.681   7.885  20.422  0.00  0.00    +0.000 NA
ENDBRANCH  14  15
ENDBRANCH  13  14
ENDBRANCH  12  13
ENDBRANCH  11  12
ENDBRANCH   1  11
TORSDOF 12
ENDMDL
MODEL 3
REMARK VINA RESULT:      -5.6      3.405      7.099
REMARK  Name = 
REMARK  13 active torsions:
REMARK  status: ('A' for Active; 'I' for Inactive)
REMARK    1  A    between atoms: C_1  and  C_2
REMARK    2  A    between atoms: C_2  and  O_4
REMARK    3  A    between atoms: O_4  and  C_5
REMARK    4  A    between atoms: C_5  and  C_6
REMARK    5  A    between atoms: C_6  and  C_7
REMARK    6  A    between atoms: C_7  and  C_8
REMARK    7  A    between atoms: C_8  and  C_9
REMARK    8  A    between atoms: C_9  and  C_10
REMARK    9  A    between atoms: C_10  and  C_11
REMARK   10  A    between atoms: C_11  and  C_12
REMARK   11  A    between atoms: C_12  and  C_13
REMARK   12  A    between atoms: C_13  and  O_14
REMARK   13  A    between atoms: O_14  and  C_15
REMARK                            x       y       z     vdW  Elec       q    Type
REMARK                         _______ _______ _______ _____ _____    ______ ____
ROOT
ATOM      1  C   UNL     1       2.218   3.598  17.465  0.00  0.00    +0.000 C 
ENDROOT
BRANCH   1   2
ATOM      2  C   UNL     1       3.386   4.574  17.391  0.00  0.00    +0.000 C 
BRANCH   2   3
ATOM      3  C   UNL     1       4.716   3.858  17.625  0.00  0.00    +0.000 C 
BRANCH   3   4
ATOM      4  C   UNL     1       5.666   3.975  16.430  0.00  0.00    +0.000 C 
BRANCH   4   5
ATOM      5  C   UNL     1       5.274   5.106  15.473  0.00  0.00    +0.000 C 
BRANCH   5   6
ATOM      6  C   UNL     1       5.903   6.439  15.861  0.00  0.00    +0.000 C 
BRANCH   6   7
ATOM      7  O   UNL     1       7.230   6.257  16.371  0.00  0.00    +0.000 OA
BRANCH   7   9
ATOM      8  C   UNL     1       7.721   6.318  18.656  0.00  0.00    +0.000 C 
ATOM      9  C   UNL     1       7.584   7.093  17.384  0.00  0.00    +0.000 C 
ATOM     10  O   UNL     1       7.759   8.300  17.289  0.00  0.00    +0.000 OA
ENDBRANCH   7   9
ENDBRANCH   6   7
ENDBRANCH   5   6
ENDBRANCH   4   5
ENDBRANCH   3   4
ENDBRANCH   2   3
ENDBRANCH   1   2
BRANCH   1  11
ATOM     11  C   UNL     1       1.289   3.941  18.632  0.00  0.00    +0.000 C 
BRANCH  11  12
ATOM     12  C   UNL     1       2.041   4.129  19.953  0.00  0.00    +0.000 C 
BRANCH  12  13
ATOM     13  C   UNL     1       1.840   5.526  20.532  0.00  0.00    +0.000 C 
BRANCH  13  14
ATOM     14  O   UNL     1       2.788   6.425  19.956  0.00  0.00    +0.000 OA
BRANCH  14  15
ATOM     15  C   UNL     1       2.190   7.612  19.570  0.00  0.00    +0.000 A 
ATOM     16  C   UNL     1       2.432   8.036  18.277  0.00  0.00    +0.000 A 
ATOM     17  C   UNL     1       1.848   9.227  17.856  0.00  0.00    +0.000 A 
ATOM     18  C   UNL     1       1.046   9.944  18.739  0.00  0.00    +0.000 A 
ATOM     19  C   UNL     1       0.859   9.438  20.013  0.00  0.00    +0.000 A 
ATOM     20  N   UNL     1       1.415   8.289  20.449  0.00  0.00    +0.000 NA
ENDBRANCH  14  15
ENDBRANCH  13  14
ENDBRANCH  12  13
ENDBRANCH  11  12
ENDBRANCH   1  11
TORSDOF 12
ENDMDL
MODEL 4
REMARK VINA RESULT:      -5.5      5.886      9.087
REMARK  Name = 
REMARK  13 active torsions:
REMARK  status: ('A' for Active; 'I' for Inactive)
REMARK    1  A    between atoms: C_1  and  C_2
REMARK    2  A    between atoms: C_2  and  O_4
REMARK    3  A    between atoms: O_4  and  C_5
REMARK    4  A    between atoms: C_5  and  C_6
REMARK    5  A    between atoms: C_6  and  C_7
REMARK    6  A    between atoms: C_7  and  C_8
REMARK    7  A    between atoms: C_8  and  C_9
REMARK    8  A    between atoms: C_9  and  C_10
REMARK    9  A    between atoms: C_10  and  C_11
REMARK   10  A    between atoms: C_11  and  C_12
REMARK   11  A    between atoms: C_12  and  C_13
REMARK   12  A    between atoms: C_13  and  O_14
REMARK   13  A    between atoms: O_14  and  C_15
REMARK                            x       y       z     vdW  Elec       q    Type
REMARK                         _______ _______ _______ _____ _____    ______ ____
ROOT
ATOM      1  C   UNL     1       7.902   8.825  17.714  0.00  0.00    +0.000 C 
ENDROOT
BRANCH   1   2
ATOM      2  C   UNL     1       8.821   8.837  18.929  0.00  0.00    +0.000 C 
BRANCH   2   3
ATOM      3  C   UNL     1       9.312  10.252  19.234  0.00  0.00    +0.000 C 
BRANCH   3   4
ATOM      4  C   UNL     1       9.211  11.183  18.022  0.00  0.00    +0.000 C 
BRANCH   4   5
ATOM      5  C   UNL     1      10.553  11.829  17.660  0.00  0.00    +0.000 C 
BRANCH   5   6
ATOM      6  C   UNL     1      10.520  13.347  17.786  0.00  0.00    +0.000 C 
BRANCH   6   7
ATOM      7  O   UNL     1       9.808  13.755  18.962  0.00  0.00    +0.000 OA
BRANCH   7   9
ATOM      8  C   UNL     1      11.810  14.679  19.738  0.00  0.00    +0.000 C 
ATOM      9  C   UNL     1      10.570  13.915  20.078  0.00  0.00    +0.000 C 
ATOM     10  O   UNL     1      10.300  13.496  21.195  0.00  0.00    +0.000 OA
ENDBRANCH   7   9
ENDBRANCH   6   7
ENDBRANCH   5   6
ENDBRANCH   4   5
ENDBRANCH   3   4
ENDBRANCH   2   3
ENDBRANCH   1   2
BRANCH   1  11
ATOM     11  C   UNL     1       7.497   7.395  17.346  0.00  0.00    +0.000 C 
BRANCH  11  12
ATOM     12  C   UNL     1       7.723   6.402  18.490  0.00  0.00    +0.000 C 
BRANCH  12  13
ATOM     13  C   UNL     1       7.317   4.984  18.103  0.00  0.00    +0.000 C 
BRANCH  13  14
ATOM     14  O   UNL     1       6.442   4.448  19.097  0.00  0.00    +0.000 OA
BRANCH  14  15
ATOM     15  C   UNL     1       5.115   4.598  18.736  0.00  0.00    +0.000 A 
ATOM     16  C   UNL     1       4.685   3.870  17.641  0.00  0.00    +0.000 A 
ATOM     17  C   UNL     1       3.356   3.997  17.248  0.00  0.00    +0.000 A 
ATOM     18  C   UNL     1       2.511   4.841  17.962  0.00  0.00    +0.000 A 
ATOM     19  C   UNL     1       3.030   5.526  19.046  0.00  0.00    +0.000 A 
ATOM     20  N   UNL     1       4.314   5.425  19.447  0.00  0.00    +0.000 NA
ENDBRANCH  14  15
ENDBRANCH  13  14
ENDBRANCH  12  13
ENDBRANCH  11  12
ENDBRANCH   1  11
TORSDOF 12
ENDMDL
MODEL 5
REMARK VINA RESULT:      -5.5      1.432      2.352
REMARK  Name = 
REMARK  13 active torsions:
REMARK  status: ('A' for Active; 'I' for Inactive)
REMARK    1  A    between atoms: C_1  and  C_2
REMARK    2  A    between atoms: C_2  and  O_4
REMARK    3  A    between atoms: O_4  and  C_5
REMARK    4  A    between atoms: C_5  and  C_6
REMARK    5  A    between atoms: C_6  and  C_7
REMARK    6  A    between atoms: C_7  and  C_8
REMARK    7  A    between atoms: C_8  and  C_9
REMARK    8  A    between atoms: C_9  and  C_10
REMARK    9  A    between atoms: C_10  and  C_11
REMARK   10  A    between atoms: C_11  and  C_12
REMARK   11  A    between atoms: C_12  and  C_13
REMARK   12  A    between atoms: C_13  and  O_14
REMARK   13  A    between atoms: O_14  and  C_15
REMARK                            x       y       z     vdW  Elec       q    Type
REMARK                         _______ _______ _______ _____ _____    ______ ____
ROOT
ATOM      1  C   UNL     1       3.166   6.790  18.132  0.00  0.00    +0.000 C 
ENDROOT
BRANCH   1   2
ATOM      2  C   UNL     1       3.274   5.841  19.319  0.00  0.00    +0.000 C 
BRANCH   2   3
ATOM      3  C   UNL     1       2.092   6.016  20.273  0.00  0.00    +0.000 C 
BRANCH   3   4
ATOM      4  C   UNL     1       1.720   4.718  20.994  0.00  0.00    +0.000 C 
BRANCH   4   5
ATOM      5  C   UNL     1       2.664   3.561  20.652  0.00  0.00    +0.000 C 
BRANCH   5   6
ATOM      6  C   UNL     1       1.913   2.281  20.304  0.00  0.00    +0.000 C 
BRANCH   6   7
ATOM      7  O   UNL     1       1.715   2.166  18.888  0.00  0.00    +0.000 OA
BRANCH   7   9
ATOM      8  C   UNL     1       2.970   2.963  17.084  0.00  0.00    +0.000 C 
ATOM      9  C   UNL     1       2.839   1.931  18.160  0.00  0.00    +0.000 C 
ATOM     10  O   UNL     1       3.629   1.014  18.337  0.00  0.00    +0.000 OA
ENDBRANCH   7   9
ENDBRANCH   6   7
ENDBRANCH   5   6
ENDBRANCH   4   5
ENDBRANCH   3   4
ENDBRANCH   2   3
ENDBRANCH   1   2
BRANCH   1  11
ATOM     11  C   UNL     1       4.273   6.520  17.110  0.00  0.00    +0.000 C 
BRANCH  11  12
ATOM     12  C   UNL     1       5.573   6.037  17.759  0.00  0.00    +0.000 C 
BRANCH  12  13
ATOM     13  C   UNL     1       6.382   5.145  16.823  0.00  0.00    +0.000 C 
BRANCH  13  14
ATOM     14  O   UNL     1       5.546   4.681  15.762  0.00  0.00    +0.000 OA
BRANCH  14  15
ATOM     15  C   UNL     1       6.233   4.633  14.561  0.00  0.00    +0.000 A 
ATOM     16  C   UNL     1       5.762   3.744  13.613  0.00  0.00    +0.000 A 
ATOM     17  C   UNL     1       6.429   3.668  12.394  0.00  0.00    +0.000 A 
ATOM     18  C   UNL     1       7.536   4.482  12.170  0.00  0.00    +0.000 A 
ATOM     19  C   UNL     1       7.932   5.344  13.178  0.00  0.00    +0.000 A 
ATOM     20  N   UNL     1       7.306   5.435  14.369  0.00  0.00    +0.000 NA
ENDBRANCH  14  15
ENDBRANCH  13  14
ENDBRANCH  12  13
ENDBRANCH  11  12
ENDBRANCH   1  11
TORSDOF 12
ENDMDL
MODEL 6
REMARK VINA RESULT:      -5.5      3.350      6.934
REMARK  Name = 
REMARK  13 active torsions:
REMARK  status: ('A' for Active; 'I' for Inactive)
REMARK    1  A    between atoms: C_1  and  C_2
REMARK    2  A    between atoms: C_2  and  O_4
REMARK    3  A    between atoms: O_4  and  C_5
REMARK    4  A    between atoms: C_5  and  C_6
REMARK    5  A    between atoms: C_6  and  C_7
REMARK    6  A    between atoms: C_7  and  C_8
REMARK    7  A    between atoms: C_8  and  C_9
REMARK    8  A    between atoms: C_9  and  C_10
REMARK    9  A    between atoms: C_10  and  C_11
REMARK   10  A    between atoms: C_11  and  C_12
REMARK   11  A    between atoms: C_12  and  C_13
REMARK   12  A    between atoms: C_13  and  O_14
REMARK   13  A    between atoms: O_14  and  C_15
REMARK                            x       y       z     vdW  Elec       q    Type
REMARK                         _______ _______ _______ _____ _____    ______ ____
ROOT
ATOM      1  C   UNL     1       1.798   3.675  17.955  0.00  0.00    +0.000 C 
ENDROOT
BRANCH   1   2
ATOM      2  C   UNL     1       2.779   2.521  17.794  0.00  0.00    +0.000 C 
BRANCH   2   3
ATOM      3  C   UNL     1       4.051   2.976  17.077  0.00  0.00    +0.000 C 
BRANCH   3   4
ATOM      4  C   UNL     1       4.604   4.289  17.636  0.00  0.00    +0.000 C 
BRANCH   4   5
ATOM      5  C   UNL     1       5.517   5.016  16.643  0.00  0.00    +0.000 C 
BRANCH   5   6
ATOM      6  C   UNL     1       5.391   6.532  16.739  0.00  0.00    +0.000 C 
BRANCH   6   7
ATOM      7  O   UNL     1       6.667   7.168  16.593  0.00  0.00    +0.000 OA
BRANCH   7   9
ATOM      8  C   UNL     1       8.101   8.575  17.787  0.00  0.00    +0.000 C 
ATOM      9  C   UNL     1       7.411   7.250  17.728  0.00  0.00    +0.000 C 
ATOM     10  O   UNL     1       7.519   6.377  18.578  0.00  0.00    +0.000 OA
ENDBRANCH   7   9
ENDBRANCH   6   7
ENDBRANCH   5   6
ENDBRANCH   4   5
ENDBRANCH   3   4
ENDBRANCH   2   3
ENDBRANCH   1   2
BRANCH   1  11
ATOM     11  C   UNL     1       1.043   3.574  19.282  0.00  0.00    +0.000 C 
BRANCH  11  12
ATOM     12  C   UNL     1       1.951   3.785  20.498  0.00  0.00    +0.000 C 
BRANCH  12  13
ATOM     13  C   UNL     1       1.979   5.243  20.944  0.00  0.00    +0.000 C 
BRANCH  13  14
ATOM     14  O   UNL     1       2.882   5.980  20.118  0.00  0.00    +0.000 OA
BRANCH  14  15
ATOM     15  C   UNL     1       2.310   7.156  19.667  0.00  0.00    +0.000 A 
ATOM     16  C   UNL     1       2.388   7.403  18.309  0.00  0.00    +0.000 A 
ATOM     17  C   UNL     1       1.825   8.578  17.821  0.00  0.00    +0.000 A 
ATOM     18  C   UNL     1       1.204   9.456  18.704  0.00  0.00    +0.000 A 
ATOM     19  C   UNL     1       1.172   9.122  20.047  0.00  0.00    +0.000 A 
ATOM     20  N   UNL     1       1.713   7.993  20.547  0.00  0.00    +0.000 NA
ENDBRANCH  14  15
ENDBRANCH  13  14
ENDBRANCH  12  13
ENDBRANCH  11  12
ENDBRANCH   1  11
TORSDOF 12
ENDMDL
MODEL 7
REMARK VINA RESULT:      -5.5      3.999      5.902
REMARK  Name = 
REMARK  13 active torsions:
REMARK  status: ('A' for Active; 'I' for Inactive)
REMARK    1  A    between atoms: C_1  and  C_2
REMARK    2  A    between atoms: C_2  and  O_4
REMARK    3  A    between atoms: O_4  and  C_5
REMARK    4  A    between atoms: C_5  and  C_6
REMARK    5  A    between atoms: C_6  and  C_7
REMARK    6  A    between atoms: C_7  and  C_8
REMARK    7  A    between atoms: C_8  and  C_9
REMARK    8  A    between atoms: C_9  and  C_10
REMARK    9  A    between atoms: C_10  and  C_11
REMARK   10  A    between atoms: C_11  and  C_12
REMARK   11  A    between atoms: C_12  and  C_13
REMARK   12  A    between atoms: C_13  and  O_14
REMARK   13  A    between atoms: O_14  and  C_15
REMARK                            x       y       z     vdW  Elec       q    Type
REMARK                         _______ _______ _______ _____ _____    ______ ____
ROOT
ATOM      1  C   UNL     1       1.591   5.941  20.628  0.00  0.00    +0.000 C 
ENDROOT
BRANCH   1   2
ATOM      2  C   UNL     1       2.790   6.235  19.734  0.00  0.00    +0.000 C 
BRANCH   2   3
ATOM      3  C   UNL     1       2.348   6.537  18.303  0.00  0.00    +0.000 C 
BRANCH   3   4
ATOM      4  C   UNL     1       3.199   7.624  17.641  0.00  0.00    +0.000 C 
BRANCH   4   5
ATOM      5  C   UNL     1       2.627   9.030  17.846  0.00  0.00    +0.000 C 
BRANCH   5   6
ATOM      6  C   UNL     1       1.109   9.025  17.985  0.00  0.00    +0.000 C 
BRANCH   6   7
ATOM      7  O   UNL     1       0.703   9.558  19.252  0.00  0.00    +0.000 OA
BRANCH   7   9
ATOM      8  C   UNL     1       0.608  11.891  19.358  0.00  0.00    +0.000 C 
ATOM      9  C   UNL     1      -0.153  10.614  19.193  0.00  0.00    +0.000 C 
ATOM     10  O   UNL     1      -1.364  10.547  19.038  0.00  0.00    +0.000 OA
ENDBRANCH   7   9
ENDBRANCH   6   7
ENDBRANCH   5   6
ENDBRANCH   4   5
ENDBRANCH   3   4
ENDBRANCH   2   3
ENDBRANCH   1   2
BRANCH   1  11
ATOM     11  C   UNL     1       1.190   4.466  20.541  0.00  0.00    +0.000 C 
BRANCH  11  12
ATOM     12  C   UNL     1       2.261   3.527  21.102  0.00  0.00    +0.000 C 
BRANCH  12  13
ATOM     13  C   UNL     1       2.636   2.431  20.111  0.00  0.00    +0.000 C 
BRANCH  13  14
ATOM     14  O   UNL     1       4.058   2.348  20.003  0.00  0.00    +0.000 OA
BRANCH  14  15
ATOM     15  C   UNL     1       4.537   3.168  18.996  0.00  0.00    +0.000 A 
ATOM     16  C   UNL     1       3.892   3.092  17.775  0.00  0.00    +0.000 A 
ATOM     17  C   UNL     1       4.348   3.901  16.740  0.00  0.00    +0.000 A 
ATOM     18  C   UNL     1       5.425   4.754  16.963  0.00  0.00    +0.000 A 
ATOM     19  C   UNL     1       6.005   4.763  18.219  0.00  0.00    +0.000 A 
ATOM     20  N   UNL     1       5.586   3.987  19.239  0.00  0.00    +0.000 NA
ENDBRANCH  14  15
ENDBRANCH  13  14
ENDBRANCH  12  13
ENDBRANCH  11  12
ENDBRANCH   1  11
TORSDOF 12
ENDMDL
MODEL 8
REMARK VINA RESULT:      -5.4      3.588      7.660
REMARK  Name = 
REMARK  13 active torsions:
REMARK  status: ('A' for Active; 'I' for Inactive)
REMARK    1  A    between atoms: C_1  and  C_2
REMARK    2  A    between atoms: C_2  and  O_4
REMARK    3  A    between atoms: O_4  and  C_5
REMARK    4  A    between atoms: C_5  and  C_6
REMARK    5  A    between atoms: C_6  and  C_7
REMARK    6  A    between atoms: C_7  and  C_8
REMARK    7  A    between atoms: C_8  and  C_9
REMARK    8  A    between atoms: C_9  and  C_10
REMARK    9  A    between atoms: C_10  and  C_11
REMARK   10  A    between atoms: C_11  and  C_12
REMARK   11  A    between atoms: C_12  and  C_13
REMARK   12  A    between atoms: C_13  and  O_14
REMARK   13  A    between atoms: O_14  and  C_15
REMARK                            x       y       z     vdW  Elec       q    Type
REMARK                         _______ _______ _______ _____ _____    ______ ____
ROOT
ATOM      1  C   UNL     1       5.034   4.020  17.298  0.00  0.00    +0.000 C 
ENDROOT
BRANCH   1   2
ATOM      2  C   UNL     1       5.202   5.534  17.331  0.00  0.00    +0.000 C 
BRANCH   2   3
ATOM      3  C   UNL     1       6.414   5.971  16.507  0.00  0.00    +0.000 C 
BRANCH   3   4
ATOM      4  C   UNL     1       7.051   4.811  15.738  0.00  0.00    +0.000 C 
BRANCH   4   5
ATOM      5  C   UNL     1       6.858   4.931  14.223  0.00  0.00    +0.000 C 
BRANCH   5   6
ATOM      6  C   UNL     1       6.044   3.778  13.648  0.00  0.00    +0.000 C 
BRANCH   6   7
ATOM      7  O   UNL     1       6.324   3.590  12.254  0.00  0.00    +0.000 OA
BRANCH   7   9
ATOM      8  C   UNL     1       4.201   3.275  11.326  0.00  0.00    +0.000 C 
ATOM      9  C   UNL     1       5.540   2.676  11.620  0.00  0.00    +0.000 C 
ATOM     10  O   UNL     1       5.862   1.531  11.336  0.00  0.00    +0.000 OA
ENDBRANCH   7   9
ENDBRANCH   6   7
ENDBRANCH   5   6
ENDBRANCH   4   5
ENDBRANCH   3   4
ENDBRANCH   2   3
ENDBRANCH   1   2
BRANCH   1  11
ATOM     11  C   UNL     1       3.941   3.567  18.269  0.00  0.00    +0.000 C 
BRANCH  11  12
ATOM     12  C   UNL     1       2.572   4.170  17.942  0.00  0.00    +0.000 C 
BRANCH  12  13
ATOM     13  C   UNL     1       1.946   4.856  19.152  0.00  0.00    +0.000 C 
BRANCH  13  14
ATOM     14  O   UNL     1       2.816   5.886  19.623  0.00  0.00    +0.000 OA
BRANCH  14  15
ATOM     15  C   UNL     1       2.244   7.138  19.474  0.00  0.00    +0.000 A 
ATOM     16  C   UNL     1       2.295   7.697  18.211  0.00  0.00    +0.000 A 
ATOM     17  C   UNL     1       1.731   8.955  18.026  0.00  0.00    +0.000 A 
ATOM     18  C   UNL     1       1.138   9.603  19.105  0.00  0.00    +0.000 A 
ATOM     19  C   UNL     1       1.132   8.963  20.332  0.00  0.00    +0.000 A 
ATOM     20  N   UNL     1       1.673   7.745  20.540  0.00  0.00    +0.000 NA
ENDBRANCH  14  15
ENDBRANCH  13  14
ENDBRANCH  12  13
ENDBRANCH  11  12
ENDBRANCH   1  11
TORSDOF 12
ENDMDL
MODEL 9
REMARK VINA RESULT:      -5.4      4.474      6.685
REMARK  Name = 
REMARK  13 active torsions:
REMARK  status: ('A' for Active; 'I' for Inactive)
REMARK    1  A    between atoms: C_1  and  C_2
REMARK    2  A    between atoms: C_2  and  O_4
REMARK    3  A    between atoms: O_4  and  C_5
REMARK    4  A    between atoms: C_5  and  C_6
REMARK    5  A    between atoms: C_6  and  C_7
REMARK    6  A    between atoms: C_7  and  C_8
REMARK    7  A    between atoms: C_8  and  C_9
REMARK    8  A    between atoms: C_9  and  C_10
REMARK    9  A    between atoms: C_10  and  C_11
REMARK   10  A    between atoms: C_11  and  C_12
REMARK   11  A    between atoms: C_12  and  C_13
REMARK   12  A    between atoms: C_13  and  O_14
REMARK   13  A    between atoms: O_14  and  C_15
REMARK                            x       y       z     vdW  Elec       q    Type
REMARK                         _______ _______ _______ _____ _____    ______ ____
ROOT
ATOM      1  C   UNL     1       3.083   6.253  17.823  0.00  0.00    +0.000 C 
ENDROOT
BRANCH   1   2
ATOM      2  C   UNL     1       2.855   6.478  19.312  0.00  0.00    +0.000 C 
BRANCH   2   3
ATOM      3  C   UNL     1       2.033   7.744  19.558  0.00  0.00    +0.000 C 
BRANCH   3   4
ATOM      4  C   UNL     1       2.162   8.759  18.419  0.00  0.00    +0.000 C 
BRANCH   4   5
ATOM      5  C   UNL     1       0.821   9.393  18.038  0.00  0.00    +0.000 C 
BRANCH   5   6
ATOM      6  C   UNL     1       0.498  10.621  18.880  0.00  0.00    +0.000 C 
BRANCH   6   7
ATOM      7  O   UNL     1      -0.240  10.264  20.056  0.00  0.00    +0.000 OA
BRANCH   7   9
ATOM      8  C   UNL     1      -0.241   9.774  22.342  0.00  0.00    +0.000 C 
ATOM      9  C   UNL     1       0.351  10.589  21.237  0.00  0.00    +0.000 C 
ATOM     10  O   UNL     1       1.229  11.427  21.391  0.00  0.00    +0.000 OA
ENDBRANCH   7   9
ENDBRANCH   6   7
ENDBRANCH   5   6
ENDBRANCH   4   5
ENDBRANCH   3   4
ENDBRANCH   2   3
ENDBRANCH   1   2
BRANCH   1  11
ATOM     11  C   UNL     1       4.575   6.119  17.510  0.00  0.00    +0.000 C 
BRANCH  11  12
ATOM     12  C   UNL     1       5.075   4.675  17.611  0.00  0.00    +0.000 C 
BRANCH  12  13
ATOM     13  C   UNL     1       4.040   3.675  17.103  0.00  0.00    +0.000 C 
BRANCH  13  14
ATOM     14  O   UNL     1       3.984   2.554  17.986  0.00  0.00    +0.000 OA
BRANCH  14  15
ATOM     15  C   UNL     1       3.030   2.735  18.972  0.00  0.00    +0.000 A 
ATOM     16  C   UNL     1       3.464   2.626  20.281  0.00  0.00    +0.000 A 
ATOM     17  C   UNL     1       2.531   2.801  21.298  0.00  0.00    +0.000 A 
ATOM     18  C   UNL     1       1.207   3.079  20.972  0.00  0.00    +0.000 A 
ATOM     19  C   UNL     1       0.867   3.171  19.634  0.00  0.00    +0.000 A 
ATOM     20  N   UNL     1       1.749   3.004  18.627  0.00  0.00    +0.000 NA
ENDBRANCH  14  15
ENDBRANCH  13  14
ENDBRANCH  12  13
ENDBRANCH  11  12
ENDBRANCH   1  11
TORSDOF 12
ENDMDL
