MODEL 1
REMARK VINA RESULT:      -7.5      0.000      0.000
REMARK  Name = 
REMARK  8 active torsions:
REMARK  status: ('A' for Active; 'I' for Inactive)
REMARK    1  A    between atoms: C_2  and  O_3
REMARK    2  A    between atoms: C_2  and  C_4
REMARK    3  A    between atoms: C_4  and  N_5
REMARK    4  A    between atoms: N_5  and  S_6
REMARK    5  A    between atoms: S_6  and  C_9
REMARK    6  A    between atoms: C_12  and  N_13
REMARK    7  A    between atoms: N_13  and  C_14
REMARK    8  A    between atoms: C_14  and  C_15
REMARK                            x       y       z     vdW  Elec       q    Type
REMARK                         _______ _______ _______ _____ _____    ______ ____
ROOT
ATOM      1  C   UNL     1       5.824   5.260  17.251  0.00  0.00    +0.000 A 
ATOM      2  C   UNL     1       4.833   6.155  16.854  0.00  0.00    +0.000 A 
ATOM      3  C   UNL     1       3.876   6.577  17.786  0.00  0.00    +0.000 A 
ATOM      4  C   UNL     1       3.864   6.094  19.106  0.00  0.00    +0.000 A 
ATOM      5  C   UNL     1       4.870   5.190  19.475  0.00  0.00    +0.000 A 
ATOM      6  C   UNL     1       5.834   4.758  18.554  0.00  0.00    +0.000 A 
ENDROOT
BRANCH   1   7
ATOM      7  S   UNL     1       7.084   4.746  16.106  0.00  0.00    +0.000 S 
ATOM      8  O   UNL     1       8.139   4.081  16.836  0.00  0.00    +0.000 OA
ATOM      9  O   UNL     1       7.336   5.865  15.227  0.00  0.00    +0.000 OA
BRANCH   7  10
ATOM     10  N   UNL     1       6.272   3.563  15.170  0.00  0.00    +0.000 NA
ATOM     11  H   UNL     1       6.934   2.813  14.946  0.00  0.00    +0.000 HD
BRANCH  10  12
ATOM     12  C   UNL     1       5.651   4.111  13.922  0.00  0.00    +0.000 C 
BRANCH  12  14
ATOM     13  O   UNL     1       7.275   4.330  12.133  0.00  0.00    +0.000 OA
ATOM     14  C   UNL     1       6.452   3.645  12.722  0.00  0.00    +0.000 C 
BRANCH  14  15
ATOM     15  O   UNL     1       6.141   2.378  12.343  0.00  0.00    +0.000 OA
ATOM     16  H   UNL     1       5.430   2.028  12.926  0.00  0.00    +0.000 HD
ENDBRANCH  14  15
ENDBRANCH  12  14
ENDBRANCH  10  12
ENDBRANCH   7  10
ENDBRANCH   1   7
BRANCH   4  17
ATOM     17  N   UNL     1       2.949   6.638  20.013  0.00  0.00    +0.000 N 
ATOM     18  H   UNL     1       2.983   7.655  20.041  0.00  0.00    +0.000 HD
BRANCH  17  19
ATOM     19  C   UNL     1       1.569   6.159  20.029  0.00  0.00    +0.000 C 
BRANCH  19  20
ATOM     20  C   UNL     1       1.548   4.646  19.940  0.00  0.00    +0.000 A 
ATOM     21  C   UNL     1       1.688   3.851  21.087  0.00  0.00    +0.000 A 
ATOM     22  C   UNL     1       1.634   2.456  20.993  0.00  0.00    +0.000 A 
ATOM     23  C   UNL     1       1.436   1.843  19.758  0.00  0.00    +0.000 A 
ATOM     24  C   UNL     1       1.295   2.621  18.612  0.00  0.00    +0.000 A 
ATOM     25  C   UNL     1       1.349   4.013  18.702  0.00  0.00    +0.000 A 
ENDBRANCH  19  20
ENDBRANCH  17  19
ENDBRANCH   4  17
TORSDOF 8
ENDMDL
MODEL 2
REMARK VINA RESULT:      -7.3      0.212      1.466
REMARK  Name = 
REMARK  8 active torsions:
REMARK  status: ('A' for Active; 'I' for Inactive)
REMARK    1  A    between atoms: C_2  and  O_3
REMARK    2  A    between atoms: C_2  and  C_4
REMARK    3  A    between atoms: C_4  and  N_5
REMARK    4  A    between atoms: N_5  and  S_6
REMARK    5  A    between atoms: S_6  and  C_9
REMARK    6  A    between atoms: C_12  and  N_13
REMARK    7  A    between atoms: N_13  and  C_14
REMARK    8  A    between atoms: C_14  and  C_15
REMARK                            x       y       z     vdW  Elec       q    Type
REMARK                         _______ _______ _______ _____ _____    ______ ____
ROOT
ATOM      1  C   UNL     1       5.925   5.322  17.148  0.00  0.00    +0.000 A 
ATOM      2  C   UNL     1       5.960   4.891  18.472  0.00  0.00    +0.000 A 
ATOM      3  C   UNL     1       4.983   5.344  19.368  0.00  0.00    +0.000 A 
ATOM      4  C   UNL     1       3.984   6.252  18.977  0.00  0.00    +0.000 A 
ATOM      5  C   UNL     1       3.977   6.672  17.640  0.00  0.00    +0.000 A 
ATOM      6  C   UNL     1       4.949   6.230  16.732  0.00  0.00    +0.000 A 
ENDROOT
BRANCH   1   7
ATOM      7  S   UNL     1       7.121   4.724  15.975  0.00  0.00    +0.000 S 
ATOM      8  O   UNL     1       8.176   4.042  16.688  0.00  0.00    +0.000 OA
ATOM      9  O   UNL     1       7.382   5.804  15.051  0.00  0.00    +0.000 OA
BRANCH   7  10
ATOM     10  N   UNL     1       6.230   3.545  15.109  0.00  0.00    +0.000 NA
ATOM     11  H   UNL     1       6.856   2.766  14.880  0.00  0.00    +0.000 HD
BRANCH  10  12
ATOM     12  C   UNL     1       5.576   4.079  13.871  0.00  0.00    +0.000 C 
BRANCH  12  14
ATOM     13  O   UNL     1       7.195   4.220  12.070  0.00  0.00    +0.000 OA
ATOM     14  C   UNL     1       6.332   3.582  12.655  0.00  0.00    +0.000 C 
BRANCH  14  15
ATOM     15  O   UNL     1       5.932   2.346  12.257  0.00  0.00    +0.000 OA
ATOM     16  H   UNL     1       6.328   2.141  11.380  0.00  0.00    +0.000 HD
ENDBRANCH  14  15
ENDBRANCH  12  14
ENDBRANCH  10  12
ENDBRANCH   7  10
ENDBRANCH   1   7
BRANCH   4  17
ATOM     17  N   UNL     1       2.976   6.578  19.890  0.00  0.00    +0.000 N 
ATOM     18  H   UNL     1       3.007   7.555  20.175  0.00  0.00    +0.000 HD
BRANCH  17  19
ATOM     19  C   UNL     1       1.602   6.148  19.640  0.00  0.00    +0.000 C 
BRANCH  19  20
ATOM     20  C   UNL     1       1.529   4.635  19.633  0.00  0.00    +0.000 A 
ATOM     21  C   UNL     1       1.462   3.918  18.429  0.00  0.00    +0.000 A 
ATOM     22  C   UNL     1       1.428   2.519  18.438  0.00  0.00    +0.000 A 
ATOM     23  C   UNL     1       1.464   1.824  19.644  0.00  0.00    +0.000 A 
ATOM     24  C   UNL     1       1.532   2.524  20.846  0.00  0.00    +0.000 A 
ATOM     25  C   UNL     1       1.565   3.919  20.841  0.00  0.00    +0.000 A 
ENDBRANCH  19  20
ENDBRANCH  17  19
ENDBRANCH   4  17
TORSDOF 8
ENDMDL
MODEL 3
REMARK VINA RESULT:      -7.1      5.551      8.230
REMARK  Name = 
REMARK  8 active torsions:
REMARK  status: ('A' for Active; 'I' for Inactive)
REMARK    1  A    between atoms: C_2  and  O_3
REMARK    2  A    between atoms: C_2  and  C_4
REMARK    3  A    between atoms: C_4  and  N_5
REMARK    4  A    between atoms: N_5  and  S_6
REMARK    5  A    between atoms: S_6  and  C_9
REMARK    6  A    between atoms: C_12  and  N_13
REMARK    7  A    between atoms: N_13  and  C_14
REMARK    8  A    between atoms: C_14  and  C_15
REMARK                            x       y       z     vdW  Elec       q    Type
REMARK                         _______ _______ _______ _____ _____    ______ ____
ROOT
ATOM      1  C   UNL     1       6.163   5.570  17.708  0.00  0.00    +0.000 A 
ATOM      2  C   UNL     1       7.094   5.378  18.726  0.00  0.00    +0.000 A 
ATOM      3  C   UNL     1       7.986   6.411  19.044  0.00  0.00    +0.000 A 
ATOM      4  C   UNL     1       7.993   7.626  18.339  0.00  0.00    +0.000 A 
ATOM      5  C   UNL     1       7.048   7.788  17.317  0.00  0.00    +0.000 A 
ATOM      6  C   UNL     1       6.150   6.765  16.985  0.00  0.00    +0.000 A 
ENDROOT
BRANCH   1   7
ATOM      7  S   UNL     1       4.983   4.298  17.317  0.00  0.00    +0.000 S 
ATOM      8  O   UNL     1       5.411   3.615  16.117  0.00  0.00    +0.000 OA
ATOM      9  O   UNL     1       3.670   4.886  17.447  0.00  0.00    +0.000 OA
BRANCH   7  10
ATOM     10  N   UNL     1       5.165   3.210  18.628  0.00  0.00    +0.000 NA
ATOM     11  H   UNL     1       5.593   2.348  18.279  0.00  0.00    +0.000 HD
BRANCH  10  12
ATOM     12  C   UNL     1       3.880   2.913  19.339  0.00  0.00    +0.000 C 
BRANCH  12  14
ATOM     13  O   UNL     1       5.189   1.574  20.881  0.00  0.00    +0.000 OA
ATOM     14  C   UNL     1       4.188   2.240  20.662  0.00  0.00    +0.000 C 
BRANCH  14  15
ATOM     15  O   UNL     1       3.213   2.432  21.588  0.00  0.00    +0.000 OA
ATOM     16  H   UNL     1       2.530   3.039  21.223  0.00  0.00    +0.000 HD
ENDBRANCH  14  15
ENDBRANCH  12  14
ENDBRANCH  10  12
ENDBRANCH   7  10
ENDBRANCH   1   7
BRANCH   4  17
ATOM     17  N   UNL     1       8.834   8.654  18.778  0.00  0.00    +0.000 N 
ATOM     18  H   UNL     1       9.820   8.420  18.688  0.00  0.00    +0.000 HD
BRANCH  17  19
ATOM     19  C   UNL     1       8.582  10.030  18.355  0.00  0.00    +0.000 C 
BRANCH  19  20
ATOM     20  C   UNL     1       9.740  10.916  18.768  0.00  0.00    +0.000 A 
ATOM     21  C   UNL     1       9.951  11.252  20.113  0.00  0.00    +0.000 A 
ATOM     22  C   UNL     1      11.044  12.045  20.483  0.00  0.00    +0.000 A 
ATOM     23  C   UNL     1      11.936  12.505  19.516  0.00  0.00    +0.000 A 
ATOM     24  C   UNL     1      11.738  12.177  18.178  0.00  0.00    +0.000 A 
ATOM     25  C   UNL     1      10.648  11.387  17.805  0.00  0.00    +0.000 A 
ENDBRANCH  19  20
ENDBRANCH  17  19
ENDBRANCH   4  17
TORSDOF 8
ENDMDL
MODEL 4
REMARK VINA RESULT:      -7.1      1.987      3.462
REMARK  Name = 
REMARK  8 active torsions:
REMARK  status: ('A' for Active; 'I' for Inactive)
REMARK    1  A    between atoms: C_2  and  O_3
REMARK    2  A    between atoms: C_2  and  C_4
REMARK    3  A    between atoms: C_4  and  N_5
REMARK    4  A    between atoms: N_5  and  S_6
REMARK    5  A    between atoms: S_6  and  C_9
REMARK    6  A    between atoms: C_12  and  N_13
REMARK    7  A    between atoms: N_13  and  C_14
REMARK    8  A    between atoms: C_14  and  C_15
REMARK                            x       y       z     vdW  Elec       q    Type
REMARK                         _______ _______ _______ _____ _____    ______ ____
ROOT
ATOM      1  C   UNL     1       5.101   5.429  16.530  0.00  0.00    +0.000 A 
ATOM      2  C   UNL     1       5.002   6.789  16.811  0.00  0.00    +0.000 A 
ATOM      3  C   UNL     1       3.929   7.254  17.582  0.00  0.00    +0.000 A 
ATOM      4  C   UNL     1       2.926   6.390  18.052  0.00  0.00    +0.000 A 
ATOM      5  C   UNL     1       3.050   5.027  17.749  0.00  0.00    +0.000 A 
ATOM      6  C   UNL     1       4.116   4.546  16.978  0.00  0.00    +0.000 A 
ENDROOT
BRANCH   1   7
ATOM      7  S   UNL     1       6.481   4.801  15.598  0.00  0.00    +0.000 S 
ATOM      8  O   UNL     1       6.717   5.670  14.468  0.00  0.00    +0.000 OA
ATOM      9  O   UNL     1       6.278   3.378  15.452  0.00  0.00    +0.000 OA
BRANCH   7  10
ATOM     10  N   UNL     1       7.785   4.999  16.691  0.00  0.00    +0.000 NA
ATOM     11  H   UNL     1       8.576   4.440  16.358  0.00  0.00    +0.000 HD
BRANCH  10  12
ATOM     12  C   UNL     1       7.440   4.641  18.104  0.00  0.00    +0.000 C 
BRANCH  12  14
ATOM     13  O   UNL     1       8.094   6.915  18.634  0.00  0.00    +0.000 OA
ATOM     14  C   UNL     1       7.831   5.785  19.018  0.00  0.00    +0.000 C 
BRANCH  14  15
ATOM     15  O   UNL     1       7.884   5.419  20.325  0.00  0.00    +0.000 OA
ATOM     16  H   UNL     1       7.839   4.438  20.391  0.00  0.00    +0.000 HD
ENDBRANCH  14  15
ENDBRANCH  12  14
ENDBRANCH  10  12
ENDBRANCH   7  10
ENDBRANCH   1   7
BRANCH   4  17
ATOM     17  N   UNL     1       1.944   6.901  18.907  0.00  0.00    +0.000 N 
ATOM     18  H   UNL     1       1.000   6.746  18.557  0.00  0.00    +0.000 HD
BRANCH  17  19
ATOM     19  C   UNL     1       2.019   6.636  20.342  0.00  0.00    +0.000 C 
BRANCH  19  20
ATOM     20  C   UNL     1       1.802   5.159  20.605  0.00  0.00    +0.000 A 
ATOM     21  C   UNL     1       0.723   4.472  20.029  0.00  0.00    +0.000 A 
ATOM     22  C   UNL     1       0.554   3.101  20.256  0.00  0.00    +0.000 A 
ATOM     23  C   UNL     1       1.460   2.405  21.054  0.00  0.00    +0.000 A 
ATOM     24  C   UNL     1       2.535   3.076  21.630  0.00  0.00    +0.000 A 
ATOM     25  C   UNL     1       2.705   4.444  21.407  0.00  0.00    +0.000 A 
ENDBRANCH  19  20
ENDBRANCH  17  19
ENDBRANCH   4  17
TORSDOF 8
ENDMDL
MODEL 5
REMARK VINA RESULT:      -7.0      5.559      8.171
REMARK  Name = 
REMARK  8 active torsions:
REMARK  status: ('A' for Active; 'I' for Inactive)
REMARK    1  A    between atoms: C_2  and  O_3
REMARK    2  A    between atoms: C_2  and  C_4
REMARK    3  A    between atoms: C_4  and  N_5
REMARK    4  A    between atoms: N_5  and  S_6
REMARK    5  A    between atoms: S_6  and  C_9
REMARK    6  A    between atoms: C_12  and  N_13
REMARK    7  A    between atoms: N_13  and  C_14
REMARK    8  A    between atoms: C_14  and  C_15
REMARK                            x       y       z     vdW  Elec       q    Type
REMARK                         _______ _______ _______ _____ _____    ______ ____
ROOT
ATOM      1  C   UNL     1       6.380   5.684  17.576  0.00  0.00    +0.000 A 
ATOM      2  C   UNL     1       6.256   6.966  17.046  0.00  0.00    +0.000 A 
ATOM      3  C   UNL     1       7.108   7.981  17.499  0.00  0.00    +0.000 A 
ATOM      4  C   UNL     1       8.065   7.753  18.502  0.00  0.00    +0.000 A 
ATOM      5  C   UNL     1       8.163   6.454  19.020  0.00  0.00    +0.000 A 
ATOM      6  C   UNL     1       7.318   5.428  18.579  0.00  0.00    +0.000 A 
ENDROOT
BRANCH   1   7
ATOM      7  S   UNL     1       5.348   4.361  16.984  0.00  0.00    +0.000 S 
ATOM      8  O   UNL     1       6.038   3.670  15.919  0.00  0.00    +0.000 OA
ATOM      9  O   UNL     1       4.019   4.904  16.823  0.00  0.00    +0.000 OA
BRANCH   7  10
ATOM     10  N   UNL     1       5.286   3.309  18.335  0.00  0.00    +0.000 NA
ATOM     11  H   UNL     1       5.202   2.346  17.994  0.00  0.00    +0.000 HD
BRANCH  10  12
ATOM     12  C   UNL     1       4.180   3.631  19.292  0.00  0.00    +0.000 C 
BRANCH  12  14
ATOM     13  O   UNL     1       3.189   2.445  21.162  0.00  0.00    +0.000 OA
ATOM     14  C   UNL     1       4.064   2.515  20.312  0.00  0.00    +0.000 C 
BRANCH  14  15
ATOM     15  O   UNL     1       5.061   1.599  20.202  0.00  0.00    +0.000 OA
ATOM     16  H   UNL     1       4.676   0.693  20.214  0.00  0.00    +0.000 HD
ENDBRANCH  14  15
ENDBRANCH  12  14
ENDBRANCH  10  12
ENDBRANCH   7  10
ENDBRANCH   1   7
BRANCH   4  17
ATOM     17  N   UNL     1       8.956   8.780  18.829  0.00  0.00    +0.000 N 
ATOM     18  H   UNL     1       9.929   8.489  18.769  0.00  0.00    +0.000 HD
BRANCH  17  19
ATOM     19  C   UNL     1       8.771  10.112  18.257  0.00  0.00    +0.000 C 
BRANCH  19  20
ATOM     20  C   UNL     1       9.904  11.020  18.690  0.00  0.00    +0.000 A 
ATOM     21  C   UNL     1      10.179  11.239  20.048  0.00  0.00    +0.000 A 
ATOM     22  C   UNL     1      11.249  12.055  20.432  0.00  0.00    +0.000 A 
ATOM     23  C   UNL     1      12.055  12.655  19.468  0.00  0.00    +0.000 A 
ATOM     24  C   UNL     1      11.793  12.445  18.117  0.00  0.00    +0.000 A 
ATOM     25  C   UNL     1      10.726  11.632  17.730  0.00  0.00    +0.000 A 
ENDBRANCH  19  20
ENDBRANCH  17  19
ENDBRANCH   4  17
TORSDOF 8
ENDMDL
MODEL 6
REMARK VINA RESULT:      -7.0      0.452      1.097
REMARK  Name = 
REMARK  8 active torsions:
REMARK  status: ('A' for Active; 'I' for Inactive)
REMARK    1  A    between atoms: C_2  and  O_3
REMARK    2  A    between atoms: C_2  and  C_4
REMARK    3  A    between atoms: C_4  and  N_5
REMARK    4  A    between atoms: N_5  and  S_6
REMARK    5  A    between atoms: S_6  and  C_9
REMARK    6  A    between atoms: C_12  and  N_13
REMARK    7  A    between atoms: N_13  and  C_14
REMARK    8  A    between atoms: C_14  and  C_15
REMARK                            x       y       z     vdW  Elec       q    Type
REMARK                         _______ _______ _______ _____ _____    ______ ____
ROOT
ATOM      1  C   UNL     1       5.744   5.318  17.364  0.00  0.00    +0.000 A 
ATOM      2  C   UNL     1       4.758   6.175  16.881  0.00  0.00    +0.000 A 
ATOM      3  C   UNL     1       3.749   6.617  17.747  0.00  0.00    +0.000 A 
ATOM      4  C   UNL     1       3.682   6.191  19.084  0.00  0.00    +0.000 A 
ATOM      5  C   UNL     1       4.685   5.324  19.540  0.00  0.00    +0.000 A 
ATOM      6  C   UNL     1       5.700   4.872  18.686  0.00  0.00    +0.000 A 
ENDROOT
BRANCH   1   7
ATOM      7  S   UNL     1       7.067   4.781  16.303  0.00  0.00    +0.000 S 
ATOM      8  O   UNL     1       8.091   4.159  17.110  0.00  0.00    +0.000 OA
ATOM      9  O   UNL     1       7.350   5.871  15.397  0.00  0.00    +0.000 OA
BRANCH   7  10
ATOM     10  N   UNL     1       6.319   3.554  15.372  0.00  0.00    +0.000 NA
ATOM     11  H   UNL     1       7.031   2.866  15.107  0.00  0.00    +0.000 HD
BRANCH  10  12
ATOM     12  C   UNL     1       5.607   4.073  14.160  0.00  0.00    +0.000 C 
BRANCH  12  14
ATOM     13  O   UNL     1       7.259   4.425  12.418  0.00  0.00    +0.000 OA
ATOM     14  C   UNL     1       6.404   3.711  12.922  0.00  0.00    +0.000 C 
BRANCH  14  15
ATOM     15  O   UNL     1       6.052   2.506  12.404  0.00  0.00    +0.000 OA
ATOM     16  H   UNL     1       5.588   2.641  11.547  0.00  0.00    +0.000 HD
ENDBRANCH  14  15
ENDBRANCH  12  14
ENDBRANCH  10  12
ENDBRANCH   7  10
ENDBRANCH   1   7
BRANCH   4  17
ATOM     17  N   UNL     1       2.714   6.754  19.923  0.00  0.00    +0.000 N 
ATOM     18  H   UNL     1       2.304   7.601  19.534  0.00  0.00    +0.000 HD
BRANCH  17  19
ATOM     19  C   UNL     1       1.690   5.904  20.525  0.00  0.00    +0.000 C 
BRANCH  19  20
ATOM     20  C   UNL     1       1.759   4.513  19.928  0.00  0.00    +0.000 A 
ATOM     21  C   UNL     1       1.426   4.283  18.585  0.00  0.00    +0.000 A 
ATOM     22  C   UNL     1       1.525   2.998  18.040  0.00  0.00    +0.000 A 
ATOM     23  C   UNL     1       1.961   1.934  18.826  0.00  0.00    +0.000 A 
ATOM     24  C   UNL     1       2.296   2.150  20.160  0.00  0.00    +0.000 A 
ATOM     25  C   UNL     1       2.196   3.430  20.708  0.00  0.00    +0.000 A 
ENDBRANCH  19  20
ENDBRANCH  17  19
ENDBRANCH   4  17
TORSDOF 8
ENDMDL
MODEL 7
REMARK VINA RESULT:      -6.9      5.256      7.599
REMARK  Name = 
REMARK  8 active torsions:
REMARK  status: ('A' for Active; 'I' for Inactive)
REMARK    1  A    between atoms: C_2  and  O_3
REMARK    2  A    between atoms: C_2  and  C_4
REMARK    3  A    between atoms: C_4  and  N_5
REMARK    4  A    between atoms: N_5  and  S_6
REMARK    5  A    between atoms: S_6  and  C_9
REMARK    6  A    between atoms: C_12  and  N_13
REMARK    7  A    between atoms: N_13  and  C_14
REMARK    8  A    between atoms: C_14  and  C_15
REMARK                            x       y       z     vdW  Elec       q    Type
REMARK                         _______ _______ _______ _____ _____    ______ ____
ROOT
ATOM      1  C   UNL     1       6.326   5.659  17.940  0.00  0.00    +0.000 A 
ATOM      2  C   UNL     1       7.329   5.477  18.889  0.00  0.00    +0.000 A 
ATOM      3  C   UNL     1       8.217   6.525  19.159  0.00  0.00    +0.000 A 
ATOM      4  C   UNL     1       8.149   7.749  18.471  0.00  0.00    +0.000 A 
ATOM      5  C   UNL     1       7.133   7.901  17.518  0.00  0.00    +0.000 A 
ATOM      6  C   UNL     1       6.237   6.861  17.235  0.00  0.00    +0.000 A 
ENDROOT
BRANCH   1   7
ATOM      7  S   UNL     1       5.151   4.364  17.613  0.00  0.00    +0.000 S 
ATOM      8  O   UNL     1       3.904   4.960  17.189  0.00  0.00    +0.000 OA
ATOM      9  O   UNL     1       5.230   3.434  18.716  0.00  0.00    +0.000 OA
BRANCH   7  10
ATOM     10  N   UNL     1       5.839   3.575  16.257  0.00  0.00    +0.000 NA
ATOM     11  H   UNL     1       6.859   3.633  16.329  0.00  0.00    +0.000 HD
BRANCH  10  12
ATOM     12  C   UNL     1       5.369   4.124  14.944  0.00  0.00    +0.000 C 
BRANCH  12  14
ATOM     13  O   UNL     1       6.676   3.974  12.906  0.00  0.00    +0.000 OA
ATOM     14  C   UNL     1       6.569   4.379  14.054  0.00  0.00    +0.000 C 
BRANCH  14  15
ATOM     15  O   UNL     1       7.542   5.095  14.676  0.00  0.00    +0.000 OA
ATOM     16  H   UNL     1       8.031   5.630  14.011  0.00  0.00    +0.000 HD
ENDBRANCH  14  15
ENDBRANCH  12  14
ENDBRANCH  10  12
ENDBRANCH   7  10
ENDBRANCH   1   7
BRANCH   4  17
ATOM     17  N   UNL     1       8.995   8.791  18.865  0.00  0.00    +0.000 N 
ATOM     18  H   UNL     1       9.979   8.571  18.724  0.00  0.00    +0.000 HD
BRANCH  17  19
ATOM     19  C   UNL     1       8.700  10.162  18.455  0.00  0.00    +0.000 C 
BRANCH  19  20
ATOM     20  C   UNL     1       9.884  11.057  18.762  0.00  0.00    +0.000 A 
ATOM     21  C   UNL     1      10.186  11.433  20.079  0.00  0.00    +0.000 A 
ATOM     22  C   UNL     1      11.301  12.234  20.349  0.00  0.00    +0.000 A 
ATOM     23  C   UNL     1      12.125  12.663  19.311  0.00  0.00    +0.000 A 
ATOM     24  C   UNL     1      11.836  12.296  18.000  0.00  0.00    +0.000 A 
ATOM     25  C   UNL     1      10.724  11.498  17.726  0.00  0.00    +0.000 A 
ENDBRANCH  19  20
ENDBRANCH  17  19
ENDBRANCH   4  17
TORSDOF 8
ENDMDL
MODEL 8
REMARK VINA RESULT:      -6.9      3.623      7.545
REMARK  Name = 
REMARK  8 active torsions:
REMARK  status: ('A' for Active; 'I' for Inactive)
REMARK    1  A    between atoms: C_2  and  O_3
REMARK    2  A    between atoms: C_2  and  C_4
REMARK    3  A    between atoms: C_4  and  N_5
REMARK    4  A    between atoms: N_5  and  S_6
REMARK    5  A    between atoms: S_6  and  C_9
REMARK    6  A    between atoms: C_12  and  N_13
REMARK    7  A    between atoms: N_13  and  C_14
REMARK    8  A    between atoms: C_14  and  C_15
REMARK                            x       y       z     vdW  Elec       q    Type
REMARK                         _______ _______ _______ _____ _____    ______ ____
ROOT
ATOM      1  C   UNL     1       4.397   4.798  17.246  0.00  0.00    +0.000 A 
ATOM      2  C   UNL     1       4.990   3.625  16.787  0.00  0.00    +0.000 A 
ATOM      3  C   UNL     1       5.964   3.695  15.782  0.00  0.00    +0.000 A 
ATOM      4  C   UNL     1       6.336   4.917  15.196  0.00  0.00    +0.000 A 
ATOM      5  C   UNL     1       5.718   6.080  15.674  0.00  0.00    +0.000 A 
ATOM      6  C   UNL     1       4.742   6.027  16.678  0.00  0.00    +0.000 A 
ENDROOT
BRANCH   1   7
ATOM      7  S   UNL     1       3.197   4.746  18.558  0.00  0.00    +0.000 S 
ATOM      8  O   UNL     1       1.879   4.609  17.981  0.00  0.00    +0.000 OA
ATOM      9  O   UNL     1       3.533   5.807  19.480  0.00  0.00    +0.000 OA
BRANCH   7  10
ATOM     10  N   UNL     1       3.576   3.274  19.347  0.00  0.00    +0.000 NA
ATOM     11  H   UNL     1       4.243   2.756  18.766  0.00  0.00    +0.000 HD
BRANCH  10  12
ATOM     12  C   UNL     1       2.375   2.432  19.650  0.00  0.00    +0.000 C 
BRANCH  12  14
ATOM     13  O   UNL     1       2.107   2.871  22.021  0.00  0.00    +0.000 OA
ATOM     14  C   UNL     1       1.680   2.980  20.881  0.00  0.00    +0.000 C 
BRANCH  14  15
ATOM     15  O   UNL     1       0.504   3.594  20.590  0.00  0.00    +0.000 OA
ATOM     16  H   UNL     1       0.557   3.996  19.694  0.00  0.00    +0.000 HD
ENDBRANCH  14  15
ENDBRANCH  12  14
ENDBRANCH  10  12
ENDBRANCH   7  10
ENDBRANCH   1   7
BRANCH   4  17
ATOM     17  N   UNL     1       7.390   4.929  14.277  0.00  0.00    +0.000 N 
ATOM     18  H   UNL     1       8.034   4.152  14.408  0.00  0.00    +0.000 HD
BRANCH  17  19
ATOM     19  C   UNL     1       7.115   5.147  12.858  0.00  0.00    +0.000 C 
BRANCH  19  20
ATOM     20  C   UNL     1       6.709   3.841  12.206  0.00  0.00    +0.000 A 
ATOM     21  C   UNL     1       7.672   2.934  11.740  0.00  0.00    +0.000 A 
ATOM     22  C   UNL     1       7.282   1.717  11.169  0.00  0.00    +0.000 A 
ATOM     23  C   UNL     1       5.931   1.394  11.061  0.00  0.00    +0.000 A 
ATOM     24  C   UNL     1       4.966   2.285  11.521  0.00  0.00    +0.000 A 
ATOM     25  C   UNL     1       5.351   3.500  12.090  0.00  0.00    +0.000 A 
ENDBRANCH  19  20
ENDBRANCH  17  19
ENDBRANCH   4  17
TORSDOF 8
ENDMDL
MODEL 9
REMARK VINA RESULT:      -6.9      5.493      7.977
REMARK  Name = 
REMARK  8 active torsions:
REMARK  status: ('A' for Active; 'I' for Inactive)
REMARK    1  A    between atoms: C_2  and  O_3
REMARK    2  A    between atoms: C_2  and  C_4
REMARK    3  A    between atoms: C_4  and  N_5
REMARK    4  A    between atoms: N_5  and  S_6
REMARK    5  A    between atoms: S_6  and  C_9
REMARK    6  A    between atoms: C_12  and  N_13
REMARK    7  A    between atoms: N_13  and  C_14
REMARK    8  A    between atoms: C_14  and  C_15
REMARK                            x       y       z     vdW  Elec       q    Type
REMARK                         _______ _______ _______ _____ _____    ______ ____
ROOT
ATOM      1  C   UNL     1       5.835   5.427  17.970  0.00  0.00    +0.000 A 
ATOM      2  C   UNL     1       6.850   5.256  18.909  0.00  0.00    +0.000 A 
ATOM      3  C   UNL     1       7.830   6.248  19.048  0.00  0.00    +0.000 A 
ATOM      4  C   UNL     1       7.840   7.397  18.241  0.00  0.00    +0.000 A 
ATOM      5  C   UNL     1       6.810   7.539  17.301  0.00  0.00    +0.000 A 
ATOM      6  C   UNL     1       5.822   6.556  17.149  0.00  0.00    +0.000 A 
ENDROOT
BRANCH   1   7
ATOM      7  S   UNL     1       4.547   4.211  17.806  0.00  0.00    +0.000 S 
ATOM      8  O   UNL     1       4.820   3.393  16.646  0.00  0.00    +0.000 OA
ATOM      9  O   UNL     1       3.291   4.900  17.990  0.00  0.00    +0.000 OA
BRANCH   7  10
ATOM     10  N   UNL     1       4.780   3.238  19.196  0.00  0.00    +0.000 NA
ATOM     11  H   UNL     1       5.784   3.188  19.395  0.00  0.00    +0.000 HD
BRANCH  10  12
ATOM     12  C   UNL     1       4.197   1.863  19.068  0.00  0.00    +0.000 C 
BRANCH  12  14
ATOM     13  O   UNL     1       1.939   2.166  19.899  0.00  0.00    +0.000 OA
ATOM     14  C   UNL     1       2.690   1.970  18.955  0.00  0.00    +0.000 C 
BRANCH  14  15
ATOM     15  O   UNL     1       2.245   1.798  17.682  0.00  0.00    +0.000 OA
ATOM     16  H   UNL     1       1.264   1.865  17.667  0.00  0.00    +0.000 HD
ENDBRANCH  14  15
ENDBRANCH  12  14
ENDBRANCH  10  12
ENDBRANCH   7  10
ENDBRANCH   1   7
BRANCH   4  17
ATOM     17  N   UNL     1       8.781   8.398  18.506  0.00  0.00    +0.000 N 
ATOM     18  H   UNL     1       9.702   8.178  18.132  0.00  0.00    +0.000 HD
BRANCH  17  19
ATOM     19  C   UNL     1       8.440   9.798  18.268  0.00  0.00    +0.000 C 
BRANCH  19  20
ATOM     20  C   UNL     1       9.504  10.696  18.865  0.00  0.00    +0.000 A 
ATOM     21  C   UNL     1      10.509  11.260  18.066  0.00  0.00    +0.000 A 
ATOM     22  C   UNL     1      11.466  12.113  18.627  0.00  0.00    +0.000 A 
ATOM     23  C   UNL     1      11.426  12.414  19.986  0.00  0.00    +0.000 A 
ATOM     24  C   UNL     1      10.433  11.863  20.790  0.00  0.00    +0.000 A 
ATOM     25  C   UNL     1       9.478  11.010  20.234  0.00  0.00    +0.000 A 
ENDBRANCH  19  20
ENDBRANCH  17  19
ENDBRANCH   4  17
TORSDOF 8
ENDMDL
