MODEL 1
REMARK VINA RESULT:      -8.6      0.000      0.000
REMARK  Name = 
REMARK  3 active torsions:
REMARK  status: ('A' for Active; 'I' for Inactive)
REMARK    1  A    between atoms: C_2  and  O_3
REMARK    2  A    between atoms: C_2  and  C_4
REMARK    3  A    between atoms: C_13  and  C_14
REMARK                            x       y       z     vdW  Elec       q    Type
REMARK                         _______ _______ _______ _____ _____    ______ ____
ROOT
ATOM      1  C   UNL     1       5.959   3.663  13.141  0.00  0.00    +0.000 A 
ATOM      2  C   UNL     1       7.128   4.456  13.247  0.00  0.00    +0.000 A 
ATOM      3  C   UNL     1       7.439   5.136  14.432  0.00  0.00    +0.000 A 
ATOM      4  C   UNL     1       6.568   4.993  15.497  0.00  0.00    +0.000 A 
ATOM      5  C   UNL     1       5.423   4.206  15.393  0.00  0.00    +0.000 A 
ATOM      6  C   UNL     1       5.092   3.527  14.232  0.00  0.00    +0.000 A 
ATOM      7  C   UNL     1       4.693   4.193  16.663  0.00  0.00    +0.000 C 
ATOM      8  O   UNL     1       3.645   3.614  16.852  0.00  0.00    +0.000 OA
ATOM      9  C   UNL     1       5.501   5.024  17.593  0.00  0.00    +0.000 C 
ATOM     10  C   UNL     1       5.287   5.265  18.893  0.00  0.00    +0.000 C 
ATOM     11  C   UNL     1       6.678   5.555  16.852  0.00  0.00    +0.000 C 
ATOM     12  O   UNL     1       7.556   6.282  17.262  0.00  0.00    +0.000 OA
ENDROOT
BRANCH  10  13
ATOM     13  C   UNL     1       4.166   4.695  19.640  0.00  0.00    +0.000 A 
ATOM     14  C   UNL     1       4.210   3.352  20.046  0.00  0.00    +0.000 A 
ATOM     15  C   UNL     1       3.119   2.778  20.703  0.00  0.00    +0.000 A 
ATOM     16  C   UNL     1       1.989   3.548  20.955  0.00  0.00    +0.000 A 
ATOM     17  F   UNL     1       0.940   2.993  21.578  0.00  0.00    +0.000 F 
ATOM     18  C   UNL     1       1.947   4.882  20.563  0.00  0.00    +0.000 A 
ATOM     19  F   UNL     1       0.856   5.620  20.810  0.00  0.00    +0.000 F 
ATOM     20  C   UNL     1       3.029   5.463  19.908  0.00  0.00    +0.000 A 
ENDBRANCH  10  13
BRANCH   1  22
ATOM     21  O   UNL     1       4.681   3.007  11.256  0.00  0.00    +0.000 OA
ATOM     22  C   UNL     1       5.728   2.927  11.874  0.00  0.00    +0.000 C 
BRANCH  22  23
ATOM     23  O   UNL     1       6.759   2.148  11.491  0.00  0.00    +0.000 OA
ATOM     24  H   UNL     1       7.490   2.050  12.127  0.00  0.00    +0.000 HD
ENDBRANCH  22  23
ENDBRANCH   1  22
TORSDOF 3
ENDMDL
MODEL 2
REMARK VINA RESULT:      -8.5      4.922      8.264
REMARK  Name = 
REMARK  3 active torsions:
REMARK  status: ('A' for Active; 'I' for Inactive)
REMARK    1  A    between atoms: C_2  and  O_3
REMARK    2  A    between atoms: C_2  and  C_4
REMARK    3  A    between atoms: C_13  and  C_14
REMARK                            x       y       z     vdW  Elec       q    Type
REMARK                         _______ _______ _______ _____ _____    ______ ____
ROOT
ATOM      1  C   UNL     1       0.183   9.874  21.849  0.00  0.00    +0.000 A 
ATOM      2  C   UNL     1       0.235  10.845  20.820  0.00  0.00    +0.000 A 
ATOM      3  C   UNL     1       0.845  10.566  19.589  0.00  0.00    +0.000 A 
ATOM      4  C   UNL     1       1.381   9.303  19.415  0.00  0.00    +0.000 A 
ATOM      5  C   UNL     1       1.321   8.347  20.427  0.00  0.00    +0.000 A 
ATOM      6  C   UNL     1       0.727   8.600  21.652  0.00  0.00    +0.000 A 
ATOM      7  C   UNL     1       1.926   7.090  19.982  0.00  0.00    +0.000 C 
ATOM      8  O   UNL     1       2.039   6.095  20.666  0.00  0.00    +0.000 OA
ATOM      9  C   UNL     1       2.351   7.331  18.578  0.00  0.00    +0.000 C 
ATOM     10  C   UNL     1       2.897   6.465  17.714  0.00  0.00    +0.000 C 
ATOM     11  C   UNL     1       2.031   8.740  18.222  0.00  0.00    +0.000 C 
ATOM     12  O   UNL     1       2.238   9.314  17.175  0.00  0.00    +0.000 OA
ENDROOT
BRANCH  10  13
ATOM     13  C   UNL     1       3.156   5.062  18.039  0.00  0.00    +0.000 A 
ATOM     14  C   UNL     1       4.422   4.678  18.506  0.00  0.00    +0.000 A 
ATOM     15  C   UNL     1       4.701   3.332  18.758  0.00  0.00    +0.000 A 
ATOM     16  C   UNL     1       3.715   2.376  18.544  0.00  0.00    +0.000 A 
ATOM     17  F   UNL     1       3.988   1.085  18.778  0.00  0.00    +0.000 F 
ATOM     18  C   UNL     1       2.456   2.755  18.091  0.00  0.00    +0.000 A 
ATOM     19  F   UNL     1       1.507   1.830  17.889  0.00  0.00    +0.000 F 
ATOM     20  C   UNL     1       2.168   4.093  17.838  0.00  0.00    +0.000 A 
ENDBRANCH  10  13
BRANCH   1  22
ATOM     21  O   UNL     1      -1.404  11.075  23.138  0.00  0.00    +0.000 OA
ATOM     22  C   UNL     1      -0.531  10.225  23.102  0.00  0.00    +0.000 C 
BRANCH  22  23
ATOM     23  O   UNL     1      -0.109   9.548  24.188  0.00  0.00    +0.000 OA
ATOM     24  H   UNL     1      -0.754   9.437  24.910  0.00  0.00    +0.000 HD
ENDBRANCH  22  23
ENDBRANCH   1  22
TORSDOF 3
ENDMDL
MODEL 3
REMARK VINA RESULT:      -8.3      4.951      8.291
REMARK  Name = 
REMARK  3 active torsions:
REMARK  status: ('A' for Active; 'I' for Inactive)
REMARK    1  A    between atoms: C_2  and  O_3
REMARK    2  A    between atoms: C_2  and  C_4
REMARK    3  A    between atoms: C_13  and  C_14
REMARK                            x       y       z     vdW  Elec       q    Type
REMARK                         _______ _______ _______ _____ _____    ______ ____
ROOT
ATOM      1  C   UNL     1       0.195   9.832  21.895  0.00  0.00    +0.000 A 
ATOM      2  C   UNL     1       0.297  10.841  20.907  0.00  0.00    +0.000 A 
ATOM      3  C   UNL     1       0.908  10.588  19.671  0.00  0.00    +0.000 A 
ATOM      4  C   UNL     1       1.395   9.312  19.450  0.00  0.00    +0.000 A 
ATOM      5  C   UNL     1       1.286   8.319  20.420  0.00  0.00    +0.000 A 
ATOM      6  C   UNL     1       0.689   8.545  21.650  0.00  0.00    +0.000 A 
ATOM      7  C   UNL     1       1.844   7.057  19.928  0.00  0.00    +0.000 C 
ATOM      8  O   UNL     1       1.911   6.032  20.572  0.00  0.00    +0.000 OA
ATOM      9  C   UNL     1       2.293   7.339  18.539  0.00  0.00    +0.000 C 
ATOM     10  C   UNL     1       2.813   6.488  17.645  0.00  0.00    +0.000 C 
ATOM     11  C   UNL     1       2.034   8.773  18.239  0.00  0.00    +0.000 C 
ATOM     12  O   UNL     1       2.275   9.381  17.220  0.00  0.00    +0.000 OA
ENDROOT
BRANCH  10  13
ATOM     13  C   UNL     1       3.012   5.064  17.914  0.00  0.00    +0.000 A 
ATOM     14  C   UNL     1       2.041   4.135  17.507  0.00  0.00    +0.000 A 
ATOM     15  C   UNL     1       2.189   2.780  17.816  0.00  0.00    +0.000 A 
ATOM     16  C   UNL     1       3.306   2.358  18.527  0.00  0.00    +0.000 A 
ATOM     17  F   UNL     1       3.440   1.059  18.830  0.00  0.00    +0.000 F 
ATOM     18  C   UNL     1       4.274   3.274  18.923  0.00  0.00    +0.000 A 
ATOM     19  F   UNL     1       5.350   2.861  19.608  0.00  0.00    +0.000 F 
ATOM     20  C   UNL     1       4.136   4.626  18.620  0.00  0.00    +0.000 A 
ENDBRANCH  10  13
BRANCH   1  22
ATOM     21  O   UNL     1      -1.425  10.972  23.197  0.00  0.00    +0.000 OA
ATOM     22  C   UNL     1      -0.518  10.159  23.155  0.00  0.00    +0.000 C 
BRANCH  22  23
ATOM     23  O   UNL     1      -0.054   9.506  24.238  0.00  0.00    +0.000 OA
ATOM     24  H   UNL     1      -0.486   8.660  24.455  0.00  0.00    +0.000 HD
ENDBRANCH  22  23
ENDBRANCH   1  22
TORSDOF 3
ENDMDL
MODEL 4
REMARK VINA RESULT:      -8.3      0.731      1.436
REMARK  Name = 
REMARK  3 active torsions:
REMARK  status: ('A' for Active; 'I' for Inactive)
REMARK    1  A    between atoms: C_2  and  O_3
REMARK    2  A    between atoms: C_2  and  C_4
REMARK    3  A    between atoms: C_13  and  C_14
REMARK                            x       y       z     vdW  Elec       q    Type
REMARK                         _______ _______ _______ _____ _____    ______ ____
ROOT
ATOM      1  C   UNL     1       6.078   3.517  12.907  0.00  0.00    +0.000 A 
ATOM      2  C   UNL     1       7.198   4.383  12.925  0.00  0.00    +0.000 A 
ATOM      3  C   UNL     1       7.467   5.199  14.032  0.00  0.00    +0.000 A 
ATOM      4  C   UNL     1       6.603   5.117  15.109  0.00  0.00    +0.000 A 
ATOM      5  C   UNL     1       5.506   4.259  15.092  0.00  0.00    +0.000 A 
ATOM      6  C   UNL     1       5.218   3.444  14.010  0.00  0.00    +0.000 A 
ATOM      7  C   UNL     1       4.775   4.335  16.359  0.00  0.00    +0.000 C 
ATOM      8  O   UNL     1       3.762   3.719  16.612  0.00  0.00    +0.000 OA
ATOM      9  C   UNL     1       5.532   5.304  17.195  0.00  0.00    +0.000 C 
ATOM     10  C   UNL     1       5.302   5.666  18.464  0.00  0.00    +0.000 C 
ATOM     11  C   UNL     1       6.677   5.822  16.398  0.00  0.00    +0.000 C 
ATOM     12  O   UNL     1       7.511   6.638  16.727  0.00  0.00    +0.000 OA
ENDROOT
BRANCH  10  13
ATOM     13  C   UNL     1       4.214   5.112  19.271  0.00  0.00    +0.000 A 
ATOM     14  C   UNL     1       3.072   5.887  19.526  0.00  0.00    +0.000 A 
ATOM     15  C   UNL     1       2.056   5.394  20.350  0.00  0.00    +0.000 A 
ATOM     16  C   UNL     1       2.184   4.130  20.912  0.00  0.00    +0.000 A 
ATOM     17  F   UNL     1       1.212   3.663  21.709  0.00  0.00    +0.000 F 
ATOM     18  C   UNL     1       3.310   3.356  20.653  0.00  0.00    +0.000 A 
ATOM     19  F   UNL     1       3.427   2.136  21.197  0.00  0.00    +0.000 F 
ATOM     20  C   UNL     1       4.327   3.837  19.834  0.00  0.00    +0.000 A 
ENDBRANCH  10  13
BRANCH   1  22
ATOM     21  O   UNL     1       4.820   2.533  11.155  0.00  0.00    +0.000 OA
ATOM     22  C   UNL     1       5.893   2.640  11.724  0.00  0.00    +0.000 C 
BRANCH  22  23
ATOM     23  O   UNL     1       6.997   1.959  11.362  0.00  0.00    +0.000 OA
ATOM     24  H   UNL     1       7.259   1.217  11.936  0.00  0.00    +0.000 HD
ENDBRANCH  22  23
ENDBRANCH   1  22
TORSDOF 3
ENDMDL
MODEL 5
REMARK VINA RESULT:      -7.9      4.571      7.784
REMARK  Name = 
REMARK  3 active torsions:
REMARK  status: ('A' for Active; 'I' for Inactive)
REMARK    1  A    between atoms: C_2  and  O_3
REMARK    2  A    between atoms: C_2  and  C_4
REMARK    3  A    between atoms: C_13  and  C_14
REMARK                            x       y       z     vdW  Elec       q    Type
REMARK                         _______ _______ _______ _____ _____    ______ ____
ROOT
ATOM      1  C   UNL     1       1.177   9.568  19.362  0.00  0.00    +0.000 A 
ATOM      2  C   UNL     1       0.853   8.845  20.536  0.00  0.00    +0.000 A 
ATOM      3  C   UNL     1       1.353   7.555  20.755  0.00  0.00    +0.000 A 
ATOM      4  C   UNL     1       2.183   7.020  19.787  0.00  0.00    +0.000 A 
ATOM      5  C   UNL     1       2.508   7.736  18.637  0.00  0.00    +0.000 A 
ATOM      6  C   UNL     1       2.024   9.011  18.396  0.00  0.00    +0.000 A 
ATOM      7  C   UNL     1       3.425   6.965  17.794  0.00  0.00    +0.000 C 
ATOM      8  O   UNL     1       3.849   7.330  16.719  0.00  0.00    +0.000 OA
ATOM      9  C   UNL     1       3.675   5.701  18.535  0.00  0.00    +0.000 C 
ATOM     10  C   UNL     1       4.498   4.696  18.210  0.00  0.00    +0.000 C 
ATOM     11  C   UNL     1       2.871   5.719  19.788  0.00  0.00    +0.000 C 
ATOM     12  O   UNL     1       2.797   4.864  20.643  0.00  0.00    +0.000 OA
ENDROOT
BRANCH  10  13
ATOM     13  C   UNL     1       5.338   4.701  17.012  0.00  0.00    +0.000 A 
ATOM     14  C   UNL     1       6.653   5.187  17.085  0.00  0.00    +0.000 A 
ATOM     15  C   UNL     1       7.442   5.258  15.934  0.00  0.00    +0.000 A 
ATOM     16  C   UNL     1       6.916   4.842  14.716  0.00  0.00    +0.000 A 
ATOM     17  F   UNL     1       7.672   4.920  13.612  0.00  0.00    +0.000 F 
ATOM     18  C   UNL     1       5.617   4.352  14.643  0.00  0.00    +0.000 A 
ATOM     19  F   UNL     1       5.115   3.951  13.467  0.00  0.00    +0.000 F 
ATOM     20  C   UNL     1       4.823   4.277  15.784  0.00  0.00    +0.000 A 
ENDBRANCH  10  13
BRANCH   1  22
ATOM     21  O   UNL     1       0.887  11.815  20.058  0.00  0.00    +0.000 OA
ATOM     22  C   UNL     1       0.657  10.952  19.229  0.00  0.00    +0.000 C 
BRANCH  22  23
ATOM     23  O   UNL     1      -0.107  11.153  18.138  0.00  0.00    +0.000 OA
ATOM     24  H   UNL     1       0.351  11.463  17.336  0.00  0.00    +0.000 HD
ENDBRANCH  22  23
ENDBRANCH   1  22
TORSDOF 3
ENDMDL
MODEL 6
REMARK VINA RESULT:      -7.9      4.051      7.746
REMARK  Name = 
REMARK  3 active torsions:
REMARK  status: ('A' for Active; 'I' for Inactive)
REMARK    1  A    between atoms: C_2  and  O_3
REMARK    2  A    between atoms: C_2  and  C_4
REMARK    3  A    between atoms: C_13  and  C_14
REMARK                            x       y       z     vdW  Elec       q    Type
REMARK                         _______ _______ _______ _____ _____    ______ ____
ROOT
ATOM      1  C   UNL     1       1.825   7.174  20.164  0.00  0.00    +0.000 A 
ATOM      2  C   UNL     1       1.452   5.999  20.862  0.00  0.00    +0.000 A 
ATOM      3  C   UNL     1       1.884   4.735  20.438  0.00  0.00    +0.000 A 
ATOM      4  C   UNL     1       2.696   4.681  19.319  0.00  0.00    +0.000 A 
ATOM      5  C   UNL     1       3.067   5.838  18.639  0.00  0.00    +0.000 A 
ATOM      6  C   UNL     1       2.652   7.098  19.036  0.00  0.00    +0.000 A 
ATOM      7  C   UNL     1       3.953   5.513  17.519  0.00  0.00    +0.000 C 
ATOM      8  O   UNL     1       4.405   6.321  16.736  0.00  0.00    +0.000 OA
ATOM      9  C   UNL     1       4.131   4.038  17.571  0.00  0.00    +0.000 C 
ATOM     10  C   UNL     1       4.906   3.266  16.797  0.00  0.00    +0.000 C 
ATOM     11  C   UNL     1       3.317   3.502  18.696  0.00  0.00    +0.000 C 
ATOM     12  O   UNL     1       3.191   2.350  19.046  0.00  0.00    +0.000 OA
ENDROOT
BRANCH  10  13
ATOM     13  C   UNL     1       5.756   3.796  15.731  0.00  0.00    +0.000 A 
ATOM     14  C   UNL     1       6.853   4.610  16.054  0.00  0.00    +0.000 A 
ATOM     15  C   UNL     1       7.633   5.174  15.041  0.00  0.00    +0.000 A 
ATOM     16  C   UNL     1       7.317   4.923  13.712  0.00  0.00    +0.000 A 
ATOM     17  F   UNL     1       8.062   5.473  12.743  0.00  0.00    +0.000 F 
ATOM     18  C   UNL     1       6.237   4.109  13.389  0.00  0.00    +0.000 A 
ATOM     19  F   UNL     1       5.936   3.868  12.105  0.00  0.00    +0.000 F 
ATOM     20  C   UNL     1       5.453   3.541  14.390  0.00  0.00    +0.000 A 
ENDBRANCH  10  13
BRANCH   1  22
ATOM     21  O   UNL     1       0.797   9.306  20.024  0.00  0.00    +0.000 OA
ATOM     22  C   UNL     1       1.377   8.480  20.708  0.00  0.00    +0.000 C 
BRANCH  22  23
ATOM     23  O   UNL     1       1.694   8.679  22.002  0.00  0.00    +0.000 OA
ATOM     24  H   UNL     1       1.269   9.436  22.444  0.00  0.00    +0.000 HD
ENDBRANCH  22  23
ENDBRANCH   1  22
TORSDOF 3
ENDMDL
MODEL 7
REMARK VINA RESULT:      -7.8      4.246      7.803
REMARK  Name = 
REMARK  3 active torsions:
REMARK  status: ('A' for Active; 'I' for Inactive)
REMARK    1  A    between atoms: C_2  and  O_3
REMARK    2  A    between atoms: C_2  and  C_4
REMARK    3  A    between atoms: C_13  and  C_14
REMARK                            x       y       z     vdW  Elec       q    Type
REMARK                         _______ _______ _______ _____ _____    ______ ____
ROOT
ATOM      1  C   UNL     1       1.369   8.468  20.176  0.00  0.00    +0.000 A 
ATOM      2  C   UNL     1       1.032   7.496  21.150  0.00  0.00    +0.000 A 
ATOM      3  C   UNL     1       1.502   6.179  21.054  0.00  0.00    +0.000 A 
ATOM      4  C   UNL     1       2.315   5.869  19.980  0.00  0.00    +0.000 A 
ATOM      5  C   UNL     1       2.652   6.829  19.027  0.00  0.00    +0.000 A 
ATOM      6  C   UNL     1       2.198   8.135  19.098  0.00  0.00    +0.000 A 
ATOM      7  C   UNL     1       3.547   6.258  18.018  0.00  0.00    +0.000 C 
ATOM      8  O   UNL     1       3.975   6.856  17.055  0.00  0.00    +0.000 OA
ATOM      9  C   UNL     1       3.770   4.850  18.438  0.00  0.00    +0.000 C 
ATOM     10  C   UNL     1       4.567   3.931  17.878  0.00  0.00    +0.000 C 
ATOM     11  C   UNL     1       2.972   4.590  19.668  0.00  0.00    +0.000 C 
ATOM     12  O   UNL     1       2.880   3.560  20.298  0.00  0.00    +0.000 OA
ENDROOT
BRANCH  10  13
ATOM     13  C   UNL     1       5.401   4.200  16.706  0.00  0.00    +0.000 A 
ATOM     14  C   UNL     1       6.662   4.794  16.871  0.00  0.00    +0.000 A 
ATOM     15  C   UNL     1       7.440   5.115  15.755  0.00  0.00    +0.000 A 
ATOM     16  C   UNL     1       6.957   4.840  14.481  0.00  0.00    +0.000 A 
ATOM     17  F   UNL     1       7.702   5.158  13.413  0.00  0.00    +0.000 F 
ATOM     18  C   UNL     1       5.713   4.242  14.316  0.00  0.00    +0.000 A 
ATOM     19  F   UNL     1       5.252   3.977  13.086  0.00  0.00    +0.000 F 
ATOM     20  C   UNL     1       4.930   3.918  15.421  0.00  0.00    +0.000 A 
ENDBRANCH  10  13
BRANCH   1  22
ATOM     21  O   UNL     1       1.063  10.464  21.418  0.00  0.00    +0.000 OA
ATOM     22  C   UNL     1       0.882   9.855  20.377  0.00  0.00    +0.000 C 
BRANCH  22  23
ATOM     23  O   UNL     1       0.202  10.361  19.330  0.00  0.00    +0.000 OA
ATOM     24  H   UNL     1      -0.486  11.019  19.534  0.00  0.00    +0.000 HD
ENDBRANCH  22  23
ENDBRANCH   1  22
TORSDOF 3
ENDMDL
MODEL 8
REMARK VINA RESULT:      -7.6      3.817      7.398
REMARK  Name = 
REMARK  3 active torsions:
REMARK  status: ('A' for Active; 'I' for Inactive)
REMARK    1  A    between atoms: C_2  and  O_3
REMARK    2  A    between atoms: C_2  and  C_4
REMARK    3  A    between atoms: C_13  and  C_14
REMARK                            x       y       z     vdW  Elec       q    Type
REMARK                         _______ _______ _______ _____ _____    ______ ____
ROOT
ATOM      1  C   UNL     1       2.571   3.948  20.401  0.00  0.00    +0.000 A 
ATOM      2  C   UNL     1       2.283   5.312  20.649  0.00  0.00    +0.000 A 
ATOM      3  C   UNL     1       2.727   6.317  19.779  0.00  0.00    +0.000 A 
ATOM      4  C   UNL     1       3.447   5.924  18.665  0.00  0.00    +0.000 A 
ATOM      5  C   UNL     1       3.722   4.580  18.419  0.00  0.00    +0.000 A 
ATOM      6  C   UNL     1       3.296   3.570  19.265  0.00  0.00    +0.000 A 
ATOM      7  C   UNL     1       4.463   4.429  17.165  0.00  0.00    +0.000 C 
ATOM      8  O   UNL     1       4.861   3.375  16.718  0.00  0.00    +0.000 OA
ATOM      9  C   UNL     1       4.607   5.806  16.622  0.00  0.00    +0.000 C 
ATOM     10  C   UNL     1       5.153   6.189  15.461  0.00  0.00    +0.000 C 
ATOM     11  C   UNL     1       3.987   6.760  17.582  0.00  0.00    +0.000 C 
ATOM     12  O   UNL     1       3.918   7.967  17.499  0.00  0.00    +0.000 OA
ENDROOT
BRANCH  10  13
ATOM     13  C   UNL     1       5.708   5.249  14.487  0.00  0.00    +0.000 A 
ATOM     14  C   UNL     1       7.099   5.153  14.326  0.00  0.00    +0.000 A 
ATOM     15  C   UNL     1       7.639   4.307  13.353  0.00  0.00    +0.000 A 
ATOM     16  C   UNL     1       6.788   3.560  12.547  0.00  0.00    +0.000 A 
ATOM     17  F   UNL     1       7.308   2.756  11.609  0.00  0.00    +0.000 F 
ATOM     18  C   UNL     1       5.410   3.646  12.711  0.00  0.00    +0.000 A 
ATOM     19  F   UNL     1       4.593   2.922  11.932  0.00  0.00    +0.000 F 
ATOM     20  C   UNL     1       4.862   4.485  13.677  0.00  0.00    +0.000 A 
ENDBRANCH  10  13
BRANCH   1  22
ATOM     21  O   UNL     1       2.707   2.363  22.158  0.00  0.00    +0.000 OA
ATOM     22  C   UNL     1       2.016   2.937  21.335  0.00  0.00    +0.000 C 
BRANCH  22  23
ATOM     23  O   UNL     1       0.701   2.695  21.171  0.00  0.00    +0.000 OA
ATOM     24  H   UNL     1       0.299   2.043  21.774  0.00  0.00    +0.000 HD
ENDBRANCH  22  23
ENDBRANCH   1  22
TORSDOF 3
ENDMDL
MODEL 9
REMARK VINA RESULT:      -7.4      4.842      8.090
REMARK  Name = 
REMARK  3 active torsions:
REMARK  status: ('A' for Active; 'I' for Inactive)
REMARK    1  A    between atoms: C_2  and  O_3
REMARK    2  A    between atoms: C_2  and  C_4
REMARK    3  A    between atoms: C_13  and  C_14
REMARK                            x       y       z     vdW  Elec       q    Type
REMARK                         _______ _______ _______ _____ _____    ______ ____
ROOT
ATOM      1  C   UNL     1       0.486  10.107  19.714  0.00  0.00    +0.000 A 
ATOM      2  C   UNL     1       0.089   9.419  20.886  0.00  0.00    +0.000 A 
ATOM      3  C   UNL     1       0.571   8.134  21.171  0.00  0.00    +0.000 A 
ATOM      4  C   UNL     1       1.456   7.570  20.270  0.00  0.00    +0.000 A 
ATOM      5  C   UNL     1       1.851   8.253  19.122  0.00  0.00    +0.000 A 
ATOM      6  C   UNL     1       1.387   9.522  18.817  0.00  0.00    +0.000 A 
ATOM      7  C   UNL     1       2.814   7.457  18.358  0.00  0.00    +0.000 C 
ATOM      8  O   UNL     1       3.303   7.791  17.299  0.00  0.00    +0.000 OA
ATOM      9  C   UNL     1       3.016   6.214  19.148  0.00  0.00    +0.000 C 
ATOM     10  C   UNL     1       3.854   5.199  18.901  0.00  0.00    +0.000 C 
ATOM     11  C   UNL     1       2.139   6.270  20.349  0.00  0.00    +0.000 C 
ATOM     12  O   UNL     1       2.011   5.439  21.222  0.00  0.00    +0.000 OA
ENDROOT
BRANCH  10  13
ATOM     13  C   UNL     1       4.763   5.169  17.755  0.00  0.00    +0.000 A 
ATOM     14  C   UNL     1       4.512   4.292  16.689  0.00  0.00    +0.000 A 
ATOM     15  C   UNL     1       5.407   4.207  15.620  0.00  0.00    +0.000 A 
ATOM     16  C   UNL     1       6.549   5.000  15.619  0.00  0.00    +0.000 A 
ATOM     17  F   UNL     1       7.412   4.910  14.597  0.00  0.00    +0.000 F 
ATOM     18  C   UNL     1       6.796   5.877  16.669  0.00  0.00    +0.000 A 
ATOM     19  F   UNL     1       7.897   6.641  16.663  0.00  0.00    +0.000 F 
ATOM     20  C   UNL     1       5.909   5.969  17.739  0.00  0.00    +0.000 A 
ENDBRANCH  10  13
BRANCH   1  22
ATOM     21  O   UNL     1      -0.732  12.046  20.328  0.00  0.00    +0.000 OA
ATOM     22  C   UNL     1      -0.021  11.487  19.511  0.00  0.00    +0.000 C 
BRANCH  22  23
ATOM     23  O   UNL     1       0.348  12.045  18.341  0.00  0.00    +0.000 OA
ATOM     24  H   UNL     1      -0.232  11.877  17.576  0.00  0.00    +0.000 HD
ENDBRANCH  22  23
ENDBRANCH   1  22
TORSDOF 3
ENDMDL
