MODEL 1
REMARK VINA RESULT:      -7.2      0.000      0.000
REMARK  Name = 
REMARK  9 active torsions:
REMARK  status: ('A' for Active; 'I' for Inactive)
REMARK    1  A    between atoms: C_1  and  C_2
REMARK    2  A    between atoms: C_6  and  C_7
REMARK    3  A    between atoms: C_8  and  N_9
REMARK    4  A    between atoms: C_10  and  C_12
REMARK    5  A    between atoms: C_12  and  N_13
REMARK    6  A    between atoms: N_13  and  C_14
REMARK    7  A    between atoms: N_13  and  C_15
REMARK    8  A    between atoms: N_18  and  C_19
REMARK    9  A    between atoms: C_24  and  O_25
REMARK                            x       y       z     vdW  Elec       q    Type
REMARK                         _______ _______ _______ _____ _____    ______ ____
ROOT
ATOM      1  C   UNL     1       2.940   4.073  19.572  0.00  0.00    +0.000 C 
ATOM      2  C   UNL     1       4.442   4.430  19.777  0.00  0.00    +0.000 C 
ATOM      3  C   UNL     1       5.144   4.699  18.424  0.00  0.00    +0.000 C 
ATOM      4  N   UNL     1       5.099   3.525  17.540  0.00  0.00    +0.000 NA
ATOM      5  C   UNL     1       3.712   3.114  17.292  0.00  0.00    +0.000 C 
ATOM      6  C   UNL     1       2.936   2.874  18.577  0.00  0.00    +0.000 C 
ENDROOT
BRANCH   4   7
ATOM      7  C   UNL     1       5.838   3.678  16.250  0.00  0.00    +0.000 C 
ATOM      8  C   UNL     1       4.933   4.014  15.042  0.00  0.00    +0.000 C 
ATOM      9  C   UNL     1       5.706   4.205  13.742  0.00  0.00    +0.000 C 
ATOM     10  C   UNL     1       6.813   5.233  13.903  0.00  0.00    +0.000 C 
ATOM     11  C   UNL     1       7.776   4.805  15.000  0.00  0.00    +0.000 C 
ATOM     12  C   UNL     1       7.059   4.650  16.344  0.00  0.00    +0.000 C 
BRANCH  12  13
ATOM     13  O   UNL     1       8.028   4.198  17.296  0.00  0.00    +0.000 OA
ATOM     14  H   UNL     1       8.893   4.554  17.028  0.00  0.00    +0.000 HD
ENDBRANCH  12  13
ENDBRANCH   4   7
BRANCH   1  16
ATOM     15  N   UNL     1       2.567   6.579  19.669  0.00  0.00    +0.000 N 
ATOM     16  C   UNL     1       2.226   5.385  19.004  0.00  0.00    +0.000 C 
ATOM     17  O   UNL     1       1.477   5.339  18.031  0.00  0.00    +0.000 OA
ATOM     18  H   UNL     1       3.415   6.554  20.216  0.00  0.00    +0.000 HD
BRANCH  15  26
ATOM     19  C   UNL     1       3.494   7.925  17.211  0.00  0.00    +0.000 C 
ATOM     20  C   UNL     1       2.508   8.522  18.180  0.00  0.00    +0.000 A 
ATOM     21  C   UNL     1       2.034   9.816  17.881  0.00  0.00    +0.000 A 
ATOM     22  C   UNL     1       1.132  10.463  18.715  0.00  0.00    +0.000 A 
ATOM     23  C   UNL     1       0.720   9.838  19.881  0.00  0.00    +0.000 A 
ATOM     24  C   UNL     1       1.184   8.553  20.225  0.00  0.00    +0.000 A 
ATOM     25  C   UNL     1       0.850   8.069  21.610  0.00  0.00    +0.000 C 
ATOM     26  C   UNL     1       2.053   7.864  19.348  0.00  0.00    +0.000 A 
ENDBRANCH  15  26
ENDBRANCH   1  16
BRANCH   1  27
ATOM     27  N   UNL     1       2.195   3.708  20.843  0.00  0.00    +0.000 NA
ATOM     28  C   UNL     1       0.801   3.312  20.557  0.00  0.00    +0.000 C 
ATOM     29  C   UNL     1       2.805   2.615  21.611  0.00  0.00    +0.000 C 
ENDBRANCH   1  27
TORSDOF 5
ENDMDL
MODEL 2
REMARK VINA RESULT:      -7.1      2.555      7.248
REMARK  Name = 
REMARK  9 active torsions:
REMARK  status: ('A' for Active; 'I' for Inactive)
REMARK    1  A    between atoms: C_1  and  C_2
REMARK    2  A    between atoms: C_6  and  C_7
REMARK    3  A    between atoms: C_8  and  N_9
REMARK    4  A    between atoms: C_10  and  C_12
REMARK    5  A    between atoms: C_12  and  N_13
REMARK    6  A    between atoms: N_13  and  C_14
REMARK    7  A    between atoms: N_13  and  C_15
REMARK    8  A    between atoms: N_18  and  C_19
REMARK    9  A    between atoms: C_24  and  O_25
REMARK                            x       y       z     vdW  Elec       q    Type
REMARK                         _______ _______ _______ _____ _____    ______ ____
ROOT
ATOM      1  C   UNL     1       6.751   6.412  17.720  0.00  0.00    +0.000 C 
ATOM      2  C   UNL     1       6.614   5.570  19.022  0.00  0.00    +0.000 C 
ATOM      3  C   UNL     1       5.342   4.688  18.987  0.00  0.00    +0.000 C 
ATOM      4  N   UNL     1       4.119   5.496  18.868  0.00  0.00    +0.000 NA
ATOM      5  C   UNL     1       4.162   6.328  17.660  0.00  0.00    +0.000 C 
ATOM      6  C   UNL     1       5.410   7.195  17.594  0.00  0.00    +0.000 C 
ENDROOT
BRANCH   4   7
ATOM      7  C   UNL     1       2.842   4.718  18.922  0.00  0.00    +0.000 C 
ATOM      8  C   UNL     1       2.918   3.338  18.230  0.00  0.00    +0.000 C 
ATOM      9  C   UNL     1       1.620   2.542  18.328  0.00  0.00    +0.000 C 
ATOM     10  C   UNL     1       1.160   2.412  19.769  0.00  0.00    +0.000 C 
ATOM     11  C   UNL     1       0.951   3.787  20.384  0.00  0.00    +0.000 C 
ATOM     12  C   UNL     1       2.240   4.611  20.360  0.00  0.00    +0.000 C 
BRANCH  12  13
ATOM     13  O   UNL     1       1.935   5.899  20.908  0.00  0.00    +0.000 OA
ATOM     14  H   UNL     1       2.549   6.059  21.645  0.00  0.00    +0.000 HD
ENDBRANCH  12  13
ENDBRANCH   4   7
BRANCH   1  16
ATOM     15  N   UNL     1       6.414   5.729  15.301  0.00  0.00    +0.000 N 
ATOM     16  C   UNL     1       7.011   5.380  16.527  0.00  0.00    +0.000 C 
ATOM     17  O   UNL     1       7.721   4.389  16.679  0.00  0.00    +0.000 OA
ATOM     18  H   UNL     1       6.143   6.697  15.200  0.00  0.00    +0.000 HD
BRANCH  15  26
ATOM     19  C   UNL     1       4.482   3.543  14.854  0.00  0.00    +0.000 C 
ATOM     20  C   UNL     1       5.587   3.902  13.896  0.00  0.00    +0.000 A 
ATOM     21  C   UNL     1       5.696   3.112  12.733  0.00  0.00    +0.000 A 
ATOM     22  C   UNL     1       6.686   3.351  11.790  0.00  0.00    +0.000 A 
ATOM     23  C   UNL     1       7.607   4.362  12.018  0.00  0.00    +0.000 A 
ATOM     24  C   UNL     1       7.544   5.162  13.175  0.00  0.00    +0.000 A 
ATOM     25  C   UNL     1       8.716   6.072  13.425  0.00  0.00    +0.000 C 
ATOM     26  C   UNL     1       6.499   4.964  14.107  0.00  0.00    +0.000 A 
ENDBRANCH  15  26
ENDBRANCH   1  16
BRANCH   1  27
ATOM     27  N   UNL     1       7.927   7.373  17.706  0.00  0.00    +0.000 NA
ATOM     28  C   UNL     1       7.502   8.740  17.343  0.00  0.00    +0.000 C 
ATOM     29  C   UNL     1       8.647   7.468  18.982  0.00  0.00    +0.000 C 
ENDBRANCH   1  27
TORSDOF 5
ENDMDL
MODEL 3
REMARK VINA RESULT:      -7.0      0.092      1.680
REMARK  Name = 
REMARK  9 active torsions:
REMARK  status: ('A' for Active; 'I' for Inactive)
REMARK    1  A    between atoms: C_1  and  C_2
REMARK    2  A    between atoms: C_6  and  C_7
REMARK    3  A    between atoms: C_8  and  N_9
REMARK    4  A    between atoms: C_10  and  C_12
REMARK    5  A    between atoms: C_12  and  N_13
REMARK    6  A    between atoms: N_13  and  C_14
REMARK    7  A    between atoms: N_13  and  C_15
REMARK    8  A    between atoms: N_18  and  C_19
REMARK    9  A    between atoms: C_24  and  O_25
REMARK                            x       y       z     vdW  Elec       q    Type
REMARK                         _______ _______ _______ _____ _____    ______ ____
ROOT
ATOM      1  C   UNL     1       2.943   4.053  19.590  0.00  0.00    +0.000 C 
ATOM      2  C   UNL     1       4.449   4.387  19.801  0.00  0.00    +0.000 C 
ATOM      3  C   UNL     1       5.155   4.669  18.452  0.00  0.00    +0.000 C 
ATOM      4  N   UNL     1       5.094   3.509  17.550  0.00  0.00    +0.000 NA
ATOM      5  C   UNL     1       3.703   3.121  17.295  0.00  0.00    +0.000 C 
ATOM      6  C   UNL     1       2.923   2.870  18.577  0.00  0.00    +0.000 C 
ENDROOT
BRANCH   4   7
ATOM      7  C   UNL     1       5.836   3.673  16.262  0.00  0.00    +0.000 C 
ATOM      8  C   UNL     1       4.932   4.016  15.055  0.00  0.00    +0.000 C 
ATOM      9  C   UNL     1       5.707   4.217  13.758  0.00  0.00    +0.000 C 
ATOM     10  C   UNL     1       6.811   5.246  13.929  0.00  0.00    +0.000 C 
ATOM     11  C   UNL     1       7.774   4.813  15.024  0.00  0.00    +0.000 C 
ATOM     12  C   UNL     1       7.054   4.647  16.365  0.00  0.00    +0.000 C 
BRANCH  12  13
ATOM     13  O   UNL     1       8.023   4.190  17.316  0.00  0.00    +0.000 OA
ATOM     14  H   UNL     1       7.854   3.245  17.477  0.00  0.00    +0.000 HD
ENDBRANCH  12  13
ENDBRANCH   4   7
BRANCH   1  16
ATOM     15  N   UNL     1       2.643   6.569  19.692  0.00  0.00    +0.000 N 
ATOM     16  C   UNL     1       2.246   5.384  19.044  0.00  0.00    +0.000 C 
ATOM     17  O   UNL     1       1.462   5.356  18.098  0.00  0.00    +0.000 OA
ATOM     18  H   UNL     1       3.510   6.522  20.208  0.00  0.00    +0.000 HD
BRANCH  15  26
ATOM     19  C   UNL     1       0.666   7.823  21.490  0.00  0.00    +0.000 C 
ATOM     20  C   UNL     1       1.193   8.466  20.234  0.00  0.00    +0.000 A 
ATOM     21  C   UNL     1       0.672   9.735  19.909  0.00  0.00    +0.000 A 
ATOM     22  C   UNL     1       1.080  10.410  18.767  0.00  0.00    +0.000 A 
ATOM     23  C   UNL     1       1.989   9.806  17.912  0.00  0.00    +0.000 A 
ATOM     24  C   UNL     1       2.519   8.531  18.191  0.00  0.00    +0.000 A 
ATOM     25  C   UNL     1       3.317   7.883  17.092  0.00  0.00    +0.000 C 
ATOM     26  C   UNL     1       2.155   7.867  19.385  0.00  0.00    +0.000 A 
ENDBRANCH  15  26
ENDBRANCH   1  16
BRANCH   1  27
ATOM     27  N   UNL     1       2.193   3.678  20.856  0.00  0.00    +0.000 NA
ATOM     28  C   UNL     1       0.804   3.275  20.560  0.00  0.00    +0.000 C 
ATOM     29  C   UNL     1       2.806   2.586  21.623  0.00  0.00    +0.000 C 
ENDBRANCH   1  27
TORSDOF 5
ENDMDL
MODEL 4
REMARK VINA RESULT:      -6.8      2.591      7.127
REMARK  Name = 
REMARK  9 active torsions:
REMARK  status: ('A' for Active; 'I' for Inactive)
REMARK    1  A    between atoms: C_1  and  C_2
REMARK    2  A    between atoms: C_6  and  C_7
REMARK    3  A    between atoms: C_8  and  N_9
REMARK    4  A    between atoms: C_10  and  C_12
REMARK    5  A    between atoms: C_12  and  N_13
REMARK    6  A    between atoms: N_13  and  C_14
REMARK    7  A    between atoms: N_13  and  C_15
REMARK    8  A    between atoms: N_18  and  C_19
REMARK    9  A    between atoms: C_24  and  O_25
REMARK                            x       y       z     vdW  Elec       q    Type
REMARK                         _______ _______ _______ _____ _____    ______ ____
ROOT
ATOM      1  C   UNL     1       6.768   6.358  17.724  0.00  0.00    +0.000 C 
ATOM      2  C   UNL     1       6.611   5.546  19.043  0.00  0.00    +0.000 C 
ATOM      3  C   UNL     1       5.340   4.663  19.010  0.00  0.00    +0.000 C 
ATOM      4  N   UNL     1       4.119   5.468  18.854  0.00  0.00    +0.000 NA
ATOM      5  C   UNL     1       4.180   6.272  17.628  0.00  0.00    +0.000 C 
ATOM      6  C   UNL     1       5.429   7.138  17.560  0.00  0.00    +0.000 C 
ENDROOT
BRANCH   4   7
ATOM      7  C   UNL     1       2.842   4.691  18.907  0.00  0.00    +0.000 C 
ATOM      8  C   UNL     1       2.876   3.370  18.105  0.00  0.00    +0.000 C 
ATOM      9  C   UNL     1       1.579   2.572  18.201  0.00  0.00    +0.000 C 
ATOM     10  C   UNL     1       1.187   2.329  19.648  0.00  0.00    +0.000 C 
ATOM     11  C   UNL     1       1.015   3.652  20.379  0.00  0.00    +0.000 C 
ATOM     12  C   UNL     1       2.307   4.472  20.359  0.00  0.00    +0.000 C 
BRANCH  12  13
ATOM     13  O   UNL     1       2.036   5.713  21.020  0.00  0.00    +0.000 OA
ATOM     14  H   UNL     1       1.078   5.756  21.185  0.00  0.00    +0.000 HD
ENDBRANCH  12  13
ENDBRANCH   4   7
BRANCH   1  16
ATOM     15  N   UNL     1       6.475   5.626  15.313  0.00  0.00    +0.000 N 
ATOM     16  C   UNL     1       7.045   5.299  16.559  0.00  0.00    +0.000 C 
ATOM     17  O   UNL     1       7.745   4.307  16.747  0.00  0.00    +0.000 OA
ATOM     18  H   UNL     1       6.214   6.593  15.187  0.00  0.00    +0.000 HD
BRANCH  15  26
ATOM     19  C   UNL     1       8.656   6.174  13.401  0.00  0.00    +0.000 C 
ATOM     20  C   UNL     1       7.613   5.105  13.208  0.00  0.00    +0.000 A 
ATOM     21  C   UNL     1       7.694   4.352  12.020  0.00  0.00    +0.000 A 
ATOM     22  C   UNL     1       6.775   3.351  11.737  0.00  0.00    +0.000 A 
ATOM     23  C   UNL     1       5.737   3.115  12.626  0.00  0.00    +0.000 A 
ATOM     24  C   UNL     1       5.610   3.858  13.816  0.00  0.00    +0.000 A 
ATOM     25  C   UNL     1       4.332   3.672  14.588  0.00  0.00    +0.000 C 
ATOM     26  C   UNL     1       6.580   4.835  14.138  0.00  0.00    +0.000 A 
ENDBRANCH  15  26
ENDBRANCH   1  16
BRANCH   1  27
ATOM     27  N   UNL     1       7.944   7.318  17.705  0.00  0.00    +0.000 NA
ATOM     28  C   UNL     1       7.522   8.680  17.322  0.00  0.00    +0.000 C 
ATOM     29  C   UNL     1       8.656   7.430  18.985  0.00  0.00    +0.000 C 
ENDBRANCH   1  27
TORSDOF 5
ENDMDL
MODEL 5
REMARK VINA RESULT:      -6.8      4.957      8.528
REMARK  Name = 
REMARK  9 active torsions:
REMARK  status: ('A' for Active; 'I' for Inactive)
REMARK    1  A    between atoms: C_1  and  C_2
REMARK    2  A    between atoms: C_6  and  C_7
REMARK    3  A    between atoms: C_8  and  N_9
REMARK    4  A    between atoms: C_10  and  C_12
REMARK    5  A    between atoms: C_12  and  N_13
REMARK    6  A    between atoms: N_13  and  C_14
REMARK    7  A    between atoms: N_13  and  C_15
REMARK    8  A    between atoms: N_18  and  C_19
REMARK    9  A    between atoms: C_24  and  O_25
REMARK                            x       y       z     vdW  Elec       q    Type
REMARK                         _______ _______ _______ _____ _____    ______ ____
ROOT
ATOM      1  C   UNL     1      -1.126  12.719  20.168  0.00  0.00    +0.000 C 
ATOM      2  C   UNL     1      -0.060  12.376  21.250  0.00  0.00    +0.000 C 
ATOM      3  C   UNL     1       1.046  11.458  20.676  0.00  0.00    +0.000 C 
ATOM      4  N   UNL     1       0.500  10.181  20.191  0.00  0.00    +0.000 NA
ATOM      5  C   UNL     1      -0.520  10.409  19.161  0.00  0.00    +0.000 C 
ATOM      6  C   UNL     1      -1.624  11.344  19.632  0.00  0.00    +0.000 C 
ENDROOT
BRANCH   4   7
ATOM      7  C   UNL     1       1.522   9.202  19.707  0.00  0.00    +0.000 C 
ATOM      8  C   UNL     1       1.412   7.804  20.359  0.00  0.00    +0.000 C 
ATOM      9  C   UNL     1       2.436   6.807  19.827  0.00  0.00    +0.000 C 
ATOM     10  C   UNL     1       2.379   6.714  18.312  0.00  0.00    +0.000 C 
ATOM     11  C   UNL     1       2.637   8.077  17.688  0.00  0.00    +0.000 C 
ATOM     12  C   UNL     1       1.602   9.106  18.149  0.00  0.00    +0.000 C 
BRANCH  12  13
ATOM     13  O   UNL     1       1.955  10.361  17.555  0.00  0.00    +0.000 OA
ATOM     14  H   UNL     1       2.052  11.010  18.274  0.00  0.00    +0.000 HD
ENDBRANCH  12  13
ENDBRANCH   4   7
BRANCH   1  16
ATOM     15  N   UNL     1       0.446  14.620  19.581  0.00  0.00    +0.000 N 
ATOM     16  C   UNL     1      -0.394  13.614  19.065  0.00  0.00    +0.000 C 
ATOM     17  O   UNL     1      -0.531  13.394  17.864  0.00  0.00    +0.000 OA
ATOM     18  H   UNL     1       0.738  14.503  20.541  0.00  0.00    +0.000 HD
BRANCH  15  26
ATOM     19  C   UNL     1      -0.823  17.150  18.743  0.00  0.00    +0.000 C 
ATOM     20  C   UNL     1       0.581  16.748  18.376  0.00  0.00    +0.000 A 
ATOM     21  C   UNL     1       1.301  17.644  17.560  0.00  0.00    +0.000 A 
ATOM     22  C   UNL     1       2.599  17.364  17.154  0.00  0.00    +0.000 A 
ATOM     23  C   UNL     1       3.180  16.163  17.528  0.00  0.00    +0.000 A 
ATOM     24  C   UNL     1       2.488  15.232  18.328  0.00  0.00    +0.000 A 
ATOM     25  C   UNL     1       3.125  13.879  18.484  0.00  0.00    +0.000 C 
ATOM     26  C   UNL     1       1.190  15.541  18.796  0.00  0.00    +0.000 A 
ENDBRANCH  15  26
ENDBRANCH   1  16
BRANCH   1  27
ATOM     27  N   UNL     1      -2.296  13.546  20.669  0.00  0.00    +0.000 NA
ATOM     28  C   UNL     1      -3.584  12.875  20.403  0.00  0.00    +0.000 C 
ATOM     29  C   UNL     1      -2.254  13.848  22.105  0.00  0.00    +0.000 C 
ENDBRANCH   1  27
TORSDOF 5
ENDMDL
MODEL 6
REMARK VINA RESULT:      -6.8      5.034      8.517
REMARK  Name = 
REMARK  9 active torsions:
REMARK  status: ('A' for Active; 'I' for Inactive)
REMARK    1  A    between atoms: C_1  and  C_2
REMARK    2  A    between atoms: C_6  and  C_7
REMARK    3  A    between atoms: C_8  and  N_9
REMARK    4  A    between atoms: C_10  and  C_12
REMARK    5  A    between atoms: C_12  and  N_13
REMARK    6  A    between atoms: N_13  and  C_14
REMARK    7  A    between atoms: N_13  and  C_15
REMARK    8  A    between atoms: N_18  and  C_19
REMARK    9  A    between atoms: C_24  and  O_25
REMARK                            x       y       z     vdW  Elec       q    Type
REMARK                         _______ _______ _______ _____ _____    ______ ____
ROOT
ATOM      1  C   UNL     1      -1.160  12.716  20.224  0.00  0.00    +0.000 C 
ATOM      2  C   UNL     1      -0.046  12.405  21.267  0.00  0.00    +0.000 C 
ATOM      3  C   UNL     1       1.055  11.502  20.660  0.00  0.00    +0.000 C 
ATOM      4  N   UNL     1       0.516  10.210  20.209  0.00  0.00    +0.000 NA
ATOM      5  C   UNL     1      -0.548  10.408  19.218  0.00  0.00    +0.000 C 
ATOM      6  C   UNL     1      -1.651  11.325  19.722  0.00  0.00    +0.000 C 
ENDROOT
BRANCH   4   7
ATOM      7  C   UNL     1       1.537   9.246  19.696  0.00  0.00    +0.000 C 
ATOM      8  C   UNL     1       1.444   7.837  20.327  0.00  0.00    +0.000 C 
ATOM      9  C   UNL     1       2.467   6.855  19.764  0.00  0.00    +0.000 C 
ATOM     10  C   UNL     1       2.391   6.786  18.249  0.00  0.00    +0.000 C 
ATOM     11  C   UNL     1       2.632   8.161  17.644  0.00  0.00    +0.000 C 
ATOM     12  C   UNL     1       1.597   9.176  18.135  0.00  0.00    +0.000 C 
BRANCH  12  13
ATOM     13  O   UNL     1       1.934  10.443  17.558  0.00  0.00    +0.000 OA
ATOM     14  H   UNL     1       1.285  11.094  17.878  0.00  0.00    +0.000 HD
ENDBRANCH  12  13
ENDBRANCH   4   7
BRANCH   1  16
ATOM     15  N   UNL     1       0.230  14.729  19.556  0.00  0.00    +0.000 N 
ATOM     16  C   UNL     1      -0.489  13.613  19.085  0.00  0.00    +0.000 C 
ATOM     17  O   UNL     1      -0.567  13.308  17.897  0.00  0.00    +0.000 OA
ATOM     18  H   UNL     1       0.504  14.700  20.528  0.00  0.00    +0.000 HD
BRANCH  15  26
ATOM     19  C   UNL     1       3.079  14.302  18.911  0.00  0.00    +0.000 C 
ATOM     20  C   UNL     1       2.273  15.481  18.434  0.00  0.00    +0.000 A 
ATOM     21  C   UNL     1       2.954  16.437  17.654  0.00  0.00    +0.000 A 
ATOM     22  C   UNL     1       2.308  17.569  17.174  0.00  0.00    +0.000 A 
ATOM     23  C   UNL     1       0.978  17.778  17.502  0.00  0.00    +0.000 A 
ATOM     24  C   UNL     1       0.265  16.856  18.295  0.00  0.00    +0.000 A 
ATOM     25  C   UNL     1      -1.093  17.291  18.770  0.00  0.00    +0.000 C 
ATOM     26  C   UNL     1       0.901  15.671  18.733  0.00  0.00    +0.000 A 
ENDBRANCH  15  26
ENDBRANCH   1  16
BRANCH   1  27
ATOM     27  N   UNL     1      -2.326  13.526  20.762  0.00  0.00    +0.000 NA
ATOM     28  C   UNL     1      -3.620  12.911  20.405  0.00  0.00    +0.000 C 
ATOM     29  C   UNL     1      -2.319  13.703  22.220  0.00  0.00    +0.000 C 
ENDBRANCH   1  27
TORSDOF 5
ENDMDL
MODEL 7
REMARK VINA RESULT:      -6.8      2.685      7.146
REMARK  Name = 
REMARK  9 active torsions:
REMARK  status: ('A' for Active; 'I' for Inactive)
REMARK    1  A    between atoms: C_1  and  C_2
REMARK    2  A    between atoms: C_6  and  C_7
REMARK    3  A    between atoms: C_8  and  N_9
REMARK    4  A    between atoms: C_10  and  C_12
REMARK    5  A    between atoms: C_12  and  N_13
REMARK    6  A    between atoms: N_13  and  C_14
REMARK    7  A    between atoms: N_13  and  C_15
REMARK    8  A    between atoms: N_18  and  C_19
REMARK    9  A    between atoms: C_24  and  O_25
REMARK                            x       y       z     vdW  Elec       q    Type
REMARK                         _______ _______ _______ _____ _____    ______ ____
ROOT
ATOM      1  C   UNL     1       6.746   6.391  17.683  0.00  0.00    +0.000 C 
ATOM      2  C   UNL     1       6.955   5.593  19.005  0.00  0.00    +0.000 C 
ATOM      3  C   UNL     1       5.881   4.491  19.170  0.00  0.00    +0.000 C 
ATOM      4  N   UNL     1       4.523   5.053  19.218  0.00  0.00    +0.000 NA
ATOM      5  C   UNL     1       4.238   5.827  18.004  0.00  0.00    +0.000 C 
ATOM      6  C   UNL     1       5.277   6.906  17.743  0.00  0.00    +0.000 C 
ENDROOT
BRANCH   4   7
ATOM      7  C   UNL     1       3.436   4.057  19.470  0.00  0.00    +0.000 C 
ATOM      8  C   UNL     1       2.135   4.675  20.031  0.00  0.00    +0.000 C 
ATOM      9  C   UNL     1       1.025   3.651  20.247  0.00  0.00    +0.000 C 
ATOM     10  C   UNL     1       0.756   2.855  18.982  0.00  0.00    +0.000 C 
ATOM     11  C   UNL     1       2.018   2.136  18.531  0.00  0.00    +0.000 C 
ATOM     12  C   UNL     1       3.152   3.124  18.249  0.00  0.00    +0.000 C 
BRANCH  12  13
ATOM     13  O   UNL     1       4.306   2.357  17.884  0.00  0.00    +0.000 OA
ATOM     14  H   UNL     1       4.729   2.053  18.705  0.00  0.00    +0.000 HD
ENDBRANCH  12  13
ENDBRANCH   4   7
BRANCH   1  16
ATOM     15  N   UNL     1       6.416   5.719  15.260  0.00  0.00    +0.000 N 
ATOM     16  C   UNL     1       7.026   5.375  16.481  0.00  0.00    +0.000 C 
ATOM     17  O   UNL     1       7.759   4.399  16.623  0.00  0.00    +0.000 OA
ATOM     18  H   UNL     1       6.123   6.682  15.168  0.00  0.00    +0.000 HD
BRANCH  15  26
ATOM     19  C   UNL     1       4.476   3.552  14.759  0.00  0.00    +0.000 C 
ATOM     20  C   UNL     1       5.598   3.914  13.823  0.00  0.00    +0.000 A 
ATOM     21  C   UNL     1       5.720   3.135  12.654  0.00  0.00    +0.000 A 
ATOM     22  C   UNL     1       6.727   3.376  11.730  0.00  0.00    +0.000 A 
ATOM     23  C   UNL     1       7.652   4.378  11.982  0.00  0.00    +0.000 A 
ATOM     24  C   UNL     1       7.576   5.166  13.147  0.00  0.00    +0.000 A 
ATOM     25  C   UNL     1       8.750   6.064  13.425  0.00  0.00    +0.000 C 
ATOM     26  C   UNL     1       6.515   4.967  14.060  0.00  0.00    +0.000 A 
ENDBRANCH  15  26
ENDBRANCH   1  16
BRANCH   1  27
ATOM     27  N   UNL     1       7.706   7.550  17.483  0.00  0.00    +0.000 NA
ATOM     28  C   UNL     1       6.982   8.804  17.191  0.00  0.00    +0.000 C 
ATOM     29  C   UNL     1       8.585   7.815  18.629  0.00  0.00    +0.000 C 
ENDBRANCH   1  27
TORSDOF 5
ENDMDL
MODEL 8
REMARK VINA RESULT:      -6.6      7.545     12.016
REMARK  Name = 
REMARK  9 active torsions:
REMARK  status: ('A' for Active; 'I' for Inactive)
REMARK    1  A    between atoms: C_1  and  C_2
REMARK    2  A    between atoms: C_6  and  C_7
REMARK    3  A    between atoms: C_8  and  N_9
REMARK    4  A    between atoms: C_10  and  C_12
REMARK    5  A    between atoms: C_12  and  N_13
REMARK    6  A    between atoms: N_13  and  C_14
REMARK    7  A    between atoms: N_13  and  C_15
REMARK    8  A    between atoms: N_18  and  C_19
REMARK    9  A    between atoms: C_24  and  O_25
REMARK                            x       y       z     vdW  Elec       q    Type
REMARK                         _______ _______ _______ _____ _____    ______ ____
ROOT
ATOM      1  C   UNL     1      -0.613  13.255  21.776  0.00  0.00    +0.000 C 
ATOM      2  C   UNL     1      -1.276  12.160  22.663  0.00  0.00    +0.000 C 
ATOM      3  C   UNL     1      -2.806  12.372  22.765  0.00  0.00    +0.000 C 
ATOM      4  N   UNL     1      -3.139  13.671  23.367  0.00  0.00    +0.000 NA
ATOM      5  C   UNL     1      -2.551  14.769  22.591  0.00  0.00    +0.000 C 
ATOM      6  C   UNL     1      -1.050  14.612  22.404  0.00  0.00    +0.000 C 
ENDROOT
BRANCH   4   7
ATOM      7  C   UNL     1      -4.600  13.909  23.584  0.00  0.00    +0.000 C 
ATOM      8  C   UNL     1      -5.317  14.560  22.379  0.00  0.00    +0.000 C 
ATOM      9  C   UNL     1      -6.812  14.761  22.603  0.00  0.00    +0.000 C 
ATOM     10  C   UNL     1      -7.488  13.463  23.010  0.00  0.00    +0.000 C 
ATOM     11  C   UNL     1      -6.861  12.917  24.284  0.00  0.00    +0.000 C 
ATOM     12  C   UNL     1      -5.366  12.647  24.098  0.00  0.00    +0.000 C 
BRANCH  12  13
ATOM     13  O   UNL     1      -4.855  12.188  25.355  0.00  0.00    +0.000 OA
ATOM     14  H   UNL     1      -5.440  12.531  26.053  0.00  0.00    +0.000 HD
ENDBRANCH  12  13
ENDBRANCH   4   7
BRANCH   1  16
ATOM     15  N   UNL     1      -1.744  11.776  20.054  0.00  0.00    +0.000 N 
ATOM     16  C   UNL     1      -1.149  13.031  20.287  0.00  0.00    +0.000 C 
ATOM     17  O   UNL     1      -1.079  13.918  19.439  0.00  0.00    +0.000 OA
ATOM     18  H   UNL     1      -2.042  11.269  20.875  0.00  0.00    +0.000 HD
BRANCH  15  26
ATOM     19  C   UNL     1      -4.569  12.364  19.433  0.00  0.00    +0.000 C 
ATOM     20  C   UNL     1      -3.642  11.612  18.516  0.00  0.00    +0.000 A 
ATOM     21  C   UNL     1      -4.192  11.151  17.302  0.00  0.00    +0.000 A 
ATOM     22  C   UNL     1      -3.427  10.436  16.390  0.00  0.00    +0.000 A 
ATOM     23  C   UNL     1      -2.108  10.140  16.698  0.00  0.00    +0.000 A 
ATOM     24  C   UNL     1      -1.526  10.567  17.908  0.00  0.00    +0.000 A 
ATOM     25  C   UNL     1      -0.171  10.002  18.234  0.00  0.00    +0.000 C 
ATOM     26  C   UNL     1      -2.282  11.349  18.811  0.00  0.00    +0.000 A 
ENDBRANCH  15  26
ENDBRANCH   1  16
BRANCH   1  27
ATOM     27  N   UNL     1       0.901  13.174  21.692  0.00  0.00    +0.000 NA
ATOM     28  C   UNL     1       1.333  12.246  20.628  0.00  0.00    +0.000 C 
ATOM     29  C   UNL     1       1.564  14.459  21.441  0.00  0.00    +0.000 C 
ENDBRANCH   1  27
TORSDOF 5
ENDMDL
MODEL 9
REMARK VINA RESULT:      -6.6      2.699      7.050
REMARK  Name = 
REMARK  9 active torsions:
REMARK  status: ('A' for Active; 'I' for Inactive)
REMARK    1  A    between atoms: C_1  and  C_2
REMARK    2  A    between atoms: C_6  and  C_7
REMARK    3  A    between atoms: C_8  and  N_9
REMARK    4  A    between atoms: C_10  and  C_12
REMARK    5  A    between atoms: C_12  and  N_13
REMARK    6  A    between atoms: N_13  and  C_14
REMARK    7  A    between atoms: N_13  and  C_15
REMARK    8  A    between atoms: N_18  and  C_19
REMARK    9  A    between atoms: C_24  and  O_25
REMARK                            x       y       z     vdW  Elec       q    Type
REMARK                         _______ _______ _______ _____ _____    ______ ____
ROOT
ATOM      1  C   UNL     1       6.747   6.355  17.676  0.00  0.00    +0.000 C 
ATOM      2  C   UNL     1       6.937   5.592  19.021  0.00  0.00    +0.000 C 
ATOM      3  C   UNL     1       5.873   4.481  19.190  0.00  0.00    +0.000 C 
ATOM      4  N   UNL     1       4.508   5.027  19.196  0.00  0.00    +0.000 NA
ATOM      5  C   UNL     1       4.239   5.768  17.959  0.00  0.00    +0.000 C 
ATOM      6  C   UNL     1       5.271   6.853  17.693  0.00  0.00    +0.000 C 
ENDROOT
BRANCH   4   7
ATOM      7  C   UNL     1       3.428   4.023  19.450  0.00  0.00    +0.000 C 
ATOM      8  C   UNL     1       2.148   4.623  20.075  0.00  0.00    +0.000 C 
ATOM      9  C   UNL     1       1.043   3.594  20.292  0.00  0.00    +0.000 C 
ATOM     10  C   UNL     1       0.731   2.841  19.011  0.00  0.00    +0.000 C 
ATOM     11  C   UNL     1       1.976   2.137  18.493  0.00  0.00    +0.000 C 
ATOM     12  C   UNL     1       3.102   3.133  18.208  0.00  0.00    +0.000 C 
BRANCH  12  13
ATOM     13  O   UNL     1       4.241   2.379  17.778  0.00  0.00    +0.000 OA
ATOM     14  H   UNL     1       3.931   1.489  17.536  0.00  0.00    +0.000 HD
ENDBRANCH  12  13
ENDBRANCH   4   7
BRANCH   1  16
ATOM     15  N   UNL     1       6.468   5.617  15.266  0.00  0.00    +0.000 N 
ATOM     16  C   UNL     1       7.064   5.314  16.505  0.00  0.00    +0.000 C 
ATOM     17  O   UNL     1       7.811   4.355  16.684  0.00  0.00    +0.000 OA
ATOM     18  H   UNL     1       6.160   6.571  15.145  0.00  0.00    +0.000 HD
BRANCH  15  26
ATOM     19  C   UNL     1       8.662   6.213  13.384  0.00  0.00    +0.000 C 
ATOM     20  C   UNL     1       7.640   5.128  13.172  0.00  0.00    +0.000 A 
ATOM     21  C   UNL     1       7.747   4.384  11.979  0.00  0.00    +0.000 A 
ATOM     22  C   UNL     1       6.848   3.369  11.680  0.00  0.00    +0.000 A 
ATOM     23  C   UNL     1       5.804   3.111  12.554  0.00  0.00    +0.000 A 
ATOM     24  C   UNL     1       5.651   3.844  13.748  0.00  0.00    +0.000 A 
ATOM     25  C   UNL     1       4.367   3.632  14.503  0.00  0.00    +0.000 C 
ATOM     26  C   UNL     1       6.600   4.835  14.087  0.00  0.00    +0.000 A 
ENDBRANCH  15  26
ENDBRANCH   1  16
BRANCH   1  27
ATOM     27  N   UNL     1       7.696   7.521  17.468  0.00  0.00    +0.000 NA
ATOM     28  C   UNL     1       6.962   8.769  17.179  0.00  0.00    +0.000 C 
ATOM     29  C   UNL     1       8.581   7.793  18.607  0.00  0.00    +0.000 C 
ENDBRANCH   1  27
TORSDOF 5
ENDMDL
