MODEL 1
REMARK VINA RESULT:      -9.4      0.000      0.000
REMARK  Name = 
REMARK  2 active torsions:
REMARK  status: ('A' for Active; 'I' for Inactive)
REMARK    1  A    between atoms: C_2  and  C_3
REMARK    2  A    between atoms: C_5  and  C_6
REMARK                            x       y       z     vdW  Elec       q    Type
REMARK                         _______ _______ _______ _____ _____    ______ ____
ROOT
ATOM      1  O   UNL     1       7.394   4.538  16.346  0.00  0.00    +0.000 OA
ATOM      2  C   UNL     1       6.756   5.283  17.092  0.00  0.00    +0.000 C 
ATOM      3  N   UNL     1       5.391   5.070  17.336  0.00  0.00    +0.000 N 
ATOM      4  C   UNL     1       4.789   3.837  16.807  0.00  0.00    +0.000 C 
ATOM      5  C   UNL     1       3.252   3.816  16.806  0.00  0.00    +0.000 C 
ATOM      6  C   UNL     1       2.726   4.292  18.133  0.00  0.00    +0.000 A 
ATOM      7  C   UNL     1       1.636   3.706  18.778  0.00  0.00    +0.000 A 
ATOM      8  C   UNL     1       1.222   4.193  20.020  0.00  0.00    +0.000 A 
ATOM      9  C   UNL     1       1.884   5.264  20.617  0.00  0.00    +0.000 A 
ATOM     10  C   UNL     1       2.957   5.871  19.965  0.00  0.00    +0.000 A 
ATOM     11  C   UNL     1       3.374   5.391  18.719  0.00  0.00    +0.000 A 
ATOM     12  C   UNL     1       4.489   6.049  17.954  0.00  0.00    +0.000 C 
ENDROOT
BRANCH   2  13
ATOM     13  C   UNL     1       7.425   6.435  17.709  0.00  0.00    +0.000 A 
ATOM     14  C   UNL     1       7.511   7.753  17.186  0.00  0.00    +0.000 A 
ATOM     15  C   UNL     1       8.200   8.466  18.138  0.00  0.00    +0.000 A 
ATOM     16  O   UNL     1       8.558   7.616  19.137  0.00  0.00    +0.000 OA
ATOM     17  N   UNL     1       8.126   6.348  18.850  0.00  0.00    +0.000 NA
BRANCH  15  18
ATOM     18  C   UNL     1       8.604   9.854  18.315  0.00  0.00    +0.000 A 
ATOM     19  C   UNL     1       8.084  10.865  17.489  0.00  0.00    +0.000 A 
ATOM     20  C   UNL     1       8.490  12.192  17.636  0.00  0.00    +0.000 A 
ATOM     21  C   UNL     1       9.425  12.525  18.611  0.00  0.00    +0.000 A 
ATOM     22  C   UNL     1       9.939  11.532  19.443  0.00  0.00    +0.000 A 
ATOM     23 CL   UNL     1      11.095  11.945  20.649  0.00  0.00    +0.000 Cl
ATOM     24  C   UNL     1       9.533  10.206  19.305  0.00  0.00    +0.000 A 
ENDBRANCH  15  18
ENDBRANCH   2  13
TORSDOF 2
ENDMDL
MODEL 2
REMARK VINA RESULT:      -9.1      1.395      1.666
REMARK  Name = 
REMARK  2 active torsions:
REMARK  status: ('A' for Active; 'I' for Inactive)
REMARK    1  A    between atoms: C_2  and  C_3
REMARK    2  A    between atoms: C_5  and  C_6
REMARK                            x       y       z     vdW  Elec       q    Type
REMARK                         _______ _______ _______ _____ _____    ______ ____
ROOT
ATOM      1  O   UNL     1       7.882   4.533  17.465  0.00  0.00    +0.000 OA
ATOM      2  C   UNL     1       7.036   5.392  17.719  0.00  0.00    +0.000 C 
ATOM      3  N   UNL     1       5.696   5.046  17.950  0.00  0.00    +0.000 N 
ATOM      4  C   UNL     1       5.370   3.615  18.044  0.00  0.00    +0.000 C 
ATOM      5  C   UNL     1       3.870   3.286  17.958  0.00  0.00    +0.000 C 
ATOM      6  C   UNL     1       3.086   4.203  18.856  0.00  0.00    +0.000 A 
ATOM      7  C   UNL     1       2.010   3.774  19.635  0.00  0.00    +0.000 A 
ATOM      8  C   UNL     1       1.347   4.684  20.461  0.00  0.00    +0.000 A 
ATOM      9  C   UNL     1       1.745   6.018  20.509  0.00  0.00    +0.000 A 
ATOM     10  C   UNL     1       2.802   6.459  19.713  0.00  0.00    +0.000 A 
ATOM     11  C   UNL     1       3.468   5.553  18.880  0.00  0.00    +0.000 A 
ATOM     12  C   UNL     1       4.577   5.994  17.963  0.00  0.00    +0.000 C 
ENDROOT
BRANCH   2  13
ATOM     13  C   UNL     1       7.427   6.807  17.746  0.00  0.00    +0.000 A 
ATOM     14  C   UNL     1       8.237   7.450  18.719  0.00  0.00    +0.000 A 
ATOM     15  C   UNL     1       8.339   8.752  18.289  0.00  0.00    +0.000 A 
ATOM     16  O   UNL     1       7.587   8.894  17.165  0.00  0.00    +0.000 OA
ATOM     17  N   UNL     1       6.979   7.706  16.856  0.00  0.00    +0.000 NA
BRANCH  15  18
ATOM     18  C   UNL     1       9.039   9.948  18.734  0.00  0.00    +0.000 A 
ATOM     19  C   UNL     1       9.199  10.220  20.105  0.00  0.00    +0.000 A 
ATOM     20  C   UNL     1       9.845  11.379  20.536  0.00  0.00    +0.000 A 
ATOM     21  C   UNL     1      10.336  12.285  19.603  0.00  0.00    +0.000 A 
ATOM     22  C   UNL     1      10.193  12.021  18.241  0.00  0.00    +0.000 A 
ATOM     23 CL   UNL     1      10.801  13.143  17.086  0.00  0.00    +0.000 Cl
ATOM     24  C   UNL     1       9.555  10.862  17.804  0.00  0.00    +0.000 A 
ENDBRANCH  15  18
ENDBRANCH   2  13
TORSDOF 2
ENDMDL
MODEL 3
REMARK VINA RESULT:      -8.7      1.071      1.449
REMARK  Name = 
REMARK  2 active torsions:
REMARK  status: ('A' for Active; 'I' for Inactive)
REMARK    1  A    between atoms: C_2  and  C_3
REMARK    2  A    between atoms: C_5  and  C_6
REMARK                            x       y       z     vdW  Elec       q    Type
REMARK                         _______ _______ _______ _____ _____    ______ ____
ROOT
ATOM      1  O   UNL     1       7.374   4.527  16.298  0.00  0.00    +0.000 OA
ATOM      2  C   UNL     1       6.749   5.274  17.053  0.00  0.00    +0.000 C 
ATOM      3  N   UNL     1       5.379   5.085  17.291  0.00  0.00    +0.000 N 
ATOM      4  C   UNL     1       4.754   3.872  16.743  0.00  0.00    +0.000 C 
ATOM      5  C   UNL     1       3.216   3.881  16.737  0.00  0.00    +0.000 C 
ATOM      6  C   UNL     1       2.696   4.349  18.070  0.00  0.00    +0.000 A 
ATOM      7  C   UNL     1       1.594   3.774  18.703  0.00  0.00    +0.000 A 
ATOM      8  C   UNL     1       1.186   4.252  19.951  0.00  0.00    +0.000 A 
ATOM      9  C   UNL     1       1.867   5.301  20.565  0.00  0.00    +0.000 A 
ATOM     10  C   UNL     1       2.953   5.896  19.924  0.00  0.00    +0.000 A 
ATOM     11  C   UNL     1       3.364   5.426  18.673  0.00  0.00    +0.000 A 
ATOM     12  C   UNL     1       4.494   6.072  17.920  0.00  0.00    +0.000 C 
ENDROOT
BRANCH   2  13
ATOM     13  C   UNL     1       7.438   6.404  17.688  0.00  0.00    +0.000 A 
ATOM     14  C   UNL     1       7.511   7.738  17.208  0.00  0.00    +0.000 A 
ATOM     15  C   UNL     1       8.230   8.418  18.162  0.00  0.00    +0.000 A 
ATOM     16  O   UNL     1       8.616   7.535  19.121  0.00  0.00    +0.000 OA
ATOM     17  N   UNL     1       8.172   6.277  18.804  0.00  0.00    +0.000 NA
BRANCH  15  18
ATOM     18  C   UNL     1       8.642   9.799  18.374  0.00  0.00    +0.000 A 
ATOM     19  C   UNL     1       9.716  10.105  19.229  0.00  0.00    +0.000 A 
ATOM     20  C   UNL     1      10.096  11.427  19.458  0.00  0.00    +0.000 A 
ATOM     21  C   UNL     1       9.406  12.463  18.837  0.00  0.00    +0.000 A 
ATOM     22  C   UNL     1       8.346  12.171  17.980  0.00  0.00    +0.000 A 
ATOM     23 CL   UNL     1       7.492  13.453  17.213  0.00  0.00    +0.000 Cl
ATOM     24  C   UNL     1       7.965  10.851  17.742  0.00  0.00    +0.000 A 
ENDBRANCH  15  18
ENDBRANCH   2  13
TORSDOF 2
ENDMDL
MODEL 4
REMARK VINA RESULT:      -8.6      1.306      1.356
REMARK  Name = 
REMARK  2 active torsions:
REMARK  status: ('A' for Active; 'I' for Inactive)
REMARK    1  A    between atoms: C_2  and  C_3
REMARK    2  A    between atoms: C_5  and  C_6
REMARK                            x       y       z     vdW  Elec       q    Type
REMARK                         _______ _______ _______ _____ _____    ______ ____
ROOT
ATOM      1  O   UNL     1       7.887   4.549  17.503  0.00  0.00    +0.000 OA
ATOM      2  C   UNL     1       7.043   5.414  17.743  0.00  0.00    +0.000 C 
ATOM      3  N   UNL     1       5.701   5.075  17.969  0.00  0.00    +0.000 N 
ATOM      4  C   UNL     1       5.368   3.647  18.076  0.00  0.00    +0.000 C 
ATOM      5  C   UNL     1       3.868   3.322  17.984  0.00  0.00    +0.000 C 
ATOM      6  C   UNL     1       3.081   4.252  18.867  0.00  0.00    +0.000 A 
ATOM      7  C   UNL     1       1.999   3.835  19.643  0.00  0.00    +0.000 A 
ATOM      8  C   UNL     1       1.334   4.756  20.455  0.00  0.00    +0.000 A 
ATOM      9  C   UNL     1       1.736   6.089  20.491  0.00  0.00    +0.000 A 
ATOM     10  C   UNL     1       2.800   6.517  19.697  0.00  0.00    +0.000 A 
ATOM     11  C   UNL     1       3.469   5.601  18.879  0.00  0.00    +0.000 A 
ATOM     12  C   UNL     1       4.584   6.027  17.965  0.00  0.00    +0.000 C 
ENDROOT
BRANCH   2  13
ATOM     13  C   UNL     1       7.438   6.828  17.757  0.00  0.00    +0.000 A 
ATOM     14  C   UNL     1       8.270   7.472  18.711  0.00  0.00    +0.000 A 
ATOM     15  C   UNL     1       8.367   8.772  18.275  0.00  0.00    +0.000 A 
ATOM     16  O   UNL     1       7.594   8.912  17.165  0.00  0.00    +0.000 OA
ATOM     17  N   UNL     1       6.976   7.725  16.872  0.00  0.00    +0.000 NA
BRANCH  15  18
ATOM     18  C   UNL     1       9.080   9.967  18.702  0.00  0.00    +0.000 A 
ATOM     19  C   UNL     1       9.906  10.670  17.807  0.00  0.00    +0.000 A 
ATOM     20  C   UNL     1      10.614  11.799  18.219  0.00  0.00    +0.000 A 
ATOM     21  C   UNL     1      10.509  12.240  19.534  0.00  0.00    +0.000 A 
ATOM     22  C   UNL     1       9.685  11.558  20.427  0.00  0.00    +0.000 A 
ATOM     23 CL   UNL     1       9.555  12.104  22.054  0.00  0.00    +0.000 Cl
ATOM     24  C   UNL     1       8.970  10.432  20.020  0.00  0.00    +0.000 A 
ENDBRANCH  15  18
ENDBRANCH   2  13
TORSDOF 2
ENDMDL
MODEL 5
REMARK VINA RESULT:      -8.4      5.064      6.418
REMARK  Name = 
REMARK  2 active torsions:
REMARK  status: ('A' for Active; 'I' for Inactive)
REMARK    1  A    between atoms: C_2  and  C_3
REMARK    2  A    between atoms: C_5  and  C_6
REMARK                            x       y       z     vdW  Elec       q    Type
REMARK                         _______ _______ _______ _____ _____    ______ ____
ROOT
ATOM      1  O   UNL     1       5.247   3.477  19.970  0.00  0.00    +0.000 OA
ATOM      2  C   UNL     1       4.925   4.293  19.104  0.00  0.00    +0.000 C 
ATOM      3  N   UNL     1       3.796   5.110  19.261  0.00  0.00    +0.000 N 
ATOM      4  C   UNL     1       3.108   5.080  20.560  0.00  0.00    +0.000 C 
ATOM      5  C   UNL     1       1.710   5.719  20.568  0.00  0.00    +0.000 C 
ATOM      6  C   UNL     1       1.745   7.051  19.870  0.00  0.00    +0.000 A 
ATOM      7  C   UNL     1       1.054   8.173  20.330  0.00  0.00    +0.000 A 
ATOM      8  C   UNL     1       1.156   9.381  19.637  0.00  0.00    +0.000 A 
ATOM      9  C   UNL     1       1.936   9.474  18.485  0.00  0.00    +0.000 A 
ATOM     10  C   UNL     1       2.607   8.349  18.006  0.00  0.00    +0.000 A 
ATOM     11  C   UNL     1       2.506   7.135  18.694  0.00  0.00    +0.000 A 
ATOM     12  C   UNL     1       3.167   5.884  18.184  0.00  0.00    +0.000 C 
ENDROOT
BRANCH   2  13
ATOM     13  C   UNL     1       5.715   4.388  17.870  0.00  0.00    +0.000 A 
ATOM     14  C   UNL     1       5.301   4.020  16.562  0.00  0.00    +0.000 A 
ATOM     15  C   UNL     1       6.371   4.326  15.754  0.00  0.00    +0.000 A 
ATOM     16  O   UNL     1       7.382   4.789  16.537  0.00  0.00    +0.000 OA
ATOM     17  N   UNL     1       6.998   4.779  17.852  0.00  0.00    +0.000 NA
BRANCH  15  18
ATOM     18  C   UNL     1       6.650   4.279  14.326  0.00  0.00    +0.000 A 
ATOM     19  C   UNL     1       7.520   5.210  13.733  0.00  0.00    +0.000 A 
ATOM     20  C   UNL     1       7.768   5.188  12.360  0.00  0.00    +0.000 A 
ATOM     21  C   UNL     1       7.145   4.235  11.560  0.00  0.00    +0.000 A 
ATOM     22  C   UNL     1       6.288   3.300  12.139  0.00  0.00    +0.000 A 
ATOM     23 CL   UNL     1       5.518   2.122  11.149  0.00  0.00    +0.000 Cl
ATOM     24  C   UNL     1       6.042   3.314  13.511  0.00  0.00    +0.000 A 
ENDBRANCH  15  18
ENDBRANCH   2  13
TORSDOF 2
ENDMDL
MODEL 6
REMARK VINA RESULT:      -8.0      6.421      8.538
REMARK  Name = 
REMARK  2 active torsions:
REMARK  status: ('A' for Active; 'I' for Inactive)
REMARK    1  A    between atoms: C_2  and  C_3
REMARK    2  A    between atoms: C_5  and  C_6
REMARK                            x       y       z     vdW  Elec       q    Type
REMARK                         _______ _______ _______ _____ _____    ______ ____
ROOT
ATOM      1  O   UNL     1       1.424  11.450  20.168  0.00  0.00    +0.000 OA
ATOM      2  C   UNL     1       0.825  10.706  19.390  0.00  0.00    +0.000 C 
ATOM      3  N   UNL     1      -0.551  10.854  19.159  0.00  0.00    +0.000 N 
ATOM      4  C   UNL     1      -1.218  12.025  19.745  0.00  0.00    +0.000 C 
ATOM      5  C   UNL     1      -2.754  11.961  19.751  0.00  0.00    +0.000 C 
ATOM      6  C   UNL     1      -3.259  11.517  18.405  0.00  0.00    +0.000 A 
ATOM      7  C   UNL     1      -4.383  12.072  17.790  0.00  0.00    +0.000 A 
ATOM      8  C   UNL     1      -4.775  11.620  16.528  0.00  0.00    +0.000 A 
ATOM      9  C   UNL     1      -4.058  10.617  15.880  0.00  0.00    +0.000 A 
ATOM     10  C   UNL     1      -2.949  10.041  16.501  0.00  0.00    +0.000 A 
ATOM     11  C   UNL     1      -2.554  10.485  17.767  0.00  0.00    +0.000 A 
ATOM     12  C   UNL     1      -1.400   9.856  18.498  0.00  0.00    +0.000 C 
ENDROOT
BRANCH   2  13
ATOM     13  C   UNL     1       1.554   9.623  18.718  0.00  0.00    +0.000 A 
ATOM     14  C   UNL     1       1.826   8.329  19.236  0.00  0.00    +0.000 A 
ATOM     15  C   UNL     1       2.499   7.679  18.228  0.00  0.00    +0.000 A 
ATOM     16  O   UNL     1       2.672   8.549  17.196  0.00  0.00    +0.000 OA
ATOM     17  N   UNL     1       2.135   9.768  17.517  0.00  0.00    +0.000 NA
BRANCH  15  18
ATOM     18  C   UNL     1       3.030   6.340  18.019  0.00  0.00    +0.000 A 
ATOM     19  C   UNL     1       2.182   5.219  18.036  0.00  0.00    +0.000 A 
ATOM     20  C   UNL     1       2.690   3.931  17.865  0.00  0.00    +0.000 A 
ATOM     21  C   UNL     1       4.056   3.746  17.679  0.00  0.00    +0.000 A 
ATOM     22  C   UNL     1       4.906   4.851  17.651  0.00  0.00    +0.000 A 
ATOM     23 CL   UNL     1       6.596   4.621  17.421  0.00  0.00    +0.000 Cl
ATOM     24  C   UNL     1       4.403   6.141  17.814  0.00  0.00    +0.000 A 
ENDBRANCH  15  18
ENDBRANCH   2  13
TORSDOF 2
ENDMDL
MODEL 7
REMARK VINA RESULT:      -7.9      4.731      6.022
REMARK  Name = 
REMARK  2 active torsions:
REMARK  status: ('A' for Active; 'I' for Inactive)
REMARK    1  A    between atoms: C_2  and  C_3
REMARK    2  A    between atoms: C_5  and  C_6
REMARK                            x       y       z     vdW  Elec       q    Type
REMARK                         _______ _______ _______ _____ _____    ______ ____
ROOT
ATOM      1  O   UNL     1       5.070   2.948  20.012  0.00  0.00    +0.000 OA
ATOM      2  C   UNL     1       4.762   3.841  19.220  0.00  0.00    +0.000 C 
ATOM      3  N   UNL     1       3.647   4.661  19.448  0.00  0.00    +0.000 N 
ATOM      4  C   UNL     1       2.959   4.530  20.741  0.00  0.00    +0.000 C 
ATOM      5  C   UNL     1       1.571   5.189  20.806  0.00  0.00    +0.000 C 
ATOM      6  C   UNL     1       1.629   6.576  20.225  0.00  0.00    +0.000 A 
ATOM      7  C   UNL     1       0.956   7.665  20.781  0.00  0.00    +0.000 A 
ATOM      8  C   UNL     1       1.078   8.926  20.194  0.00  0.00    +0.000 A 
ATOM      9  C   UNL     1       1.860   9.105  19.054  0.00  0.00    +0.000 A 
ATOM     10  C   UNL     1       2.512   8.015  18.479  0.00  0.00    +0.000 A 
ATOM     11  C   UNL     1       2.391   6.748  19.060  0.00  0.00    +0.000 A 
ATOM     12  C   UNL     1       3.031   5.534  18.443  0.00  0.00    +0.000 C 
ENDROOT
BRANCH   2  13
ATOM     13  C   UNL     1       5.554   4.029  17.998  0.00  0.00    +0.000 A 
ATOM     14  C   UNL     1       5.135   3.779  16.664  0.00  0.00    +0.000 A 
ATOM     15  C   UNL     1       6.209   4.137  15.884  0.00  0.00    +0.000 A 
ATOM     16  O   UNL     1       7.227   4.518  16.702  0.00  0.00    +0.000 OA
ATOM     17  N   UNL     1       6.842   4.402  18.012  0.00  0.00    +0.000 NA
BRANCH  15  18
ATOM     18  C   UNL     1       6.488   4.207  14.457  0.00  0.00    +0.000 A 
ATOM     19  C   UNL     1       5.897   3.297  13.563  0.00  0.00    +0.000 A 
ATOM     20  C   UNL     1       6.183   3.342  12.198  0.00  0.00    +0.000 A 
ATOM     21  C   UNL     1       7.067   4.297  11.708  0.00  0.00    +0.000 A 
ATOM     22  C   UNL     1       7.651   5.212  12.583  0.00  0.00    +0.000 A 
ATOM     23 CL   UNL     1       8.745   6.393  11.977  0.00  0.00    +0.000 Cl
ATOM     24  C   UNL     1       7.364   5.176  13.947  0.00  0.00    +0.000 A 
ENDBRANCH  15  18
ENDBRANCH   2  13
TORSDOF 2
ENDMDL
MODEL 8
REMARK VINA RESULT:      -7.9      6.644      8.523
REMARK  Name = 
REMARK  2 active torsions:
REMARK  status: ('A' for Active; 'I' for Inactive)
REMARK    1  A    between atoms: C_2  and  C_3
REMARK    2  A    between atoms: C_5  and  C_6
REMARK                            x       y       z     vdW  Elec       q    Type
REMARK                         _______ _______ _______ _____ _____    ______ ____
ROOT
ATOM      1  O   UNL     1       0.860  11.403  20.709  0.00  0.00    +0.000 OA
ATOM      2  C   UNL     1       0.415  10.538  19.952  0.00  0.00    +0.000 C 
ATOM      3  N   UNL     1      -0.830  10.694  19.324  0.00  0.00    +0.000 N 
ATOM      4  C   UNL     1      -1.507  11.991  19.467  0.00  0.00    +0.000 C 
ATOM      5  C   UNL     1      -2.989  11.997  19.057  0.00  0.00    +0.000 C 
ATOM      6  C   UNL     1      -3.164  11.301  17.735  0.00  0.00    +0.000 A 
ATOM      7  C   UNL     1      -4.025  11.761  16.738  0.00  0.00    +0.000 A 
ATOM      8  C   UNL     1      -4.115  11.071  15.527  0.00  0.00    +0.000 A 
ATOM      9  C   UNL     1      -3.357   9.922  15.309  0.00  0.00    +0.000 A 
ATOM     10  C   UNL     1      -2.514   9.443  16.312  0.00  0.00    +0.000 A 
ATOM     11  C   UNL     1      -2.423  10.127  17.528  0.00  0.00    +0.000 A 
ATOM     12  C   UNL     1      -1.571   9.617  18.658  0.00  0.00    +0.000 C 
ENDROOT
BRANCH   2  13
ATOM     13  C   UNL     1       1.183   9.307  19.730  0.00  0.00    +0.000 A 
ATOM     14  C   UNL     1       1.714   8.843  18.498  0.00  0.00    +0.000 A 
ATOM     15  C   UNL     1       2.370   7.677  18.812  0.00  0.00    +0.000 A 
ATOM     16  O   UNL     1       2.191   7.426  20.137  0.00  0.00    +0.000 OA
ATOM     17  N   UNL     1       1.413   8.405  20.697  0.00  0.00    +0.000 NA
BRANCH  15  18
ATOM     18  C   UNL     1       3.180   6.705  18.090  0.00  0.00    +0.000 A 
ATOM     19  C   UNL     1       4.252   7.122  17.282  0.00  0.00    +0.000 A 
ATOM     20  C   UNL     1       5.013   6.197  16.566  0.00  0.00    +0.000 A 
ATOM     21  C   UNL     1       4.709   4.842  16.646  0.00  0.00    +0.000 A 
ATOM     22  C   UNL     1       3.654   4.416  17.452  0.00  0.00    +0.000 A 
ATOM     23 CL   UNL     1       3.278   2.740  17.550  0.00  0.00    +0.000 Cl
ATOM     24  C   UNL     1       2.895   5.335  18.175  0.00  0.00    +0.000 A 
ENDBRANCH  15  18
ENDBRANCH   2  13
TORSDOF 2
ENDMDL
MODEL 9
REMARK VINA RESULT:      -7.8      1.535      1.977
REMARK  Name = 
REMARK  2 active torsions:
REMARK  status: ('A' for Active; 'I' for Inactive)
REMARK    1  A    between atoms: C_2  and  C_3
REMARK    2  A    between atoms: C_5  and  C_6
REMARK                            x       y       z     vdW  Elec       q    Type
REMARK                         _______ _______ _______ _____ _____    ______ ____
ROOT
ATOM      1  O   UNL     1       5.429   4.505  15.453  0.00  0.00    +0.000 OA
ATOM      2  C   UNL     1       5.237   4.979  16.573  0.00  0.00    +0.000 C 
ATOM      3  N   UNL     1       4.063   4.701  17.288  0.00  0.00    +0.000 N 
ATOM      4  C   UNL     1       3.148   3.694  16.729  0.00  0.00    +0.000 C 
ATOM      5  C   UNL     1       1.745   3.674  17.358  0.00  0.00    +0.000 C 
ATOM      6  C   UNL     1       1.849   3.713  18.858  0.00  0.00    +0.000 A 
ATOM      7  C   UNL     1       1.034   2.954  19.700  0.00  0.00    +0.000 A 
ATOM      8  C   UNL     1       1.208   3.028  21.084  0.00  0.00    +0.000 A 
ATOM      9  C   UNL     1       2.182   3.860  21.632  0.00  0.00    +0.000 A 
ATOM     10  C   UNL     1       2.982   4.640  20.796  0.00  0.00    +0.000 A 
ATOM     11  C   UNL     1       2.810   4.573  19.410  0.00  0.00    +0.000 A 
ATOM     12  C   UNL     1       3.610   5.438  18.474  0.00  0.00    +0.000 C 
ENDROOT
BRANCH   2  13
ATOM     13  C   UNL     1       6.237   5.881  17.158  0.00  0.00    +0.000 A 
ATOM     14  C   UNL     1       6.328   7.287  16.977  0.00  0.00    +0.000 A 
ATOM     15  C   UNL     1       7.398   7.674  17.748  0.00  0.00    +0.000 A 
ATOM     16  O   UNL     1       7.950   6.563  18.307  0.00  0.00    +0.000 OA
ATOM     17  N   UNL     1       7.267   5.447  17.902  0.00  0.00    +0.000 NA
BRANCH  15  18
ATOM     18  C   UNL     1       8.036   8.936  18.094  0.00  0.00    +0.000 A 
ATOM     19  C   UNL     1       9.009   8.997  19.108  0.00  0.00    +0.000 A 
ATOM     20  C   UNL     1       9.601  10.209  19.462  0.00  0.00    +0.000 A 
ATOM     21  C   UNL     1       9.226  11.379  18.810  0.00  0.00    +0.000 A 
ATOM     22  C   UNL     1       8.271  11.330  17.797  0.00  0.00    +0.000 A 
ATOM     23 CL   UNL     1       7.807  12.778  16.991  0.00  0.00    +0.000 Cl
ATOM     24  C   UNL     1       7.679  10.121  17.434  0.00  0.00    +0.000 A 
ENDBRANCH  15  18
ENDBRANCH   2  13
TORSDOF 2
ENDMDL
