MODEL 1
REMARK VINA RESULT:      -7.8      0.000      0.000
REMARK  Name = 
REMARK  4 active torsions:
REMARK  status: ('A' for Active; 'I' for Inactive)
REMARK    1  A    between atoms: C_5  and  C_6
REMARK    2  A    between atoms: C_11  and  O_12
REMARK    3  A    between atoms: O_12  and  C_13
REMARK    4  A    between atoms: C_13  and  C_14
REMARK                            x       y       z     vdW  Elec       q    Type
REMARK                         _______ _______ _______ _____ _____    ______ ____
ROOT
ATOM      1  C   UNL     1       4.851   5.832  17.374  0.00  0.00    +0.000 A 
ATOM      2  C   UNL     1       6.085   6.524  17.376  0.00  0.00    +0.000 A 
ATOM      3  C   UNL     1       7.218   6.017  16.740  0.00  0.00    +0.000 A 
ATOM      4  C   UNL     1       7.133   4.819  16.050  0.00  0.00    +0.000 A 
ATOM      5  C   UNL     1       5.924   4.126  16.014  0.00  0.00    +0.000 A 
ATOM      6  C   UNL     1       4.786   4.595  16.700  0.00  0.00    +0.000 A 
ENDROOT
BRANCH   1  11
ATOM      7  N   UNL     1       1.798   6.602  20.872  0.00  0.00    +0.000 N 
ATOM      8  C   UNL     1       2.396   6.825  19.698  0.00  0.00    +0.000 A 
ATOM      9  N   UNL     1       2.204   7.795  18.834  0.00  0.00    +0.000 NA
ATOM     10  N   UNL     1       3.084   7.559  17.800  0.00  0.00    +0.000 NA
ATOM     11  C   UNL     1       3.755   6.462  18.112  0.00  0.00    +0.000 A 
ATOM     12  O   UNL     1       3.346   5.930  19.307  0.00  0.00    +0.000 OA
ATOM     13  H   UNL     1       0.940   7.118  21.035  0.00  0.00    +0.000 HD
ATOM     14  H   UNL     1       1.778   5.646  21.201  0.00  0.00    +0.000 HD
ENDBRANCH   1  11
BRANCH   6  15
ATOM     15  O   UNL     1       3.609   3.876  16.735  0.00  0.00    +0.000 OA
BRANCH  15  16
ATOM     16  C   UNL     1       3.682   2.637  17.452  0.00  0.00    +0.000 C 
BRANCH  16  17
ATOM     17  C   UNL     1       2.884   2.626  18.737  0.00  0.00    +0.000 A 
ATOM     18  C   UNL     1       3.579   2.480  19.953  0.00  0.00    +0.000 A 
ATOM     19  C   UNL     1       2.904   2.547  21.171  0.00  0.00    +0.000 A 
ATOM     20  C   UNL     1       1.534   2.769  21.176  0.00  0.00    +0.000 A 
ATOM     21  F   UNL     1       0.884   2.843  22.344  0.00  0.00    +0.000 F 
ATOM     22  C   UNL     1       0.829   2.929  19.987  0.00  0.00    +0.000 A 
ATOM     23  C   UNL     1       1.504   2.865  18.766  0.00  0.00    +0.000 A 
ENDBRANCH  16  17
ENDBRANCH  15  16
ENDBRANCH   6  15
TORSDOF 4
ENDMDL
MODEL 2
REMARK VINA RESULT:      -7.8      3.206      5.694
REMARK  Name = 
REMARK  4 active torsions:
REMARK  status: ('A' for Active; 'I' for Inactive)
REMARK    1  A    between atoms: C_5  and  C_6
REMARK    2  A    between atoms: C_11  and  O_12
REMARK    3  A    between atoms: O_12  and  C_13
REMARK    4  A    between atoms: C_13  and  C_14
REMARK                            x       y       z     vdW  Elec       q    Type
REMARK                         _______ _______ _______ _____ _____    ______ ____
ROOT
ATOM      1  C   UNL     1       4.126   3.962  17.820  0.00  0.00    +0.000 A 
ATOM      2  C   UNL     1       3.673   2.647  17.568  0.00  0.00    +0.000 A 
ATOM      3  C   UNL     1       2.405   2.214  17.956  0.00  0.00    +0.000 A 
ATOM      4  C   UNL     1       1.542   3.103  18.573  0.00  0.00    +0.000 A 
ATOM      5  C   UNL     1       1.953   4.412  18.815  0.00  0.00    +0.000 A 
ATOM      6  C   UNL     1       3.251   4.848  18.483  0.00  0.00    +0.000 A 
ENDROOT
BRANCH   1  11
ATOM      7  N   UNL     1       7.629   5.290  14.970  0.00  0.00    +0.000 N 
ATOM      8  C   UNL     1       7.066   4.893  16.116  0.00  0.00    +0.000 A 
ATOM      9  N   UNL     1       7.610   4.724  17.298  0.00  0.00    +0.000 NA
ATOM     10  N   UNL     1       6.589   4.315  18.129  0.00  0.00    +0.000 NA
ATOM     11  C   UNL     1       5.491   4.271  17.391  0.00  0.00    +0.000 A 
ATOM     12  O   UNL     1       5.734   4.610  16.086  0.00  0.00    +0.000 OA
ATOM     13  H   UNL     1       8.642   5.259  14.942  0.00  0.00    +0.000 HD
ATOM     14  H   UNL     1       7.179   4.995  14.113  0.00  0.00    +0.000 HD
ENDBRANCH   1  11
BRANCH   6  15
ATOM     15  O   UNL     1       3.694   6.119  18.791  0.00  0.00    +0.000 OA
BRANCH  15  16
ATOM     16  C   UNL     1       3.221   7.149  17.915  0.00  0.00    +0.000 C 
BRANCH  16  17
ATOM     17  C   UNL     1       2.210   8.077  18.551  0.00  0.00    +0.000 A 
ATOM     18  C   UNL     1       1.913   7.906  19.916  0.00  0.00    +0.000 A 
ATOM     19  C   UNL     1       1.054   8.786  20.573  0.00  0.00    +0.000 A 
ATOM     20  C   UNL     1       0.496   9.843  19.868  0.00  0.00    +0.000 A 
ATOM     21  F   UNL     1      -0.323  10.695  20.498  0.00  0.00    +0.000 F 
ATOM     22  C   UNL     1       0.786  10.040  18.522  0.00  0.00    +0.000 A 
ATOM     23  C   UNL     1       1.649   9.161  17.862  0.00  0.00    +0.000 A 
ENDBRANCH  16  17
ENDBRANCH  15  16
ENDBRANCH   6  15
TORSDOF 4
ENDMDL
MODEL 3
REMARK VINA RESULT:      -7.8      0.092      1.060
REMARK  Name = 
REMARK  4 active torsions:
REMARK  status: ('A' for Active; 'I' for Inactive)
REMARK    1  A    between atoms: C_5  and  C_6
REMARK    2  A    between atoms: C_11  and  O_12
REMARK    3  A    between atoms: O_12  and  C_13
REMARK    4  A    between atoms: C_13  and  C_14
REMARK                            x       y       z     vdW  Elec       q    Type
REMARK                         _______ _______ _______ _____ _____    ______ ____
ROOT
ATOM      1  C   UNL     1       4.828   5.855  17.359  0.00  0.00    +0.000 A 
ATOM      2  C   UNL     1       6.067   6.536  17.350  0.00  0.00    +0.000 A 
ATOM      3  C   UNL     1       7.196   6.010  16.721  0.00  0.00    +0.000 A 
ATOM      4  C   UNL     1       7.100   4.802  16.050  0.00  0.00    +0.000 A 
ATOM      5  C   UNL     1       5.886   4.119  16.024  0.00  0.00    +0.000 A 
ATOM      6  C   UNL     1       4.752   4.608  16.704  0.00  0.00    +0.000 A 
ENDROOT
BRANCH   1  11
ATOM      7  N   UNL     1       1.816   6.736  20.866  0.00  0.00    +0.000 N 
ATOM      8  C   UNL     1       2.397   6.919  19.676  0.00  0.00    +0.000 A 
ATOM      9  N   UNL     1       2.187   7.854  18.780  0.00  0.00    +0.000 NA
ATOM     10  N   UNL     1       3.054   7.585  17.743  0.00  0.00    +0.000 NA
ATOM     11  C   UNL     1       3.737   6.505  18.087  0.00  0.00    +0.000 A 
ATOM     12  O   UNL     1       3.347   6.016  19.307  0.00  0.00    +0.000 OA
ATOM     13  H   UNL     1       0.957   7.252  21.022  0.00  0.00    +0.000 HD
ATOM     14  H   UNL     1       1.806   5.793  21.231  0.00  0.00    +0.000 HD
ENDBRANCH   1  11
BRANCH   6  15
ATOM     15  O   UNL     1       3.569   3.900  16.750  0.00  0.00    +0.000 OA
BRANCH  15  16
ATOM     16  C   UNL     1       3.624   2.686  17.510  0.00  0.00    +0.000 C 
BRANCH  16  17
ATOM     17  C   UNL     1       2.921   2.767  18.846  0.00  0.00    +0.000 A 
ATOM     18  C   UNL     1       1.529   2.980  18.857  0.00  0.00    +0.000 A 
ATOM     19  C   UNL     1       0.819   2.979  20.056  0.00  0.00    +0.000 A 
ATOM     20  C   UNL     1       1.497   2.757  21.246  0.00  0.00    +0.000 A 
ATOM     21  F   UNL     1       0.816   2.747  22.399  0.00  0.00    +0.000 F 
ATOM     22  C   UNL     1       2.869   2.531  21.258  0.00  0.00    +0.000 A 
ATOM     23  C   UNL     1       3.583   2.529  20.058  0.00  0.00    +0.000 A 
ENDBRANCH  16  17
ENDBRANCH  15  16
ENDBRANCH   6  15
TORSDOF 4
ENDMDL
MODEL 4
REMARK VINA RESULT:      -7.8      3.226      5.745
REMARK  Name = 
REMARK  4 active torsions:
REMARK  status: ('A' for Active; 'I' for Inactive)
REMARK    1  A    between atoms: C_5  and  C_6
REMARK    2  A    between atoms: C_11  and  O_12
REMARK    3  A    between atoms: O_12  and  C_13
REMARK    4  A    between atoms: C_13  and  C_14
REMARK                            x       y       z     vdW  Elec       q    Type
REMARK                         _______ _______ _______ _____ _____    ______ ____
ROOT
ATOM      1  C   UNL     1       3.695   3.583  18.239  0.00  0.00    +0.000 A 
ATOM      2  C   UNL     1       3.451   2.242  18.615  0.00  0.00    +0.000 A 
ATOM      3  C   UNL     1       2.162   1.759  18.841  0.00  0.00    +0.000 A 
ATOM      4  C   UNL     1       1.078   2.601  18.656  0.00  0.00    +0.000 A 
ATOM      5  C   UNL     1       1.287   3.922  18.266  0.00  0.00    +0.000 A 
ATOM      6  C   UNL     1       2.586   4.441  18.091  0.00  0.00    +0.000 A 
ENDROOT
BRANCH   1  11
ATOM      7  N   UNL     1       7.653   4.865  16.038  0.00  0.00    +0.000 N 
ATOM      8  C   UNL     1       6.875   4.566  17.083  0.00  0.00    +0.000 A 
ATOM      9  N   UNL     1       7.149   4.603  18.366  0.00  0.00    +0.000 NA
ATOM     10  N   UNL     1       5.997   4.207  19.011  0.00  0.00    +0.000 NA
ATOM     11  C   UNL     1       5.098   3.964  18.071  0.00  0.00    +0.000 A 
ATOM     12  O   UNL     1       5.605   4.154  16.812  0.00  0.00    +0.000 OA
ATOM     13  H   UNL     1       8.646   4.928  16.232  0.00  0.00    +0.000 HD
ATOM     14  H   UNL     1       7.428   4.420  15.158  0.00  0.00    +0.000 HD
ENDBRANCH   1  11
BRANCH   6  15
ATOM     15  O   UNL     1       2.804   5.768  17.782  0.00  0.00    +0.000 OA
BRANCH  15  16
ATOM     16  C   UNL     1       3.157   6.596  18.897  0.00  0.00    +0.000 C 
BRANCH  16  17
ATOM     17  C   UNL     1       2.251   7.791  19.084  0.00  0.00    +0.000 A 
ATOM     18  C   UNL     1       1.915   8.558  17.952  0.00  0.00    +0.000 A 
ATOM     19  C   UNL     1       1.016   9.619  18.052  0.00  0.00    +0.000 A 
ATOM     20  C   UNL     1       0.445   9.911  19.283  0.00  0.00    +0.000 A 
ATOM     21  F   UNL     1      -0.425  10.924  19.381  0.00  0.00    +0.000 F 
ATOM     22  C   UNL     1       0.752   9.158  20.412  0.00  0.00    +0.000 A 
ATOM     23  C   UNL     1       1.650   8.093  20.314  0.00  0.00    +0.000 A 
ENDBRANCH  16  17
ENDBRANCH  15  16
ENDBRANCH   6  15
TORSDOF 4
ENDMDL
MODEL 5
REMARK VINA RESULT:      -7.7      2.633      3.998
REMARK  Name = 
REMARK  4 active torsions:
REMARK  status: ('A' for Active; 'I' for Inactive)
REMARK    1  A    between atoms: C_5  and  C_6
REMARK    2  A    between atoms: C_11  and  O_12
REMARK    3  A    between atoms: O_12  and  C_13
REMARK    4  A    between atoms: C_13  and  C_14
REMARK                            x       y       z     vdW  Elec       q    Type
REMARK                         _______ _______ _______ _____ _____    ______ ____
ROOT
ATOM      1  C   UNL     1       4.883   5.949  16.811  0.00  0.00    +0.000 A 
ATOM      2  C   UNL     1       4.319   7.225  16.579  0.00  0.00    +0.000 A 
ATOM      3  C   UNL     1       3.392   7.794  17.451  0.00  0.00    +0.000 A 
ATOM      4  C   UNL     1       3.034   7.113  18.602  0.00  0.00    +0.000 A 
ATOM      5  C   UNL     1       3.588   5.862  18.868  0.00  0.00    +0.000 A 
ATOM      6  C   UNL     1       4.482   5.248  17.967  0.00  0.00    +0.000 A 
ENDROOT
BRANCH   1  11
ATOM      7  N   UNL     1       6.417   3.531  13.075  0.00  0.00    +0.000 N 
ATOM      8  C   UNL     1       6.500   4.388  14.097  0.00  0.00    +0.000 A 
ATOM      9  N   UNL     1       7.502   5.151  14.467  0.00  0.00    +0.000 NA
ATOM     10  N   UNL     1       7.061   5.844  15.574  0.00  0.00    +0.000 NA
ATOM     11  C   UNL     1       5.815   5.457  15.795  0.00  0.00    +0.000 A 
ATOM     12  O   UNL     1       5.403   4.509  14.895  0.00  0.00    +0.000 OA
ATOM     13  H   UNL     1       7.297   3.269  12.646  0.00  0.00    +0.000 HD
ATOM     14  H   UNL     1       5.756   2.771  13.168  0.00  0.00    +0.000 HD
ENDBRANCH   1  11
BRANCH   6  15
ATOM     15  O   UNL     1       4.974   3.977  18.183  0.00  0.00    +0.000 OA
BRANCH  15  16
ATOM     16  C   UNL     1       4.019   2.924  18.005  0.00  0.00    +0.000 C 
BRANCH  16  17
ATOM     17  C   UNL     1       3.079   2.744  19.176  0.00  0.00    +0.000 A 
ATOM     18  C   UNL     1       3.636   2.544  20.454  0.00  0.00    +0.000 A 
ATOM     19  C   UNL     1       2.819   2.458  21.580  0.00  0.00    +0.000 A 
ATOM     20  C   UNL     1       1.444   2.580  21.432  0.00  0.00    +0.000 A 
ATOM     21  F   UNL     1       0.657   2.506  22.513  0.00  0.00    +0.000 F 
ATOM     22  C   UNL     1       0.874   2.792  20.182  0.00  0.00    +0.000 A 
ATOM     23  C   UNL     1       1.690   2.881  19.052  0.00  0.00    +0.000 A 
ENDBRANCH  16  17
ENDBRANCH  15  16
ENDBRANCH   6  15
TORSDOF 4
ENDMDL
MODEL 6
REMARK VINA RESULT:      -7.7      2.547      3.527
REMARK  Name = 
REMARK  4 active torsions:
REMARK  status: ('A' for Active; 'I' for Inactive)
REMARK    1  A    between atoms: C_5  and  C_6
REMARK    2  A    between atoms: C_11  and  O_12
REMARK    3  A    between atoms: O_12  and  C_13
REMARK    4  A    between atoms: C_13  and  C_14
REMARK                            x       y       z     vdW  Elec       q    Type
REMARK                         _______ _______ _______ _____ _____    ______ ____
ROOT
ATOM      1  C   UNL     1       6.058   5.377  18.438  0.00  0.00    +0.000 A 
ATOM      2  C   UNL     1       7.358   5.597  18.949  0.00  0.00    +0.000 A 
ATOM      3  C   UNL     1       8.127   6.696  18.567  0.00  0.00    +0.000 A 
ATOM      4  C   UNL     1       7.596   7.627  17.690  0.00  0.00    +0.000 A 
ATOM      5  C   UNL     1       6.309   7.446  17.186  0.00  0.00    +0.000 A 
ATOM      6  C   UNL     1       5.542   6.311  17.516  0.00  0.00    +0.000 A 
ENDROOT
BRANCH   1  11
ATOM      7  N   UNL     1       3.799   1.256  18.176  0.00  0.00    +0.000 N 
ATOM      8  C   UNL     1       4.383   2.296  18.779  0.00  0.00    +0.000 A 
ATOM      9  N   UNL     1       4.595   2.508  20.057  0.00  0.00    +0.000 NA
ATOM     10  N   UNL     1       5.239   3.725  20.136  0.00  0.00    +0.000 NA
ATOM     11  C   UNL     1       5.378   4.164  18.896  0.00  0.00    +0.000 A 
ATOM     12  O   UNL     1       4.831   3.304  17.980  0.00  0.00    +0.000 OA
ATOM     13  H   UNL     1       3.260   0.643  18.777  0.00  0.00    +0.000 HD
ATOM     14  H   UNL     1       3.379   1.428  17.272  0.00  0.00    +0.000 HD
ENDBRANCH   1  11
BRANCH   6  15
ATOM     15  O   UNL     1       4.299   6.086  16.960  0.00  0.00    +0.000 OA
BRANCH  15  16
ATOM     16  C   UNL     1       3.208   6.705  17.653  0.00  0.00    +0.000 C 
BRANCH  16  17
ATOM     17  C   UNL     1       2.410   5.753  18.514  0.00  0.00    +0.000 A 
ATOM     18  C   UNL     1       1.791   4.650  17.894  0.00  0.00    +0.000 A 
ATOM     19  C   UNL     1       1.115   3.695  18.650  0.00  0.00    +0.000 A 
ATOM     20  C   UNL     1       1.062   3.836  20.030  0.00  0.00    +0.000 A 
ATOM     21  F   UNL     1       0.420   2.915  20.761  0.00  0.00    +0.000 F 
ATOM     22  C   UNL     1       1.676   4.909  20.666  0.00  0.00    +0.000 A 
ATOM     23  C   UNL     1       2.357   5.867  19.910  0.00  0.00    +0.000 A 
ENDBRANCH  16  17
ENDBRANCH  15  16
ENDBRANCH   6  15
TORSDOF 4
ENDMDL
MODEL 7
REMARK VINA RESULT:      -7.7      2.615      3.241
REMARK  Name = 
REMARK  4 active torsions:
REMARK  status: ('A' for Active; 'I' for Inactive)
REMARK    1  A    between atoms: C_5  and  C_6
REMARK    2  A    between atoms: C_11  and  O_12
REMARK    3  A    between atoms: O_12  and  C_13
REMARK    4  A    between atoms: C_13  and  C_14
REMARK                            x       y       z     vdW  Elec       q    Type
REMARK                         _______ _______ _______ _____ _____    ______ ____
ROOT
ATOM      1  C   UNL     1       6.671   4.959  15.865  0.00  0.00    +0.000 A 
ATOM      2  C   UNL     1       7.353   5.239  14.659  0.00  0.00    +0.000 A 
ATOM      3  C   UNL     1       6.983   4.656  13.448  0.00  0.00    +0.000 A 
ATOM      4  C   UNL     1       5.890   3.806  13.407  0.00  0.00    +0.000 A 
ATOM      5  C   UNL     1       5.186   3.529  14.577  0.00  0.00    +0.000 A 
ATOM      6  C   UNL     1       5.583   4.063  15.819  0.00  0.00    +0.000 A 
ENDROOT
BRANCH   1  11
ATOM      7  N   UNL     1       8.341   5.382  20.246  0.00  0.00    +0.000 N 
ATOM      8  C   UNL     1       7.965   5.800  19.033  0.00  0.00    +0.000 A 
ATOM      9  N   UNL     1       8.027   7.001  18.508  0.00  0.00    +0.000 NA
ATOM     10  N   UNL     1       7.519   6.883  17.232  0.00  0.00    +0.000 NA
ATOM     11  C   UNL     1       7.189   5.612  17.069  0.00  0.00    +0.000 A 
ATOM     12  O   UNL     1       7.430   4.869  18.195  0.00  0.00    +0.000 OA
ATOM     13  H   UNL     1       8.502   6.110  20.933  0.00  0.00    +0.000 HD
ATOM     14  H   UNL     1       7.878   4.560  20.610  0.00  0.00    +0.000 HD
ENDBRANCH   1  11
BRANCH   6  15
ATOM     15  O   UNL     1       4.939   3.731  16.994  0.00  0.00    +0.000 OA
BRANCH  15  16
ATOM     16  C   UNL     1       3.650   4.332  17.164  0.00  0.00    +0.000 C 
BRANCH  16  17
ATOM     17  C   UNL     1       2.878   3.801  18.351  0.00  0.00    +0.000 A 
ATOM     18  C   UNL     1       3.418   3.991  19.638  0.00  0.00    +0.000 A 
ATOM     19  C   UNL     1       2.709   3.597  20.772  0.00  0.00    +0.000 A 
ATOM     20  C   UNL     1       1.456   3.019  20.622  0.00  0.00    +0.000 A 
ATOM     21  F   UNL     1       0.769   2.648  21.710  0.00  0.00    +0.000 F 
ATOM     22  C   UNL     1       0.898   2.834  19.362  0.00  0.00    +0.000 A 
ATOM     23  C   UNL     1       1.605   3.231  18.224  0.00  0.00    +0.000 A 
ENDBRANCH  16  17
ENDBRANCH  15  16
ENDBRANCH   6  15
TORSDOF 4
ENDMDL
MODEL 8
REMARK VINA RESULT:      -7.6      3.395      5.581
REMARK  Name = 
REMARK  4 active torsions:
REMARK  status: ('A' for Active; 'I' for Inactive)
REMARK    1  A    between atoms: C_5  and  C_6
REMARK    2  A    between atoms: C_11  and  O_12
REMARK    3  A    between atoms: O_12  and  C_13
REMARK    4  A    between atoms: C_13  and  C_14
REMARK                            x       y       z     vdW  Elec       q    Type
REMARK                         _______ _______ _______ _____ _____    ______ ____
ROOT
ATOM      1  C   UNL     1       4.225   4.074  18.212  0.00  0.00    +0.000 A 
ATOM      2  C   UNL     1       3.954   2.739  17.832  0.00  0.00    +0.000 A 
ATOM      3  C   UNL     1       2.663   2.212  17.854  0.00  0.00    +0.000 A 
ATOM      4  C   UNL     1       1.602   3.023  18.221  0.00  0.00    +0.000 A 
ATOM      5  C   UNL     1       1.837   4.348  18.580  0.00  0.00    +0.000 A 
ATOM      6  C   UNL     1       3.142   4.880  18.619  0.00  0.00    +0.000 A 
ENDROOT
BRANCH   1  11
ATOM      7  N   UNL     1       8.429   5.452  19.819  0.00  0.00    +0.000 N 
ATOM      8  C   UNL     1       7.530   5.082  18.902  0.00  0.00    +0.000 A 
ATOM      9  N   UNL     1       7.683   4.895  17.612  0.00  0.00    +0.000 NA
ATOM     10  N   UNL     1       6.447   4.512  17.136  0.00  0.00    +0.000 NA
ATOM     11  C   UNL     1       5.630   4.486  18.176  0.00  0.00    +0.000 A 
ATOM     12  O   UNL     1       6.257   4.862  19.335  0.00  0.00    +0.000 OA
ATOM     13  H   UNL     1       9.291   5.845  19.459  0.00  0.00    +0.000 HD
ATOM     14  H   UNL     1       8.074   5.913  20.647  0.00  0.00    +0.000 HD
ENDBRANCH   1  11
BRANCH   6  15
ATOM     15  O   UNL     1       3.391   6.167  19.049  0.00  0.00    +0.000 OA
BRANCH  15  16
ATOM     16  C   UNL     1       3.024   7.194  18.119  0.00  0.00    +0.000 C 
BRANCH  16  17
ATOM     17  C   UNL     1       2.026   8.188  18.667  0.00  0.00    +0.000 A 
ATOM     18  C   UNL     1       1.705   8.128  20.037  0.00  0.00    +0.000 A 
ATOM     19  C   UNL     1       0.856   9.072  20.611  0.00  0.00    +0.000 A 
ATOM     20  C   UNL     1       0.332  10.084  19.819  0.00  0.00    +0.000 A 
ATOM     21  F   UNL     1      -0.477  10.998  20.370  0.00  0.00    +0.000 F 
ATOM     22  C   UNL     1       0.645  10.171  18.467  0.00  0.00    +0.000 A 
ATOM     23  C   UNL     1       1.498   9.228  17.889  0.00  0.00    +0.000 A 
ENDBRANCH  16  17
ENDBRANCH  15  16
ENDBRANCH   6  15
TORSDOF 4
ENDMDL
MODEL 9
REMARK VINA RESULT:      -7.6      2.654      3.567
REMARK  Name = 
REMARK  4 active torsions:
REMARK  status: ('A' for Active; 'I' for Inactive)
REMARK    1  A    between atoms: C_5  and  C_6
REMARK    2  A    between atoms: C_11  and  O_12
REMARK    3  A    between atoms: O_12  and  C_13
REMARK    4  A    between atoms: C_13  and  C_14
REMARK                            x       y       z     vdW  Elec       q    Type
REMARK                         _______ _______ _______ _____ _____    ______ ____
ROOT
ATOM      1  C   UNL     1       6.510   5.724  16.556  0.00  0.00    +0.000 A 
ATOM      2  C   UNL     1       7.172   5.122  15.462  0.00  0.00    +0.000 A 
ATOM      3  C   UNL     1       6.546   4.184  14.643  0.00  0.00    +0.000 A 
ATOM      4  C   UNL     1       5.221   3.853  14.876  0.00  0.00    +0.000 A 
ATOM      5  C   UNL     1       4.536   4.446  15.935  0.00  0.00    +0.000 A 
ATOM      6  C   UNL     1       5.173   5.351  16.808  0.00  0.00    +0.000 A 
ENDROOT
BRANCH   1  11
ATOM      7  N   UNL     1       8.400   9.820  17.899  0.00  0.00    +0.000 N 
ATOM      8  C   UNL     1       8.130   8.513  17.974  0.00  0.00    +0.000 A 
ATOM      9  N   UNL     1       8.461   7.644  18.900  0.00  0.00    +0.000 NA
ATOM     10  N   UNL     1       7.925   6.440  18.498  0.00  0.00    +0.000 NA
ATOM     11  C   UNL     1       7.299   6.664  17.355  0.00  0.00    +0.000 A 
ATOM     12  O   UNL     1       7.410   7.970  16.953  0.00  0.00    +0.000 OA
ATOM     13  H   UNL     1       9.128  10.156  18.519  0.00  0.00    +0.000 HD
ATOM     14  H   UNL     1       8.417  10.231  16.975  0.00  0.00    +0.000 HD
ENDBRANCH   1  11
BRANCH   6  15
ATOM     15  O   UNL     1       4.525   5.882  17.905  0.00  0.00    +0.000 OA
BRANCH  15  16
ATOM     16  C   UNL     1       3.096   5.790  17.863  0.00  0.00    +0.000 C 
BRANCH  16  17
ATOM     17  C   UNL     1       2.513   4.849  18.893  0.00  0.00    +0.000 A 
ATOM     18  C   UNL     1       2.806   5.081  20.251  0.00  0.00    +0.000 A 
ATOM     19  C   UNL     1       2.227   4.298  21.248  0.00  0.00    +0.000 A 
ATOM     20  C   UNL     1       1.348   3.285  20.890  0.00  0.00    +0.000 A 
ATOM     21  F   UNL     1       0.784   2.536  21.846  0.00  0.00    +0.000 F 
ATOM     22  C   UNL     1       1.033   3.047  19.556  0.00  0.00    +0.000 A 
ATOM     23  C   UNL     1       1.610   3.832  18.555  0.00  0.00    +0.000 A 
ENDBRANCH  16  17
ENDBRANCH  15  16
ENDBRANCH   6  15
TORSDOF 4
ENDMDL
