MODEL 1
REMARK VINA RESULT:      -8.8      0.000      0.000
REMARK  Name = 
REMARK  11 active torsions:
REMARK  status: ('A' for Active; 'I' for Inactive)
REMARK    1  A    between atoms: C_1  and  C_2
REMARK    2  A    between atoms: C_2  and  N_3
REMARK    3  A    between atoms: C_2  and  C_9
REMARK    4  A    between atoms: N_6  and  C_7
REMARK    5  A    between atoms: N_6  and  C_8
REMARK    6  A    between atoms: C_12  and  C_13
REMARK    7  A    between atoms: C_13  and  N_14
REMARK    8  A    between atoms: C_19  and  O_20
REMARK    9  A    between atoms: O_20  and  C_21
REMARK   10  A    between atoms: C_21  and  C_22
REMARK   11  A    between atoms: C_29  and  O_30
REMARK                            x       y       z     vdW  Elec       q    Type
REMARK                         _______ _______ _______ _____ _____    ______ ____
ROOT
ATOM      1  N   UNL     1       6.892   7.236  18.076  0.00  0.00    +0.000 NA
ATOM      2  C   UNL     1       5.574   7.363  17.400  0.00  0.00    +0.000 C 
ATOM      3  C   UNL     1       4.748   6.074  17.370  0.00  0.00    +0.000 A 
ATOM      4  C   UNL     1       3.387   6.046  17.671  0.00  0.00    +0.000 A 
ATOM      5  C   UNL     1       2.702   4.824  17.747  0.00  0.00    +0.000 A 
ATOM      6  C   UNL     1       3.356   3.605  17.494  0.00  0.00    +0.000 A 
ATOM      7  C   UNL     1       4.698   3.625  17.131  0.00  0.00    +0.000 A 
ATOM      8  C   UNL     1       5.397   4.843  17.117  0.00  0.00    +0.000 A 
ATOM      9  C   UNL     1       6.907   4.844  17.165  0.00  0.00    +0.000 C 
ATOM     10  C   UNL     1       7.226   5.810  18.341  0.00  0.00    +0.000 C 
ENDROOT
BRANCH   9  11
ATOM     11  O   UNL     1       7.465   5.250  15.927  0.00  0.00    +0.000 OA
ATOM     12  H   UNL     1       7.593   6.206  15.985  0.00  0.00    +0.000 HD
ENDBRANCH   9  11
BRANCH   1  13
ATOM     13  C   UNL     1       7.985   7.983  17.418  0.00  0.00    +0.000 C 
BRANCH  13  17
ATOM     14  C   UNL     1       9.328  11.798  19.137  0.00  0.00    +0.000 A 
ATOM     15  C   UNL     1       9.526  10.584  19.823  0.00  0.00    +0.000 A 
ATOM     16  C   UNL     1       9.085   9.356  19.276  0.00  0.00    +0.000 A 
ATOM     17  C   UNL     1       8.388   9.305  18.066  0.00  0.00    +0.000 A 
ATOM     18  C   UNL     1       8.161  10.521  17.408  0.00  0.00    +0.000 A 
ATOM     19  C   UNL     1       8.667  11.725  17.907  0.00  0.00    +0.000 A 
BRANCH  14  21
ATOM     20  C   UNL     1      10.007  13.135  21.215  0.00  0.00    +0.000 C 
ATOM     21  C   UNL     1       9.832  13.140  19.680  0.00  0.00    +0.000 C 
BRANCH  21  22
ATOM     22  N   UNL     1       8.930  14.225  19.282  0.00  0.00    +0.000 N 
ATOM     23  C   UNL     1       9.397  15.440  18.913  0.00  0.00    +0.000 C 
ATOM     24  O   UNL     1      10.597  15.697  18.898  0.00  0.00    +0.000 OA
ATOM     25  N   UNL     1       8.435  16.410  18.603  0.00  0.00    +0.000 N 
ATOM     26  C   UNL     1       6.989  16.251  18.691  0.00  0.00    +0.000 C 
ATOM     27  C   UNL     1       8.889  17.746  18.255  0.00  0.00    +0.000 C 
ATOM     28  H   UNL     1       8.059  13.917  18.905  0.00  0.00    +0.000 HD
ENDBRANCH  21  22
ENDBRANCH  14  21
ENDBRANCH  13  17
ENDBRANCH   1  13
BRANCH   6  29
ATOM     29  O   UNL     1       2.598   2.475  17.658  0.00  0.00    +0.000 OA
BRANCH  29  30
ATOM     30  C   UNL     1       1.428   2.625  18.471  0.00  0.00    +0.000 C 
BRANCH  30  31
ATOM     31  C   UNL     1       1.727   2.129  19.849  0.00  0.00    +0.000 C 
ATOM     32  C   UNL     1       2.817   2.789  20.675  0.00  0.00    +0.000 C 
ATOM     33  C   UNL     1       1.387   2.984  21.014  0.00  0.00    +0.000 C 
ATOM     34  F   UNL     1       0.872   2.436  22.162  0.00  0.00    +0.000 F 
ATOM     35  F   UNL     1       0.797   4.214  20.841  0.00  0.00    +0.000 F 
ENDBRANCH  30  31
ENDBRANCH  29  30
ENDBRANCH   6  29
TORSDOF 8
ENDMDL
MODEL 2
REMARK VINA RESULT:      -8.7      0.945      1.381
REMARK  Name = 
REMARK  11 active torsions:
REMARK  status: ('A' for Active; 'I' for Inactive)
REMARK    1  A    between atoms: C_1  and  C_2
REMARK    2  A    between atoms: C_2  and  N_3
REMARK    3  A    between atoms: C_2  and  C_9
REMARK    4  A    between atoms: N_6  and  C_7
REMARK    5  A    between atoms: N_6  and  C_8
REMARK    6  A    between atoms: C_12  and  C_13
REMARK    7  A    between atoms: C_13  and  N_14
REMARK    8  A    between atoms: C_19  and  O_20
REMARK    9  A    between atoms: O_20  and  C_21
REMARK   10  A    between atoms: C_21  and  C_22
REMARK   11  A    between atoms: C_29  and  O_30
REMARK                            x       y       z     vdW  Elec       q    Type
REMARK                         _______ _______ _______ _____ _____    ______ ____
ROOT
ATOM      1  N   UNL     1       6.861   7.382  18.023  0.00  0.00    +0.000 NA
ATOM      2  C   UNL     1       5.603   7.400  17.230  0.00  0.00    +0.000 C 
ATOM      3  C   UNL     1       4.781   6.110  17.312  0.00  0.00    +0.000 A 
ATOM      4  C   UNL     1       3.400   6.109  17.502  0.00  0.00    +0.000 A 
ATOM      5  C   UNL     1       2.710   4.903  17.691  0.00  0.00    +0.000 A 
ATOM      6  C   UNL     1       3.382   3.668  17.664  0.00  0.00    +0.000 A 
ATOM      7  C   UNL     1       4.749   3.652  17.412  0.00  0.00    +0.000 A 
ATOM      8  C   UNL     1       5.448   4.863  17.286  0.00  0.00    +0.000 A 
ATOM      9  C   UNL     1       6.948   4.887  17.455  0.00  0.00    +0.000 C 
ATOM     10  C   UNL     1       7.170   6.009  18.509  0.00  0.00    +0.000 C 
ENDROOT
BRANCH   9  11
ATOM     11  O   UNL     1       7.606   5.124  16.223  0.00  0.00    +0.000 OA
ATOM     12  H   UNL     1       8.477   5.481  16.442  0.00  0.00    +0.000 HD
ENDBRANCH   9  11
BRANCH   1  13
ATOM     13  C   UNL     1       8.004   8.042  17.358  0.00  0.00    +0.000 C 
BRANCH  13  17
ATOM     14  C   UNL     1       9.289  11.734  19.367  0.00  0.00    +0.000 A 
ATOM     15  C   UNL     1       8.711  11.770  18.083  0.00  0.00    +0.000 A 
ATOM     16  C   UNL     1       8.306  10.582  17.430  0.00  0.00    +0.000 A 
ATOM     17  C   UNL     1       8.515   9.327  18.007  0.00  0.00    +0.000 A 
ATOM     18  C   UNL     1       9.125   9.296  19.267  0.00  0.00    +0.000 A 
ATOM     19  C   UNL     1       9.451  10.472  19.948  0.00  0.00    +0.000 A 
BRANCH  14  21
ATOM     20  C   UNL     1       8.985  13.145  21.484  0.00  0.00    +0.000 C 
ATOM     21  C   UNL     1       9.697  13.004  20.121  0.00  0.00    +0.000 C 
BRANCH  21  22
ATOM     22  N   UNL     1       9.443  14.192  19.299  0.00  0.00    +0.000 N 
ATOM     23  C   UNL     1      10.429  14.798  18.598  0.00  0.00    +0.000 C 
ATOM     24  O   UNL     1      11.586  14.389  18.620  0.00  0.00    +0.000 OA
ATOM     25  N   UNL     1      10.072  15.952  17.891  0.00  0.00    +0.000 N 
ATOM     26  C   UNL     1       8.760  16.588  17.881  0.00  0.00    +0.000 C 
ATOM     27  C   UNL     1      11.111  16.669  17.169  0.00  0.00    +0.000 C 
ATOM     28  H   UNL     1       8.508  14.262  18.958  0.00  0.00    +0.000 HD
ENDBRANCH  21  22
ENDBRANCH  14  21
ENDBRANCH  13  17
ENDBRANCH   1  13
BRANCH   6  29
ATOM     29  O   UNL     1       2.612   2.563  17.920  0.00  0.00    +0.000 OA
BRANCH  29  30
ATOM     30  C   UNL     1       2.620   2.102  19.275  0.00  0.00    +0.000 C 
BRANCH  30  31
ATOM     31  C   UNL     1       1.447   2.685  19.996  0.00  0.00    +0.000 C 
ATOM     32  C   UNL     1       1.387   2.638  21.511  0.00  0.00    +0.000 C 
ATOM     33  C   UNL     1       1.636   3.916  20.803  0.00  0.00    +0.000 C 
ATOM     34  F   UNL     1       0.682   4.904  20.812  0.00  0.00    +0.000 F 
ATOM     35  F   UNL     1       2.865   4.527  20.889  0.00  0.00    +0.000 F 
ENDBRANCH  30  31
ENDBRANCH  29  30
ENDBRANCH   6  29
TORSDOF 8
ENDMDL
MODEL 3
REMARK VINA RESULT:      -8.6      0.748      1.183
REMARK  Name = 
REMARK  11 active torsions:
REMARK  status: ('A' for Active; 'I' for Inactive)
REMARK    1  A    between atoms: C_1  and  C_2
REMARK    2  A    between atoms: C_2  and  N_3
REMARK    3  A    between atoms: C_2  and  C_9
REMARK    4  A    between atoms: N_6  and  C_7
REMARK    5  A    between atoms: N_6  and  C_8
REMARK    6  A    between atoms: C_12  and  C_13
REMARK    7  A    between atoms: C_13  and  N_14
REMARK    8  A    between atoms: C_19  and  O_20
REMARK    9  A    between atoms: O_20  and  C_21
REMARK   10  A    between atoms: C_21  and  C_22
REMARK   11  A    between atoms: C_29  and  O_30
REMARK                            x       y       z     vdW  Elec       q    Type
REMARK                         _______ _______ _______ _____ _____    ______ ____
ROOT
ATOM      1  N   UNL     1       6.871   7.311  18.060  0.00  0.00    +0.000 NA
ATOM      2  C   UNL     1       5.608   7.367  17.276  0.00  0.00    +0.000 C 
ATOM      3  C   UNL     1       4.764   6.091  17.338  0.00  0.00    +0.000 A 
ATOM      4  C   UNL     1       3.384   6.111  17.537  0.00  0.00    +0.000 A 
ATOM      5  C   UNL     1       2.674   4.914  17.706  0.00  0.00    +0.000 A 
ATOM      6  C   UNL     1       3.323   3.668  17.650  0.00  0.00    +0.000 A 
ATOM      7  C   UNL     1       4.688   3.632  17.388  0.00  0.00    +0.000 A 
ATOM      8  C   UNL     1       5.408   4.833  17.282  0.00  0.00    +0.000 A 
ATOM      9  C   UNL     1       6.909   4.827  17.442  0.00  0.00    +0.000 C 
ATOM     10  C   UNL     1       7.159   5.923  18.516  0.00  0.00    +0.000 C 
ENDROOT
BRANCH   9  11
ATOM     11  O   UNL     1       7.564   5.077  16.211  0.00  0.00    +0.000 OA
ATOM     12  H   UNL     1       7.282   4.378  15.604  0.00  0.00    +0.000 HD
ENDBRANCH   9  11
BRANCH   1  13
ATOM     13  C   UNL     1       8.022   7.963  17.401  0.00  0.00    +0.000 C 
BRANCH  13  17
ATOM     14  C   UNL     1       9.199  11.746  19.305  0.00  0.00    +0.000 A 
ATOM     15  C   UNL     1       8.637  11.728  18.013  0.00  0.00    +0.000 A 
ATOM     16  C   UNL     1       8.267  10.511  17.394  0.00  0.00    +0.000 A 
ATOM     17  C   UNL     1       8.496   9.280  18.013  0.00  0.00    +0.000 A 
ATOM     18  C   UNL     1       9.090   9.302  19.282  0.00  0.00    +0.000 A 
ATOM     19  C   UNL     1       9.382  10.508  19.928  0.00  0.00    +0.000 A 
BRANCH  14  21
ATOM     20  C   UNL     1       9.756  12.861  21.543  0.00  0.00    +0.000 C 
ATOM     21  C   UNL     1       9.570  13.048  20.021  0.00  0.00    +0.000 C 
BRANCH  21  22
ATOM     22  N   UNL     1       8.560  14.080  19.765  0.00  0.00    +0.000 N 
ATOM     23  C   UNL     1       8.880  15.263  19.191  0.00  0.00    +0.000 C 
ATOM     24  O   UNL     1      10.031  15.535  18.862  0.00  0.00    +0.000 OA
ATOM     25  N   UNL     1       7.838  16.186  19.043  0.00  0.00    +0.000 N 
ATOM     26  C   UNL     1       6.461  16.015  19.494  0.00  0.00    +0.000 C 
ATOM     27  C   UNL     1       8.145  17.492  18.483  0.00  0.00    +0.000 C 
ATOM     28  H   UNL     1       7.636  13.726  19.638  0.00  0.00    +0.000 HD
ENDBRANCH  21  22
ENDBRANCH  14  21
ENDBRANCH  13  17
ENDBRANCH   1  13
BRANCH   6  29
ATOM     29  O   UNL     1       2.535   2.572  17.889  0.00  0.00    +0.000 OA
BRANCH  29  30
ATOM     30  C   UNL     1       2.537   2.089  19.237  0.00  0.00    +0.000 C 
BRANCH  30  31
ATOM     31  C   UNL     1       1.396   2.708  19.978  0.00  0.00    +0.000 C 
ATOM     32  C   UNL     1       1.352   2.647  21.494  0.00  0.00    +0.000 C 
ATOM     33  C   UNL     1       1.642   3.922  20.797  0.00  0.00    +0.000 C 
ATOM     34  F   UNL     1       0.727   4.946  20.828  0.00  0.00    +0.000 F 
ATOM     35  F   UNL     1       2.894   4.484  20.874  0.00  0.00    +0.000 F 
ENDBRANCH  30  31
ENDBRANCH  29  30
ENDBRANCH   6  29
TORSDOF 8
ENDMDL
MODEL 4
REMARK VINA RESULT:      -8.4      6.586      8.799
REMARK  Name = 
REMARK  11 active torsions:
REMARK  status: ('A' for Active; 'I' for Inactive)
REMARK    1  A    between atoms: C_1  and  C_2
REMARK    2  A    between atoms: C_2  and  N_3
REMARK    3  A    between atoms: C_2  and  C_9
REMARK    4  A    between atoms: N_6  and  C_7
REMARK    5  A    between atoms: N_6  and  C_8
REMARK    6  A    between atoms: C_12  and  C_13
REMARK    7  A    between atoms: C_13  and  N_14
REMARK    8  A    between atoms: C_19  and  O_20
REMARK    9  A    between atoms: O_20  and  C_21
REMARK   10  A    between atoms: C_21  and  C_22
REMARK   11  A    between atoms: C_29  and  O_30
REMARK                            x       y       z     vdW  Elec       q    Type
REMARK                         _______ _______ _______ _____ _____    ______ ____
ROOT
ATOM      1  N   UNL     1       2.400   6.945  18.369  0.00  0.00    +0.000 NA
ATOM      2  C   UNL     1       3.730   7.402  17.887  0.00  0.00    +0.000 C 
ATOM      3  C   UNL     1       4.498   6.365  17.062  0.00  0.00    +0.000 A 
ATOM      4  C   UNL     1       5.149   6.684  15.871  0.00  0.00    +0.000 A 
ATOM      5  C   UNL     1       5.736   5.677  15.091  0.00  0.00    +0.000 A 
ATOM      6  C   UNL     1       5.711   4.331  15.500  0.00  0.00    +0.000 A 
ATOM      7  C   UNL     1       5.120   4.010  16.717  0.00  0.00    +0.000 A 
ATOM      8  C   UNL     1       4.478   5.010  17.465  0.00  0.00    +0.000 A 
ATOM      9  C   UNL     1       3.475   4.627  18.527  0.00  0.00    +0.000 C 
ATOM     10  C   UNL     1       2.227   5.480  18.163  0.00  0.00    +0.000 C 
ENDROOT
BRANCH   9  11
ATOM     11  O   UNL     1       3.977   4.877  19.829  0.00  0.00    +0.000 OA
ATOM     12  H   UNL     1       3.891   4.049  20.319  0.00  0.00    +0.000 HD
ENDBRANCH   9  11
BRANCH   1  13
ATOM     13  C   UNL     1       2.068   7.389  19.739  0.00  0.00    +0.000 C 
BRANCH  13  17
ATOM     14  C   UNL     1      -0.250  11.113  20.019  0.00  0.00    +0.000 A 
ATOM     15  C   UNL     1       0.634  10.887  18.945  0.00  0.00    +0.000 A 
ATOM     16  C   UNL     1       1.389   9.694  18.859  0.00  0.00    +0.000 A 
ATOM     17  C   UNL     1       1.330   8.721  19.860  0.00  0.00    +0.000 A 
ATOM     18  C   UNL     1       0.477   8.968  20.943  0.00  0.00    +0.000 A 
ATOM     19  C   UNL     1      -0.329  10.109  20.989  0.00  0.00    +0.000 A 
BRANCH  14  21
ATOM     20  C   UNL     1      -1.065  13.022  21.521  0.00  0.00    +0.000 C 
ATOM     21  C   UNL     1      -1.115  12.373  20.119  0.00  0.00    +0.000 C 
BRANCH  21  22
ATOM     22  N   UNL     1      -2.503  12.073  19.756  0.00  0.00    +0.000 N 
ATOM     23  C   UNL     1      -2.877  11.877  18.471  0.00  0.00    +0.000 C 
ATOM     24  O   UNL     1      -2.075  11.947  17.544  0.00  0.00    +0.000 OA
ATOM     25  N   UNL     1      -4.240  11.647  18.246  0.00  0.00    +0.000 N 
ATOM     26  C   UNL     1      -5.294  11.650  19.253  0.00  0.00    +0.000 C 
ATOM     27  C   UNL     1      -4.697  11.486  16.875  0.00  0.00    +0.000 C 
ATOM     28  H   UNL     1      -3.027  11.622  20.475  0.00  0.00    +0.000 HD
ENDBRANCH  21  22
ENDBRANCH  14  21
ENDBRANCH  13  17
ENDBRANCH   1  13
BRANCH   6  29
ATOM     29  O   UNL     1       6.265   3.431  14.627  0.00  0.00    +0.000 OA
BRANCH  29  30
ATOM     30  C   UNL     1       6.167   3.772  13.240  0.00  0.00    +0.000 C 
BRANCH  30  31
ATOM     31  C   UNL     1       5.320   2.753  12.547  0.00  0.00    +0.000 C 
ATOM     32  C   UNL     1       4.894   2.973  11.106  0.00  0.00    +0.000 C 
ATOM     33  C   UNL     1       5.911   1.951  11.447  0.00  0.00    +0.000 C 
ATOM     34  F   UNL     1       5.617   0.616  11.314  0.00  0.00    +0.000 F 
ATOM     35  F   UNL     1       7.221   2.125  11.067  0.00  0.00    +0.000 F 
ENDBRANCH  30  31
ENDBRANCH  29  30
ENDBRANCH   6  29
TORSDOF 8
ENDMDL
MODEL 5
REMARK VINA RESULT:      -8.4      5.417      7.165
REMARK  Name = 
REMARK  11 active torsions:
REMARK  status: ('A' for Active; 'I' for Inactive)
REMARK    1  A    between atoms: C_1  and  C_2
REMARK    2  A    between atoms: C_2  and  N_3
REMARK    3  A    between atoms: C_2  and  C_9
REMARK    4  A    between atoms: N_6  and  C_7
REMARK    5  A    between atoms: N_6  and  C_8
REMARK    6  A    between atoms: C_12  and  C_13
REMARK    7  A    between atoms: C_13  and  N_14
REMARK    8  A    between atoms: C_19  and  O_20
REMARK    9  A    between atoms: O_20  and  C_21
REMARK   10  A    between atoms: C_21  and  C_22
REMARK   11  A    between atoms: C_29  and  O_30
REMARK                            x       y       z     vdW  Elec       q    Type
REMARK                         _______ _______ _______ _____ _____    ______ ____
ROOT
ATOM      1  N   UNL     1       2.324   6.452  18.536  0.00  0.00    +0.000 NA
ATOM      2  C   UNL     1       3.635   7.011  18.113  0.00  0.00    +0.000 C 
ATOM      3  C   UNL     1       4.456   6.091  17.205  0.00  0.00    +0.000 A 
ATOM      4  C   UNL     1       5.101   6.548  16.056  0.00  0.00    +0.000 A 
ATOM      5  C   UNL     1       5.738   5.645  15.193  0.00  0.00    +0.000 A 
ATOM      6  C   UNL     1       5.771   4.268  15.475  0.00  0.00    +0.000 A 
ATOM      7  C   UNL     1       5.187   3.808  16.649  0.00  0.00    +0.000 A 
ATOM      8  C   UNL     1       4.495   4.704  17.480  0.00  0.00    +0.000 A 
ATOM      9  C   UNL     1       3.502   4.180  18.491  0.00  0.00    +0.000 C 
ATOM     10  C   UNL     1       2.219   5.007  18.193  0.00  0.00    +0.000 C 
ENDROOT
BRANCH   9  11
ATOM     11  O   UNL     1       3.983   4.330  19.815  0.00  0.00    +0.000 OA
ATOM     12  H   UNL     1       4.666   5.013  19.783  0.00  0.00    +0.000 HD
ENDBRANCH   9  11
BRANCH   1  13
ATOM     13  C   UNL     1       1.962   6.751  19.938  0.00  0.00    +0.000 C 
BRANCH  13  17
ATOM     14  C   UNL     1       0.735  10.898  20.722  0.00  0.00    +0.000 A 
ATOM     15  C   UNL     1       0.847   9.964  21.771  0.00  0.00    +0.000 A 
ATOM     16  C   UNL     1       1.232   8.626  21.519  0.00  0.00    +0.000 A 
ATOM     17  C   UNL     1       1.460   8.166  20.220  0.00  0.00    +0.000 A 
ATOM     18  C   UNL     1       1.309   9.090  19.178  0.00  0.00    +0.000 A 
ATOM     19  C   UNL     1       1.008  10.432  19.433  0.00  0.00    +0.000 A 
BRANCH  14  21
ATOM     20  C   UNL     1      -1.138  12.647  20.740  0.00  0.00    +0.000 C 
ATOM     21  C   UNL     1       0.364  12.365  20.965  0.00  0.00    +0.000 C 
BRANCH  21  22
ATOM     22  N   UNL     1       1.171  13.246  20.115  0.00  0.00    +0.000 N 
ATOM     23  C   UNL     1       2.368  13.728  20.522  0.00  0.00    +0.000 C 
ATOM     24  O   UNL     1       2.836  13.458  21.624  0.00  0.00    +0.000 OA
ATOM     25  N   UNL     1       3.021  14.598  19.641  0.00  0.00    +0.000 N 
ATOM     26  C   UNL     1       2.513  15.073  18.359  0.00  0.00    +0.000 C 
ATOM     27  C   UNL     1       4.284  15.185  20.059  0.00  0.00    +0.000 C 
ATOM     28  H   UNL     1       1.017  13.125  19.137  0.00  0.00    +0.000 HD
ENDBRANCH  21  22
ENDBRANCH  14  21
ENDBRANCH  13  17
ENDBRANCH   1  13
BRANCH   6  29
ATOM     29  O   UNL     1       6.371   3.478  14.529  0.00  0.00    +0.000 OA
BRANCH  29  30
ATOM     30  C   UNL     1       6.138   3.856  13.167  0.00  0.00    +0.000 C 
BRANCH  30  31
ATOM     31  C   UNL     1       5.296   2.810  12.509  0.00  0.00    +0.000 C 
ATOM     32  C   UNL     1       4.869   2.979  11.062  0.00  0.00    +0.000 C 
ATOM     33  C   UNL     1       5.892   1.975  11.436  0.00  0.00    +0.000 C 
ATOM     34  F   UNL     1       5.605   0.635  11.347  0.00  0.00    +0.000 F 
ATOM     35  F   UNL     1       7.201   2.144  11.050  0.00  0.00    +0.000 F 
ENDBRANCH  30  31
ENDBRANCH  29  30
ENDBRANCH   6  29
TORSDOF 8
ENDMDL
MODEL 6
REMARK VINA RESULT:      -8.4      1.567      1.908
REMARK  Name = 
REMARK  11 active torsions:
REMARK  status: ('A' for Active; 'I' for Inactive)
REMARK    1  A    between atoms: C_1  and  C_2
REMARK    2  A    between atoms: C_2  and  N_3
REMARK    3  A    between atoms: C_2  and  C_9
REMARK    4  A    between atoms: N_6  and  C_7
REMARK    5  A    between atoms: N_6  and  C_8
REMARK    6  A    between atoms: C_12  and  C_13
REMARK    7  A    between atoms: C_13  and  N_14
REMARK    8  A    between atoms: C_19  and  O_20
REMARK    9  A    between atoms: O_20  and  C_21
REMARK   10  A    between atoms: C_21  and  C_22
REMARK   11  A    between atoms: C_29  and  O_30
REMARK                            x       y       z     vdW  Elec       q    Type
REMARK                         _______ _______ _______ _____ _____    ______ ____
ROOT
ATOM      1  N   UNL     1       6.914   7.418  18.067  0.00  0.00    +0.000 NA
ATOM      2  C   UNL     1       5.595   7.544  17.391  0.00  0.00    +0.000 C 
ATOM      3  C   UNL     1       4.767   6.257  17.368  0.00  0.00    +0.000 A 
ATOM      4  C   UNL     1       3.406   6.233  17.671  0.00  0.00    +0.000 A 
ATOM      5  C   UNL     1       2.718   5.013  17.754  0.00  0.00    +0.000 A 
ATOM      6  C   UNL     1       3.369   3.792  17.506  0.00  0.00    +0.000 A 
ATOM      7  C   UNL     1       4.711   3.807  17.142  0.00  0.00    +0.000 A 
ATOM      8  C   UNL     1       5.413   5.024  17.121  0.00  0.00    +0.000 A 
ATOM      9  C   UNL     1       6.922   5.022  17.167  0.00  0.00    +0.000 C 
ATOM     10  C   UNL     1       7.245   5.992  18.338  0.00  0.00    +0.000 C 
ENDROOT
BRANCH   9  11
ATOM     11  O   UNL     1       7.480   5.421  15.926  0.00  0.00    +0.000 OA
ATOM     12  H   UNL     1       7.369   6.379  15.872  0.00  0.00    +0.000 HD
ENDBRANCH   9  11
BRANCH   1  13
ATOM     13  C   UNL     1       8.007   8.159  17.403  0.00  0.00    +0.000 C 
BRANCH  13  17
ATOM     14  C   UNL     1       9.422  11.934  19.154  0.00  0.00    +0.000 A 
ATOM     15  C   UNL     1       9.616  10.708  19.819  0.00  0.00    +0.000 A 
ATOM     16  C   UNL     1       9.152   9.493  19.263  0.00  0.00    +0.000 A 
ATOM     17  C   UNL     1       8.436   9.468  18.064  0.00  0.00    +0.000 A 
ATOM     18  C   UNL     1       8.214  10.695  17.426  0.00  0.00    +0.000 A 
ATOM     19  C   UNL     1       8.742  11.886  17.934  0.00  0.00    +0.000 A 
BRANCH  14  21
ATOM     20  C   UNL     1      11.485  13.266  19.886  0.00  0.00    +0.000 C 
ATOM     21  C   UNL     1       9.951  13.262  19.707  0.00  0.00    +0.000 C 
BRANCH  21  22
ATOM     22  N   UNL     1       9.298  13.583  20.980  0.00  0.00    +0.000 N 
ATOM     23  C   UNL     1       8.154  14.305  21.032  0.00  0.00    +0.000 C 
ATOM     24  O   UNL     1       7.610  14.733  20.018  0.00  0.00    +0.000 OA
ATOM     25  N   UNL     1       7.654  14.589  22.308  0.00  0.00    +0.000 N 
ATOM     26  C   UNL     1       8.273  14.229  23.579  0.00  0.00    +0.000 C 
ATOM     27  C   UNL     1       6.458  15.409  22.415  0.00  0.00    +0.000 C 
ATOM     28  H   UNL     1       9.477  12.928  21.710  0.00  0.00    +0.000 HD
ENDBRANCH  21  22
ENDBRANCH  14  21
ENDBRANCH  13  17
ENDBRANCH   1  13
BRANCH   6  29
ATOM     29  O   UNL     1       2.609   2.664  17.676  0.00  0.00    +0.000 OA
BRANCH  29  30
ATOM     30  C   UNL     1       2.615   2.105  18.994  0.00  0.00    +0.000 C 
BRANCH  30  31
ATOM     31  C   UNL     1       1.448   2.644  19.757  0.00  0.00    +0.000 C 
ATOM     32  C   UNL     1       1.386   2.484  21.265  0.00  0.00    +0.000 C 
ATOM     33  C   UNL     1       1.649   3.809  20.656  0.00  0.00    +0.000 C 
ATOM     34  F   UNL     1       0.706   4.803  20.740  0.00  0.00    +0.000 F 
ATOM     35  F   UNL     1       2.884   4.398  20.787  0.00  0.00    +0.000 F 
ENDBRANCH  30  31
ENDBRANCH  29  30
ENDBRANCH   6  29
TORSDOF 8
ENDMDL
MODEL 7
REMARK VINA RESULT:      -8.4      1.359      1.586
REMARK  Name = 
REMARK  11 active torsions:
REMARK  status: ('A' for Active; 'I' for Inactive)
REMARK    1  A    between atoms: C_1  and  C_2
REMARK    2  A    between atoms: C_2  and  N_3
REMARK    3  A    between atoms: C_2  and  C_9
REMARK    4  A    between atoms: N_6  and  C_7
REMARK    5  A    between atoms: N_6  and  C_8
REMARK    6  A    between atoms: C_12  and  C_13
REMARK    7  A    between atoms: C_13  and  N_14
REMARK    8  A    between atoms: C_19  and  O_20
REMARK    9  A    between atoms: O_20  and  C_21
REMARK   10  A    between atoms: C_21  and  C_22
REMARK   11  A    between atoms: C_29  and  O_30
REMARK                            x       y       z     vdW  Elec       q    Type
REMARK                         _______ _______ _______ _____ _____    ______ ____
ROOT
ATOM      1  N   UNL     1       6.466   6.862  18.138  0.00  0.00    +0.000 NA
ATOM      2  C   UNL     1       5.159   7.188  17.508  0.00  0.00    +0.000 C 
ATOM      3  C   UNL     1       4.155   6.032  17.491  0.00  0.00    +0.000 A 
ATOM      4  C   UNL     1       2.814   6.194  17.837  0.00  0.00    +0.000 A 
ATOM      5  C   UNL     1       1.964   5.083  17.922  0.00  0.00    +0.000 A 
ATOM      6  C   UNL     1       2.427   3.787  17.633  0.00  0.00    +0.000 A 
ATOM      7  C   UNL     1       3.745   3.620  17.225  0.00  0.00    +0.000 A 
ATOM      8  C   UNL     1       4.612   4.725  17.201  0.00  0.00    +0.000 A 
ATOM      9  C   UNL     1       6.106   4.509  17.198  0.00  0.00    +0.000 C 
ATOM     10  C   UNL     1       6.599   5.398  18.374  0.00  0.00    +0.000 C 
ENDROOT
BRANCH   9  11
ATOM     11  O   UNL     1       6.677   4.851  15.947  0.00  0.00    +0.000 OA
ATOM     12  H   UNL     1       6.620   4.060  15.394  0.00  0.00    +0.000 HD
ENDBRANCH   9  11
BRANCH   1  13
ATOM     13  C   UNL     1       7.633   7.455  17.451  0.00  0.00    +0.000 C 
BRANCH  13  17
ATOM     14  C   UNL     1       9.252  11.287  18.872  0.00  0.00    +0.000 A 
ATOM     15  C   UNL     1       9.473  10.095  19.589  0.00  0.00    +0.000 A 
ATOM     16  C   UNL     1       8.944   8.862  19.140  0.00  0.00    +0.000 A 
ATOM     17  C   UNL     1       8.137   8.788  18.002  0.00  0.00    +0.000 A 
ATOM     18  C   UNL     1       7.890   9.983  17.314  0.00  0.00    +0.000 A 
ATOM     19  C   UNL     1       8.478  11.187  17.711  0.00  0.00    +0.000 A 
BRANCH  14  21
ATOM     20  C   UNL     1      11.257  12.487  19.921  0.00  0.00    +0.000 C 
ATOM     21  C   UNL     1       9.847  12.630  19.307  0.00  0.00    +0.000 C 
BRANCH  21  22
ATOM     22  N   UNL     1       8.954  13.303  20.255  0.00  0.00    +0.000 N 
ATOM     23  C   UNL     1       8.368  14.487  19.963  0.00  0.00    +0.000 C 
ATOM     24  O   UNL     1       8.558  15.060  18.894  0.00  0.00    +0.000 OA
ATOM     25  N   UNL     1       7.576  15.055  20.969  0.00  0.00    +0.000 N 
ATOM     26  C   UNL     1       7.368  14.521  22.310  0.00  0.00    +0.000 C 
ATOM     27  C   UNL     1       6.971  16.354  20.722  0.00  0.00    +0.000 C 
ATOM     28  H   UNL     1       8.491  12.689  20.889  0.00  0.00    +0.000 HD
ENDBRANCH  21  22
ENDBRANCH  14  21
ENDBRANCH  13  17
ENDBRANCH   1  13
BRANCH   6  29
ATOM     29  O   UNL     1       1.519   2.775  17.808  0.00  0.00    +0.000 OA
BRANCH  29  30
ATOM     30  C   UNL     1       1.610   2.069  19.051  0.00  0.00    +0.000 C 
BRANCH  30  31
ATOM     31  C   UNL     1       1.247   2.996  20.166  0.00  0.00    +0.000 C 
ATOM     32  C   UNL     1       1.354   2.531  21.606  0.00  0.00    +0.000 C 
ATOM     33  C   UNL     1       2.320   3.510  21.055  0.00  0.00    +0.000 C 
ATOM     34  F   UNL     1       2.306   4.811  21.494  0.00  0.00    +0.000 F 
ATOM     35  F   UNL     1       3.633   3.152  20.861  0.00  0.00    +0.000 F 
ENDBRANCH  30  31
ENDBRANCH  29  30
ENDBRANCH   6  29
TORSDOF 8
ENDMDL
MODEL 8
REMARK VINA RESULT:      -8.4      6.849      8.830
REMARK  Name = 
REMARK  11 active torsions:
REMARK  status: ('A' for Active; 'I' for Inactive)
REMARK    1  A    between atoms: C_1  and  C_2
REMARK    2  A    between atoms: C_2  and  N_3
REMARK    3  A    between atoms: C_2  and  C_9
REMARK    4  A    between atoms: N_6  and  C_7
REMARK    5  A    between atoms: N_6  and  C_8
REMARK    6  A    between atoms: C_12  and  C_13
REMARK    7  A    between atoms: C_13  and  N_14
REMARK    8  A    between atoms: C_19  and  O_20
REMARK    9  A    between atoms: O_20  and  C_21
REMARK   10  A    between atoms: C_21  and  C_22
REMARK   11  A    between atoms: C_29  and  O_30
REMARK                            x       y       z     vdW  Elec       q    Type
REMARK                         _______ _______ _______ _____ _____    ______ ____
ROOT
ATOM      1  N   UNL     1       2.166   7.182  18.426  0.00  0.00    +0.000 NA
ATOM      2  C   UNL     1       3.464   7.670  17.888  0.00  0.00    +0.000 C 
ATOM      3  C   UNL     1       4.296   6.604  17.169  0.00  0.00    +0.000 A 
ATOM      4  C   UNL     1       4.924   6.838  15.947  0.00  0.00    +0.000 A 
ATOM      5  C   UNL     1       5.572   5.794  15.271  0.00  0.00    +0.000 A 
ATOM      6  C   UNL     1       5.635   4.500  15.818  0.00  0.00    +0.000 A 
ATOM      7  C   UNL     1       5.067   4.270  17.066  0.00  0.00    +0.000 A 
ATOM      8  C   UNL     1       4.364   5.299  17.711  0.00  0.00    +0.000 A 
ATOM      9  C   UNL     1       3.389   4.967  18.816  0.00  0.00    +0.000 C 
ATOM     10  C   UNL     1       2.088   5.696  18.375  0.00  0.00    +0.000 C 
ENDROOT
BRANCH   9  11
ATOM     11  O   UNL     1       3.875   5.383  20.080  0.00  0.00    +0.000 OA
ATOM     12  H   UNL     1       3.199   5.140  20.727  0.00  0.00    +0.000 HD
ENDBRANCH   9  11
BRANCH   1  13
ATOM     13  C   UNL     1       1.809   7.744  19.745  0.00  0.00    +0.000 C 
BRANCH  13  17
ATOM     14  C   UNL     1      -0.267  11.619  19.798  0.00  0.00    +0.000 A 
ATOM     15  C   UNL     1       0.008  10.959  18.584  0.00  0.00    +0.000 A 
ATOM     16  C   UNL     1       0.685   9.717  18.564  0.00  0.00    +0.000 A 
ATOM     17  C   UNL     1       1.156   9.126  19.738  0.00  0.00    +0.000 A 
ATOM     18  C   UNL     1       0.914   9.806  20.939  0.00  0.00    +0.000 A 
ATOM     19  C   UNL     1       0.175  10.992  20.967  0.00  0.00    +0.000 A 
BRANCH  14  21
ATOM     20  C   UNL     1      -0.128  14.148  20.183  0.00  0.00    +0.000 C 
ATOM     21  C   UNL     1      -1.037  12.942  19.858  0.00  0.00    +0.000 C 
BRANCH  21  22
ATOM     22  N   UNL     1      -2.125  12.858  20.836  0.00  0.00    +0.000 N 
ATOM     23  C   UNL     1      -3.396  12.580  20.466  0.00  0.00    +0.000 C 
ATOM     24  O   UNL     1      -3.704  12.390  19.293  0.00  0.00    +0.000 OA
ATOM     25  N   UNL     1      -4.356  12.576  21.486  0.00  0.00    +0.000 N 
ATOM     26  C   UNL     1      -4.125  12.894  22.890  0.00  0.00    +0.000 C 
ATOM     27  C   UNL     1      -5.745  12.337  21.128  0.00  0.00    +0.000 C 
ATOM     28  H   UNL     1      -1.832  12.600  21.754  0.00  0.00    +0.000 HD
ENDBRANCH  21  22
ENDBRANCH  14  21
ENDBRANCH  13  17
ENDBRANCH   1  13
BRANCH   6  29
ATOM     29  O   UNL     1       6.244   3.550  15.039  0.00  0.00    +0.000 OA
BRANCH  29  30
ATOM     30  C   UNL     1       6.367   3.874  13.649  0.00  0.00    +0.000 C 
BRANCH  30  31
ATOM     31  C   UNL     1       5.435   3.009  12.863  0.00  0.00    +0.000 C 
ATOM     32  C   UNL     1       5.006   3.425  11.468  0.00  0.00    +0.000 C 
ATOM     33  C   UNL     1       5.947   2.298  11.665  0.00  0.00    +0.000 C 
ATOM     34  F   UNL     1       5.550   1.013  11.386  0.00  0.00    +0.000 F 
ATOM     35  F   UNL     1       7.261   2.418  11.278  0.00  0.00    +0.000 F 
ENDBRANCH  30  31
ENDBRANCH  29  30
ENDBRANCH   6  29
TORSDOF 8
ENDMDL
MODEL 9
REMARK VINA RESULT:      -8.4      5.750      7.561
REMARK  Name = 
REMARK  11 active torsions:
REMARK  status: ('A' for Active; 'I' for Inactive)
REMARK    1  A    between atoms: C_1  and  C_2
REMARK    2  A    between atoms: C_2  and  N_3
REMARK    3  A    between atoms: C_2  and  C_9
REMARK    4  A    between atoms: N_6  and  C_7
REMARK    5  A    between atoms: N_6  and  C_8
REMARK    6  A    between atoms: C_12  and  C_13
REMARK    7  A    between atoms: C_13  and  N_14
REMARK    8  A    between atoms: C_19  and  O_20
REMARK    9  A    between atoms: O_20  and  C_21
REMARK   10  A    between atoms: C_21  and  C_22
REMARK   11  A    between atoms: C_29  and  O_30
REMARK                            x       y       z     vdW  Elec       q    Type
REMARK                         _______ _______ _______ _____ _____    ______ ____
ROOT
ATOM      1  N   UNL     1       2.384   6.745  18.524  0.00  0.00    +0.000 NA
ATOM      2  C   UNL     1       3.719   7.234  18.086  0.00  0.00    +0.000 C 
ATOM      3  C   UNL     1       4.497   6.254  17.204  0.00  0.00    +0.000 A 
ATOM      4  C   UNL     1       5.161   6.651  16.044  0.00  0.00    +0.000 A 
ATOM      5  C   UNL     1       5.757   5.697  15.206  0.00  0.00    +0.000 A 
ATOM      6  C   UNL     1       5.730   4.328  15.526  0.00  0.00    +0.000 A 
ATOM      7  C   UNL     1       5.127   3.927  16.712  0.00  0.00    +0.000 A 
ATOM      8  C   UNL     1       4.476   4.876  17.518  0.00  0.00    +0.000 A 
ATOM      9  C   UNL     1       3.462   4.424  18.542  0.00  0.00    +0.000 C 
ATOM     10  C   UNL     1       2.216   5.297  18.221  0.00  0.00    +0.000 C 
ENDROOT
BRANCH   9  11
ATOM     11  O   UNL     1       3.949   4.589  19.862  0.00  0.00    +0.000 OA
ATOM     12  H   UNL     1       3.241   5.015  20.364  0.00  0.00    +0.000 HD
ENDBRANCH   9  11
BRANCH   1  13
ATOM     13  C   UNL     1       2.037   7.099  19.916  0.00  0.00    +0.000 C 
BRANCH  13  17
ATOM     14  C   UNL     1       0.138  11.008  20.573  0.00  0.00    +0.000 A 
ATOM     15  C   UNL     1       0.532  10.600  19.284  0.00  0.00    +0.000 A 
ATOM     16  C   UNL     1       1.153   9.347  19.072  0.00  0.00    +0.000 A 
ATOM     17  C   UNL     1       1.450   8.492  20.135  0.00  0.00    +0.000 A 
ATOM     18  C   UNL     1       1.089   8.920  21.420  0.00  0.00    +0.000 A 
ATOM     19  C   UNL     1       0.404  10.121  21.621  0.00  0.00    +0.000 A 
BRANCH  14  21
ATOM     20  C   UNL     1      -2.040  12.336  20.338  0.00  0.00    +0.000 C 
ATOM     21  C   UNL     1      -0.577  12.339  20.831  0.00  0.00    +0.000 C 
BRANCH  21  22
ATOM     22  N   UNL     1       0.159  13.445  20.210  0.00  0.00    +0.000 N 
ATOM     23  C   UNL     1       0.989  14.239  20.925  0.00  0.00    +0.000 C 
ATOM     24  O   UNL     1       1.163  14.078  22.130  0.00  0.00    +0.000 OA
ATOM     25  N   UNL     1       1.596  15.292  20.231  0.00  0.00    +0.000 N 
ATOM     26  C   UNL     1       1.379  15.643  18.832  0.00  0.00    +0.000 C 
ATOM     27  C   UNL     1       2.452  16.205  20.970  0.00  0.00    +0.000 C 
ATOM     28  H   UNL     1       0.345  13.319  19.239  0.00  0.00    +0.000 HD
ENDBRANCH  21  22
ENDBRANCH  14  21
ENDBRANCH  13  17
ENDBRANCH   1  13
BRANCH   6  29
ATOM     29  O   UNL     1       6.294   3.487  14.602  0.00  0.00    +0.000 OA
BRANCH  29  30
ATOM     30  C   UNL     1       6.125   3.868  13.232  0.00  0.00    +0.000 C 
BRANCH  30  31
ATOM     31  C   UNL     1       5.287   2.841  12.541  0.00  0.00    +0.000 C 
ATOM     32  C   UNL     1       4.883   3.040  11.092  0.00  0.00    +0.000 C 
ATOM     33  C   UNL     1       5.893   2.021  11.463  0.00  0.00    +0.000 C 
ATOM     34  F   UNL     1       5.598   0.685  11.345  0.00  0.00    +0.000 F 
ATOM     35  F   UNL     1       7.209   2.187  11.101  0.00  0.00    +0.000 F 
ENDBRANCH  30  31
ENDBRANCH  29  30
ENDBRANCH   6  29
TORSDOF 8
ENDMDL
