MODEL 1
REMARK VINA RESULT:      -5.4      0.000      0.000
REMARK  Name = 
REMARK  3 active torsions:
REMARK  status: ('A' for Active; 'I' for Inactive)
REMARK    1  A    between atoms: C_1  and  C_2
REMARK    2  A    between atoms: C_6  and  N_7
REMARK    3  A    between atoms: N_10  and  C_11
REMARK                            x       y       z     vdW  Elec       q    Type
REMARK                         _______ _______ _______ _____ _____    ______ ____
ROOT
ATOM      1  C   UNL     1       6.089   4.281  14.331  0.00  0.00    +0.000 C 
ATOM      2  C   UNL     1       6.397   4.930  15.636  0.00  0.00    +0.000 A 
ATOM      3  N   UNL     1       7.286   5.885  15.819  0.00  0.00    +0.000 NA
ATOM      4  C   UNL     1       7.241   6.172  17.154  0.00  0.00    +0.000 A 
ATOM      5  F   UNL     1       7.993   7.079  17.714  0.00  0.00    +0.000 F 
ATOM      6  C   UNL     1       6.321   5.391  17.801  0.00  0.00    +0.000 A 
ATOM      7  N   UNL     1       5.769   4.592  16.830  0.00  0.00    +0.000 N 
ATOM      8  C   UNL     1       4.744   3.578  16.901  0.00  0.00    +0.000 C 
ENDROOT
BRANCH   6   9
ATOM      9  N   UNL     1       6.005   5.403  19.182  0.00  0.00    +0.000 N 
ATOM     10  O   UNL     1       6.940   5.255  19.975  0.00  0.00    +0.000 OA
ATOM     11  O   UNL     1       4.824   5.558  19.506  0.00  0.00    +0.000 OA
ENDBRANCH   6   9
TORSDOF 1
ENDMDL
MODEL 2
REMARK VINA RESULT:      -5.3      1.310      1.398
REMARK  Name = 
REMARK  3 active torsions:
REMARK  status: ('A' for Active; 'I' for Inactive)
REMARK    1  A    between atoms: C_1  and  C_2
REMARK    2  A    between atoms: C_6  and  N_7
REMARK    3  A    between atoms: N_10  and  C_11
REMARK                            x       y       z     vdW  Elec       q    Type
REMARK                         _______ _______ _______ _____ _____    ______ ____
ROOT
ATOM      1  C   UNL     1       6.477   4.228  14.302  0.00  0.00    +0.000 C 
ATOM      2  C   UNL     1       6.641   4.376  15.774  0.00  0.00    +0.000 A 
ATOM      3  N   UNL     1       7.777   4.630  16.392  0.00  0.00    +0.000 NA
ATOM      4  C   UNL     1       7.466   4.676  17.721  0.00  0.00    +0.000 A 
ATOM      5  F   UNL     1       8.349   4.907  18.652  0.00  0.00    +0.000 F 
ATOM      6  C   UNL     1       6.132   4.449  17.929  0.00  0.00    +0.000 A 
ATOM      7  N   UNL     1       5.592   4.260  16.680  0.00  0.00    +0.000 N 
ATOM      8  C   UNL     1       4.237   3.992  16.260  0.00  0.00    +0.000 C 
ENDROOT
BRANCH   6   9
ATOM      9  N   UNL     1       5.451   4.414  19.171  0.00  0.00    +0.000 N 
ATOM     10  O   UNL     1       5.172   3.301  19.630  0.00  0.00    +0.000 OA
ATOM     11  O   UNL     1       5.178   5.489  19.713  0.00  0.00    +0.000 OA
ENDBRANCH   6   9
TORSDOF 1
ENDMDL
MODEL 3
REMARK VINA RESULT:      -5.2      2.323      2.881
REMARK  Name = 
REMARK  3 active torsions:
REMARK  status: ('A' for Active; 'I' for Inactive)
REMARK    1  A    between atoms: C_1  and  C_2
REMARK    2  A    between atoms: C_6  and  N_7
REMARK    3  A    between atoms: N_10  and  C_11
REMARK                            x       y       z     vdW  Elec       q    Type
REMARK                         _______ _______ _______ _____ _____    ______ ____
ROOT
ATOM      1  C   UNL     1       2.130   4.384  17.963  0.00  0.00    +0.000 C 
ATOM      2  C   UNL     1       3.499   4.970  17.964  0.00  0.00    +0.000 A 
ATOM      3  N   UNL     1       3.847   6.090  17.365  0.00  0.00    +0.000 NA
ATOM      4  C   UNL     1       5.181   6.240  17.619  0.00  0.00    +0.000 A 
ATOM      5  F   UNL     1       5.882   7.247  17.179  0.00  0.00    +0.000 F 
ATOM      6  C   UNL     1       5.662   5.207  18.378  0.00  0.00    +0.000 A 
ATOM      7  N   UNL     1       4.584   4.387  18.609  0.00  0.00    +0.000 N 
ATOM      8  C   UNL     1       4.468   3.154  19.351  0.00  0.00    +0.000 C 
ENDROOT
BRANCH   6   9
ATOM      9  N   UNL     1       6.992   5.021  18.830  0.00  0.00    +0.000 N 
ATOM     10  O   UNL     1       7.270   5.448  19.955  0.00  0.00    +0.000 OA
ATOM     11  O   UNL     1       7.786   4.449  18.077  0.00  0.00    +0.000 OA
ENDBRANCH   6   9
TORSDOF 1
ENDMDL
MODEL 4
REMARK VINA RESULT:      -5.2      2.358      3.300
REMARK  Name = 
REMARK  3 active torsions:
REMARK  status: ('A' for Active; 'I' for Inactive)
REMARK    1  A    between atoms: C_1  and  C_2
REMARK    2  A    between atoms: C_6  and  N_7
REMARK    3  A    between atoms: N_10  and  C_11
REMARK                            x       y       z     vdW  Elec       q    Type
REMARK                         _______ _______ _______ _____ _____    ______ ____
ROOT
ATOM      1  C   UNL     1       4.175   3.831  19.408  0.00  0.00    +0.000 C 
ATOM      2  C   UNL     1       5.374   4.628  19.028  0.00  0.00    +0.000 A 
ATOM      3  N   UNL     1       6.427   4.831  19.794  0.00  0.00    +0.000 NA
ATOM      4  C   UNL     1       7.270   5.611  19.056  0.00  0.00    +0.000 A 
ATOM      5  F   UNL     1       8.429   6.021  19.492  0.00  0.00    +0.000 F 
ATOM      6  C   UNL     1       6.738   5.895  17.826  0.00  0.00    +0.000 A 
ATOM      7  N   UNL     1       5.520   5.261  17.799  0.00  0.00    +0.000 N 
ATOM      8  C   UNL     1       4.509   5.188  16.770  0.00  0.00    +0.000 C 
ENDROOT
BRANCH   6   9
ATOM      9  N   UNL     1       7.320   6.678  16.799  0.00  0.00    +0.000 N 
ATOM     10  O   UNL     1       7.591   6.106  15.739  0.00  0.00    +0.000 OA
ATOM     11  O   UNL     1       7.521   7.875  17.025  0.00  0.00    +0.000 OA
ENDBRANCH   6   9
TORSDOF 1
ENDMDL
MODEL 5
REMARK VINA RESULT:      -5.1      2.219      2.900
REMARK  Name = 
REMARK  3 active torsions:
REMARK  status: ('A' for Active; 'I' for Inactive)
REMARK    1  A    between atoms: C_1  and  C_2
REMARK    2  A    between atoms: C_6  and  N_7
REMARK    3  A    between atoms: N_10  and  C_11
REMARK                            x       y       z     vdW  Elec       q    Type
REMARK                         _______ _______ _______ _____ _____    ______ ____
ROOT
ATOM      1  C   UNL     1       2.427   5.519  17.975  0.00  0.00    +0.000 C 
ATOM      2  C   UNL     1       3.876   5.755  17.723  0.00  0.00    +0.000 A 
ATOM      3  N   UNL     1       4.420   6.924  17.451  0.00  0.00    +0.000 NA
ATOM      4  C   UNL     1       5.753   6.676  17.290  0.00  0.00    +0.000 A 
ATOM      5  F   UNL     1       6.622   7.606  17.006  0.00  0.00    +0.000 F 
ATOM      6  C   UNL     1       6.037   5.347  17.463  0.00  0.00    +0.000 A 
ATOM      7  N   UNL     1       4.834   4.749  17.747  0.00  0.00    +0.000 N 
ATOM      8  C   UNL     1       4.501   3.373  18.033  0.00  0.00    +0.000 C 
ENDROOT
BRANCH   6   9
ATOM      9  N   UNL     1       7.305   4.721  17.367  0.00  0.00    +0.000 N 
ATOM     10  O   UNL     1       7.747   4.515  16.232  0.00  0.00    +0.000 OA
ATOM     11  O   UNL     1       7.885   4.421  18.415  0.00  0.00    +0.000 OA
ENDBRANCH   6   9
TORSDOF 1
ENDMDL
MODEL 6
REMARK VINA RESULT:      -5.1      2.255      3.348
REMARK  Name = 
REMARK  3 active torsions:
REMARK  status: ('A' for Active; 'I' for Inactive)
REMARK    1  A    between atoms: C_1  and  C_2
REMARK    2  A    between atoms: C_6  and  N_7
REMARK    3  A    between atoms: N_10  and  C_11
REMARK                            x       y       z     vdW  Elec       q    Type
REMARK                         _______ _______ _______ _____ _____    ______ ____
ROOT
ATOM      1  C   UNL     1       4.374   3.213  19.724  0.00  0.00    +0.000 C 
ATOM      2  C   UNL     1       5.270   4.176  19.026  0.00  0.00    +0.000 A 
ATOM      3  N   UNL     1       6.231   4.874  19.598  0.00  0.00    +0.000 NA
ATOM      4  C   UNL     1       6.783   5.621  18.598  0.00  0.00    +0.000 A 
ATOM      5  F   UNL     1       7.775   6.447  18.789  0.00  0.00    +0.000 F 
ATOM      6  C   UNL     1       6.162   5.387  17.400  0.00  0.00    +0.000 A 
ATOM      7  N   UNL     1       5.190   4.454  17.666  0.00  0.00    +0.000 N 
ATOM      8  C   UNL     1       4.225   3.813  16.804  0.00  0.00    +0.000 C 
ENDROOT
BRANCH   6   9
ATOM      9  N   UNL     1       6.459   5.983  16.149  0.00  0.00    +0.000 N 
ATOM     10  O   UNL     1       5.639   6.791  15.701  0.00  0.00    +0.000 OA
ATOM     11  O   UNL     1       7.509   5.660  15.587  0.00  0.00    +0.000 OA
ENDBRANCH   6   9
TORSDOF 1
ENDMDL
MODEL 7
REMARK VINA RESULT:      -5.1      3.470      4.196
REMARK  Name = 
REMARK  3 active torsions:
REMARK  status: ('A' for Active; 'I' for Inactive)
REMARK    1  A    between atoms: C_1  and  C_2
REMARK    2  A    between atoms: C_6  and  N_7
REMARK    3  A    between atoms: N_10  and  C_11
REMARK                            x       y       z     vdW  Elec       q    Type
REMARK                         _______ _______ _______ _____ _____    ______ ____
ROOT
ATOM      1  C   UNL     1       4.864   5.760  16.500  0.00  0.00    +0.000 C 
ATOM      2  C   UNL     1       4.386   4.572  17.260  0.00  0.00    +0.000 A 
ATOM      3  N   UNL     1       3.576   3.644  16.791  0.00  0.00    +0.000 NA
ATOM      4  C   UNL     1       3.403   2.760  17.818  0.00  0.00    +0.000 A 
ATOM      5  F   UNL     1       2.653   1.697  17.724  0.00  0.00    +0.000 F 
ATOM      6  C   UNL     1       4.108   3.142  18.928  0.00  0.00    +0.000 A 
ATOM      7  N   UNL     1       4.748   4.305  18.575  0.00  0.00    +0.000 N 
ATOM      8  C   UNL     1       5.638   5.164  19.320  0.00  0.00    +0.000 C 
ENDROOT
BRANCH   6   9
ATOM      9  N   UNL     1       4.164   2.478  20.179  0.00  0.00    +0.000 N 
ATOM     10  O   UNL     1       3.200   2.623  20.937  0.00  0.00    +0.000 OA
ATOM     11  O   UNL     1       5.166   1.802  20.432  0.00  0.00    +0.000 OA
ENDBRANCH   6   9
TORSDOF 1
ENDMDL
MODEL 8
REMARK VINA RESULT:      -5.1      4.631      5.783
REMARK  Name = 
REMARK  3 active torsions:
REMARK  status: ('A' for Active; 'I' for Inactive)
REMARK    1  A    between atoms: C_1  and  C_2
REMARK    2  A    between atoms: C_6  and  N_7
REMARK    3  A    between atoms: N_10  and  C_11
REMARK                            x       y       z     vdW  Elec       q    Type
REMARK                         _______ _______ _______ _____ _____    ______ ____
ROOT
ATOM      1  C   UNL     1       2.267   6.823  19.956  0.00  0.00    +0.000 C 
ATOM      2  C   UNL     1       2.378   5.346  20.108  0.00  0.00    +0.000 A 
ATOM      3  N   UNL     1       1.487   4.572  20.695  0.00  0.00    +0.000 NA
ATOM      4  C   UNL     1       1.995   3.306  20.613  0.00  0.00    +0.000 A 
ATOM      5  F   UNL     1       1.382   2.260  21.093  0.00  0.00    +0.000 F 
ATOM      6  C   UNL     1       3.206   3.295  19.974  0.00  0.00    +0.000 A 
ATOM      7  N   UNL     1       3.457   4.604  19.641  0.00  0.00    +0.000 N 
ATOM      8  C   UNL     1       4.570   5.213  18.950  0.00  0.00    +0.000 C 
ENDROOT
BRANCH   6   9
ATOM      9  N   UNL     1       4.028   2.171  19.712  0.00  0.00    +0.000 N 
ATOM     10  O   UNL     1       3.731   1.471  18.739  0.00  0.00    +0.000 OA
ATOM     11  O   UNL     1       4.980   1.960  20.468  0.00  0.00    +0.000 OA
ENDBRANCH   6   9
TORSDOF 1
ENDMDL
MODEL 9
REMARK VINA RESULT:      -5.1      2.565      3.556
REMARK  Name = 
REMARK  3 active torsions:
REMARK  status: ('A' for Active; 'I' for Inactive)
REMARK    1  A    between atoms: C_1  and  C_2
REMARK    2  A    between atoms: C_6  and  N_7
REMARK    3  A    between atoms: N_10  and  C_11
REMARK                            x       y       z     vdW  Elec       q    Type
REMARK                         _______ _______ _______ _____ _____    ______ ____
ROOT
ATOM      1  C   UNL     1       2.757   4.026  18.598  0.00  0.00    +0.000 C 
ATOM      2  C   UNL     1       3.911   4.161  17.668  0.00  0.00    +0.000 A 
ATOM      3  N   UNL     1       3.909   3.812  16.397  0.00  0.00    +0.000 NA
ATOM      4  C   UNL     1       5.162   4.104  15.937  0.00  0.00    +0.000 A 
ATOM      5  F   UNL     1       5.538   3.890  14.707  0.00  0.00    +0.000 F 
ATOM      6  C   UNL     1       5.945   4.634  16.928  0.00  0.00    +0.000 A 
ATOM      7  N   UNL     1       5.145   4.680  18.044  0.00  0.00    +0.000 N 
ATOM      8  C   UNL     1       5.409   5.146  19.385  0.00  0.00    +0.000 C 
ENDROOT
BRANCH   6   9
ATOM      9  N   UNL     1       7.297   5.048  16.824  0.00  0.00    +0.000 N 
ATOM     10  O   UNL     1       8.159   4.260  17.224  0.00  0.00    +0.000 OA
ATOM     11  O   UNL     1       7.527   6.163  16.347  0.00  0.00    +0.000 OA
ENDBRANCH   6   9
TORSDOF 1
ENDMDL
