MODEL 1
REMARK VINA RESULT:      -8.1      0.000      0.000
REMARK  Name = 
REMARK  12 active torsions:
REMARK  status: ('A' for Active; 'I' for Inactive)
REMARK    1  A    between atoms: C_1  and  O_2
REMARK    2  A    between atoms: O_2  and  C_3
REMARK    3  A    between atoms: C_3  and  C_5
REMARK    4  A    between atoms: C_5  and  S_6
REMARK    5  A    between atoms: S_6  and  C_8
REMARK    6  A    between atoms: C_11  and  CA_12
REMARK    7  A    between atoms: CA_12  and  C_13
REMARK    8  A    between atoms: CA_12  and  N_15
REMARK    9  A    between atoms: C_13  and  O_14
REMARK   10  A    between atoms: C_16  and  C_18
REMARK   11  A    between atoms: C_24  and  C_25
REMARK   12  A    between atoms: N_28  and  C_29
REMARK                            x       y       z     vdW  Elec       q    Type
REMARK                         _______ _______ _______ _____ _____    ______ ____
ROOT
ATOM      1  CA  UNL     1       2.467   4.136  19.631  0.00  0.00    +0.000 C 
ENDROOT
BRANCH   1   5
ATOM      2  C   UNL     1       5.995   4.528  17.075  0.00  0.00    +0.000 A 
ATOM      3  C   UNL     1       6.031   4.917  18.415  0.00  0.00    +0.000 A 
ATOM      4  C   UNL     1       4.912   4.725  19.247  0.00  0.00    +0.000 A 
ATOM      5  C   UNL     1       3.724   4.157  18.755  0.00  0.00    +0.000 A 
ATOM      6  C   UNL     1       3.713   3.728  17.418  0.00  0.00    +0.000 A 
ATOM      7  C   UNL     1       4.830   3.922  16.587  0.00  0.00    +0.000 A 
BRANCH   2   8
ATOM      8  S   UNL     1       7.364   4.916  15.941  0.00  0.00    +0.000 S 
ATOM      9  O   UNL     1       7.724   6.427  16.181  0.00  0.00    +0.000 OA
BRANCH   8  10
ATOM     10  C   UNL     1       6.489   4.799  14.364  0.00  0.00    +0.000 C 
BRANCH  10  11
ATOM     11  C   UNL     1       7.452   4.942  13.220  0.00  0.00    +0.000 C 
ATOM     12  O   UNL     1       8.405   5.716  13.198  0.00  0.00    +0.000 OA
BRANCH  11  14
ATOM     13  C   UNL     1       5.906   3.379  12.386  0.00  0.00    +0.000 C 
ATOM     14  O   UNL     1       7.155   4.049  12.231  0.00  0.00    +0.000 OA
ENDBRANCH  11  14
ENDBRANCH  10  11
ENDBRANCH   8  10
ENDBRANCH   2   8
ENDBRANCH   1   5
BRANCH   1  15
ATOM     15  N   UNL     1       2.071   5.479  20.067  0.00  0.00    +0.000 N 
ATOM     16  C   UNL     1       2.018   6.565  19.197  0.00  0.00    +0.000 C 
ATOM     17  O   UNL     1       2.302   6.458  18.012  0.00  0.00    +0.000 OA
ATOM     18  H   UNL     1       1.655   5.578  20.983  0.00  0.00    +0.000 HD
BRANCH  16  19
ATOM     19  C   UNL     1       1.521   7.785  19.792  0.00  0.00    +0.000 A 
ATOM     20  C   UNL     1       1.157   8.011  21.110  0.00  0.00    +0.000 A 
ATOM     21  C   UNL     1       0.640   9.327  21.236  0.00  0.00    +0.000 A 
ATOM     22  C   UNL     1       0.120  10.089  22.298  0.00  0.00    +0.000 A 
ATOM     23 CL   UNL     1       0.236   9.408  23.860  0.00  0.00    +0.000 Cl
ATOM     24  C   UNL     1      -0.473  11.327  22.077  0.00  0.00    +0.000 A 
ATOM     25  C   UNL     1      -0.553  11.839  20.780  0.00  0.00    +0.000 A 
ATOM     26  C   UNL     1      -1.347  13.094  20.542  0.00  0.00    +0.000 C 
ATOM     27  C   UNL     1       0.057  11.149  19.708  0.00  0.00    +0.000 A 
ATOM     28  C   UNL     1       0.667   9.899  19.964  0.00  0.00    +0.000 A 
ATOM     29  N   UNL     1       1.399   9.027  19.170  0.00  0.00    +0.000 N 
ATOM     30  C   UNL     1       2.051   9.382  17.921  0.00  0.00    +0.000 C 
ENDBRANCH  16  19
ENDBRANCH   1  15
BRANCH   1  31
ATOM     31  C   UNL     1       2.681   3.164  20.827  0.00  0.00    +0.000 C 
BRANCH  31  32
ATOM     32  O   UNL     1       2.240   3.683  22.078  0.00  0.00    +0.000 OA
ATOM     33  H   UNL     1       1.273   3.584  22.110  0.00  0.00    +0.000 HD
ENDBRANCH  31  32
ENDBRANCH   1  31
TORSDOF 9
ENDMDL
MODEL 2
REMARK VINA RESULT:      -8.0      5.629     11.235
REMARK  Name = 
REMARK  12 active torsions:
REMARK  status: ('A' for Active; 'I' for Inactive)
REMARK    1  A    between atoms: C_1  and  O_2
REMARK    2  A    between atoms: O_2  and  C_3
REMARK    3  A    between atoms: C_3  and  C_5
REMARK    4  A    between atoms: C_5  and  S_6
REMARK    5  A    between atoms: S_6  and  C_8
REMARK    6  A    between atoms: C_11  and  CA_12
REMARK    7  A    between atoms: CA_12  and  C_13
REMARK    8  A    between atoms: CA_12  and  N_15
REMARK    9  A    between atoms: C_13  and  O_14
REMARK   10  A    between atoms: C_16  and  C_18
REMARK   11  A    between atoms: C_24  and  C_25
REMARK   12  A    between atoms: N_28  and  C_29
REMARK                            x       y       z     vdW  Elec       q    Type
REMARK                         _______ _______ _______ _____ _____    ______ ____
ROOT
ATOM      1  CA  UNL     1       0.368  12.358  19.571  0.00  0.00    +0.000 C 
ENDROOT
BRANCH   1   5
ATOM      2  C   UNL     1      -2.743  12.733  22.623  0.00  0.00    +0.000 A 
ATOM      3  C   UNL     1      -2.921  13.268  21.345  0.00  0.00    +0.000 A 
ATOM      4  C   UNL     1      -1.943  13.084  20.350  0.00  0.00    +0.000 A 
ATOM      5  C   UNL     1      -0.756  12.378  20.613  0.00  0.00    +0.000 A 
ATOM      6  C   UNL     1      -0.607  11.807  21.887  0.00  0.00    +0.000 A 
ATOM      7  C   UNL     1      -1.583  11.993  22.882  0.00  0.00    +0.000 A 
BRANCH   2   8
ATOM      8  S   UNL     1      -3.912  13.097  23.970  0.00  0.00    +0.000 S 
ATOM      9  O   UNL     1      -4.388  11.709  24.533  0.00  0.00    +0.000 OA
BRANCH   8  10
ATOM     10  C   UNL     1      -5.270  13.800  23.007  0.00  0.00    +0.000 C 
BRANCH  10  11
ATOM     11  C   UNL     1      -6.450  12.871  23.012  0.00  0.00    +0.000 C 
ATOM     12  O   UNL     1      -7.339  12.873  23.858  0.00  0.00    +0.000 OA
BRANCH  11  14
ATOM     13  C   UNL     1      -7.694  11.521  21.545  0.00  0.00    +0.000 C 
ATOM     14  O   UNL     1      -6.428  12.064  21.912  0.00  0.00    +0.000 OA
ENDBRANCH  11  14
ENDBRANCH  10  11
ENDBRANCH   8  10
ENDBRANCH   2   8
ENDBRANCH   1   5
BRANCH   1  15
ATOM     15  N   UNL     1       1.071  11.071  19.537  0.00  0.00    +0.000 N 
ATOM     16  C   UNL     1       0.668  10.018  18.719  0.00  0.00    +0.000 C 
ATOM     17  O   UNL     1      -0.303  10.109  17.980  0.00  0.00    +0.000 OA
ATOM     18  H   UNL     1       1.975  11.011  19.985  0.00  0.00    +0.000 HD
BRANCH  16  19
ATOM     19  C   UNL     1       1.538   8.864  18.758  0.00  0.00    +0.000 A 
ATOM     20  C   UNL     1       2.454   8.447  17.806  0.00  0.00    +0.000 A 
ATOM     21  C   UNL     1       3.026   7.214  18.214  0.00  0.00    +0.000 A 
ATOM     22  C   UNL     1       3.978   6.335  17.665  0.00  0.00    +0.000 A 
ATOM     23 CL   UNL     1       4.792   6.865  16.260  0.00  0.00    +0.000 Cl
ATOM     24  C   UNL     1       4.225   5.091  18.233  0.00  0.00    +0.000 A 
ATOM     25  C   UNL     1       3.527   4.696  19.377  0.00  0.00    +0.000 A 
ATOM     26  C   UNL     1       3.684   3.286  19.874  0.00  0.00    +0.000 C 
ATOM     27  C   UNL     1       2.647   5.599  20.015  0.00  0.00    +0.000 A 
ATOM     28  C   UNL     1       2.425   6.865  19.423  0.00  0.00    +0.000 A 
ATOM     29  N   UNL     1       1.701   7.978  19.823  0.00  0.00    +0.000 N 
ATOM     30  C   UNL     1       1.272   8.251  21.185  0.00  0.00    +0.000 C 
ENDBRANCH  16  19
ENDBRANCH   1  15
BRANCH   1  31
ATOM     31  C   UNL     1       1.332  13.553  19.822  0.00  0.00    +0.000 C 
BRANCH  31  32
ATOM     32  O   UNL     1       1.188  14.617  18.886  0.00  0.00    +0.000 OA
ATOM     33  H   UNL     1       1.257  15.451  19.381  0.00  0.00    +0.000 HD
ENDBRANCH  31  32
ENDBRANCH   1  31
TORSDOF 9
ENDMDL
MODEL 3
REMARK VINA RESULT:      -8.0      3.837      6.568
REMARK  Name = 
REMARK  12 active torsions:
REMARK  status: ('A' for Active; 'I' for Inactive)
REMARK    1  A    between atoms: C_1  and  O_2
REMARK    2  A    between atoms: O_2  and  C_3
REMARK    3  A    between atoms: C_3  and  C_5
REMARK    4  A    between atoms: C_5  and  S_6
REMARK    5  A    between atoms: S_6  and  C_8
REMARK    6  A    between atoms: C_11  and  CA_12
REMARK    7  A    between atoms: CA_12  and  C_13
REMARK    8  A    between atoms: CA_12  and  N_15
REMARK    9  A    between atoms: C_13  and  O_14
REMARK   10  A    between atoms: C_16  and  C_18
REMARK   11  A    between atoms: C_24  and  C_25
REMARK   12  A    between atoms: N_28  and  C_29
REMARK                            x       y       z     vdW  Elec       q    Type
REMARK                         _______ _______ _______ _____ _____    ______ ____
ROOT
ATOM      1  CA  UNL     1       0.070  10.731  18.706  0.00  0.00    +0.000 C 
ENDROOT
BRANCH   1   5
ATOM      2  C   UNL     1       2.476   7.125  19.288  0.00  0.00    +0.000 A 
ATOM      3  C   UNL     1       2.443   7.777  18.053  0.00  0.00    +0.000 A 
ATOM      4  C   UNL     1       1.720   8.973  17.894  0.00  0.00    +0.000 A 
ATOM      5  C   UNL     1       0.997   9.538  18.959  0.00  0.00    +0.000 A 
ATOM      6  C   UNL     1       1.072   8.899  20.207  0.00  0.00    +0.000 A 
ATOM      7  C   UNL     1       1.793   7.703  20.366  0.00  0.00    +0.000 A 
BRANCH   2   8
ATOM      8  S   UNL     1       3.263   5.495  19.476  0.00  0.00    +0.000 S 
ATOM      9  O   UNL     1       3.917   5.156  18.087  0.00  0.00    +0.000 OA
BRANCH   8  10
ATOM     10  C   UNL     1       1.787   4.469  19.659  0.00  0.00    +0.000 C 
BRANCH  10  11
ATOM     11  C   UNL     1       1.498   3.736  18.380  0.00  0.00    +0.000 C 
ATOM     12  O   UNL     1       1.172   4.270  17.324  0.00  0.00    +0.000 OA
BRANCH  11  14
ATOM     13  C   UNL     1       2.931   1.914  17.991  0.00  0.00    +0.000 C 
ATOM     14  O   UNL     1       1.706   2.397  18.540  0.00  0.00    +0.000 OA
ENDBRANCH  11  14
ENDBRANCH  10  11
ENDBRANCH   8  10
ENDBRANCH   2   8
ENDBRANCH   1   5
BRANCH   1  15
ATOM     15  N   UNL     1      -0.254  11.456  19.939  0.00  0.00    +0.000 N 
ATOM     16  C   UNL     1      -0.658  12.789  19.942  0.00  0.00    +0.000 C 
ATOM     17  O   UNL     1      -0.766  13.434  18.908  0.00  0.00    +0.000 OA
ATOM     18  H   UNL     1      -0.357  10.922  20.791  0.00  0.00    +0.000 HD
BRANCH  16  19
ATOM     19  C   UNL     1      -1.018  13.302  21.245  0.00  0.00    +0.000 A 
ATOM     20  C   UNL     1      -2.094  12.946  22.041  0.00  0.00    +0.000 A 
ATOM     21  C   UNL     1      -2.114  13.765  23.199  0.00  0.00    +0.000 A 
ATOM     22  C   UNL     1      -2.951  13.868  24.325  0.00  0.00    +0.000 A 
ATOM     23 CL   UNL     1      -4.161  12.674  24.494  0.00  0.00    +0.000 Cl
ATOM     24  C   UNL     1      -2.805  14.903  25.242  0.00  0.00    +0.000 A 
ATOM     25  C   UNL     1      -1.807  15.862  25.057  0.00  0.00    +0.000 A 
ATOM     26  C   UNL     1      -1.776  17.063  25.962  0.00  0.00    +0.000 C 
ATOM     27  C   UNL     1      -0.881  15.724  23.998  0.00  0.00    +0.000 A 
ATOM     28  C   UNL     1      -1.044  14.653  23.089  0.00  0.00    +0.000 A 
ATOM     29  N   UNL     1      -0.286  14.204  22.017  0.00  0.00    +0.000 N 
ATOM     30  C   UNL     1       1.111  14.529  21.787  0.00  0.00    +0.000 C 
ENDBRANCH  16  19
ENDBRANCH   1  15
BRANCH   1  31
ATOM     31  C   UNL     1      -1.203  10.253  17.950  0.00  0.00    +0.000 C 
BRANCH  31  32
ATOM     32  O   UNL     1      -1.681  11.179  16.979  0.00  0.00    +0.000 OA
ATOM     33  H   UNL     1      -2.284  11.792  17.435  0.00  0.00    +0.000 HD
ENDBRANCH  31  32
ENDBRANCH   1  31
TORSDOF 9
ENDMDL
MODEL 4
REMARK VINA RESULT:      -7.9      4.080      6.819
REMARK  Name = 
REMARK  12 active torsions:
REMARK  status: ('A' for Active; 'I' for Inactive)
REMARK    1  A    between atoms: C_1  and  O_2
REMARK    2  A    between atoms: O_2  and  C_3
REMARK    3  A    between atoms: C_3  and  C_5
REMARK    4  A    between atoms: C_5  and  S_6
REMARK    5  A    between atoms: S_6  and  C_8
REMARK    6  A    between atoms: C_11  and  CA_12
REMARK    7  A    between atoms: CA_12  and  C_13
REMARK    8  A    between atoms: CA_12  and  N_15
REMARK    9  A    between atoms: C_13  and  O_14
REMARK   10  A    between atoms: C_16  and  C_18
REMARK   11  A    between atoms: C_24  and  C_25
REMARK   12  A    between atoms: N_28  and  C_29
REMARK                            x       y       z     vdW  Elec       q    Type
REMARK                         _______ _______ _______ _____ _____    ______ ____
ROOT
ATOM      1  CA  UNL     1       0.062  10.698  18.768  0.00  0.00    +0.000 C 
ENDROOT
BRANCH   1   5
ATOM      2  C   UNL     1       2.514   7.121  19.338  0.00  0.00    +0.000 A 
ATOM      3  C   UNL     1       2.460   7.767  18.101  0.00  0.00    +0.000 A 
ATOM      4  C   UNL     1       1.723   8.955  17.945  0.00  0.00    +0.000 A 
ATOM      5  C   UNL     1       1.004   9.516  19.016  0.00  0.00    +0.000 A 
ATOM      6  C   UNL     1       1.100   8.883  20.265  0.00  0.00    +0.000 A 
ATOM      7  C   UNL     1       1.836   7.695  20.420  0.00  0.00    +0.000 A 
BRANCH   2   8
ATOM      8  S   UNL     1       3.321   5.500  19.523  0.00  0.00    +0.000 S 
ATOM      9  O   UNL     1       3.302   4.830  18.101  0.00  0.00    +0.000 OA
BRANCH   8  10
ATOM     10  C   UNL     1       2.086   4.666  20.545  0.00  0.00    +0.000 C 
BRANCH  10  11
ATOM     11  C   UNL     1       2.322   3.183  20.543  0.00  0.00    +0.000 C 
ATOM     12  O   UNL     1       3.380   2.641  20.849  0.00  0.00    +0.000 OA
BRANCH  11  14
ATOM     13  C   UNL     1       0.951   2.381  18.811  0.00  0.00    +0.000 C 
ATOM     14  O   UNL     1       1.177   2.517  20.212  0.00  0.00    +0.000 OA
ENDBRANCH  11  14
ENDBRANCH  10  11
ENDBRANCH   8  10
ENDBRANCH   2   8
ENDBRANCH   1   5
BRANCH   1  15
ATOM     15  N   UNL     1      -0.250  11.429  20.001  0.00  0.00    +0.000 N 
ATOM     16  C   UNL     1      -0.715  12.742  19.998  0.00  0.00    +0.000 C 
ATOM     17  O   UNL     1      -0.890  13.363  18.958  0.00  0.00    +0.000 OA
ATOM     18  H   UNL     1      -0.298  10.906  20.865  0.00  0.00    +0.000 HD
BRANCH  16  19
ATOM     19  C   UNL     1      -1.050  13.260  21.305  0.00  0.00    +0.000 A 
ATOM     20  C   UNL     1      -2.122  12.920  22.115  0.00  0.00    +0.000 A 
ATOM     21  C   UNL     1      -2.115  13.741  23.273  0.00  0.00    +0.000 A 
ATOM     22  C   UNL     1      -2.936  13.856  24.409  0.00  0.00    +0.000 A 
ATOM     23 CL   UNL     1      -4.161  12.680  24.594  0.00  0.00    +0.000 Cl
ATOM     24  C   UNL     1      -2.764  14.889  25.324  0.00  0.00    +0.000 A 
ATOM     25  C   UNL     1      -1.754  15.833  25.126  0.00  0.00    +0.000 A 
ATOM     26  C   UNL     1      -1.694  17.034  26.030  0.00  0.00    +0.000 C 
ATOM     27  C   UNL     1      -0.844  15.682  24.055  0.00  0.00    +0.000 A 
ATOM     28  C   UNL     1      -1.033  14.612  23.149  0.00  0.00    +0.000 A 
ATOM     29  N   UNL     1      -0.296  14.152  22.067  0.00  0.00    +0.000 N 
ATOM     30  C   UNL     1       1.103  14.456  21.820  0.00  0.00    +0.000 C 
ENDBRANCH  16  19
ENDBRANCH   1  15
BRANCH   1  31
ATOM     31  C   UNL     1      -1.217  10.201  18.035  0.00  0.00    +0.000 C 
BRANCH  31  32
ATOM     32  O   UNL     1      -1.636  11.045  16.967  0.00  0.00    +0.000 OA
ATOM     33  H   UNL     1      -2.002  11.855  17.362  0.00  0.00    +0.000 HD
ENDBRANCH  31  32
ENDBRANCH   1  31
TORSDOF 9
ENDMDL
MODEL 5
REMARK VINA RESULT:      -7.9      3.552      5.002
REMARK  Name = 
REMARK  12 active torsions:
REMARK  status: ('A' for Active; 'I' for Inactive)
REMARK    1  A    between atoms: C_1  and  O_2
REMARK    2  A    between atoms: O_2  and  C_3
REMARK    3  A    between atoms: C_3  and  C_5
REMARK    4  A    between atoms: C_5  and  S_6
REMARK    5  A    between atoms: S_6  and  C_8
REMARK    6  A    between atoms: C_11  and  CA_12
REMARK    7  A    between atoms: CA_12  and  C_13
REMARK    8  A    between atoms: CA_12  and  N_15
REMARK    9  A    between atoms: C_13  and  O_14
REMARK   10  A    between atoms: C_16  and  C_18
REMARK   11  A    between atoms: C_24  and  C_25
REMARK   12  A    between atoms: N_28  and  C_29
REMARK                            x       y       z     vdW  Elec       q    Type
REMARK                         _______ _______ _______ _____ _____    ______ ____
ROOT
ATOM      1  CA  UNL     1       1.020   8.624  19.967  0.00  0.00    +0.000 C 
ENDROOT
BRANCH   1   5
ATOM      2  C   UNL     1       3.902   5.699  18.461  0.00  0.00    +0.000 A 
ATOM      3  C   UNL     1       3.651   6.885  17.767  0.00  0.00    +0.000 A 
ATOM      4  C   UNL     1       2.773   7.850  18.293  0.00  0.00    +0.000 A 
ATOM      5  C   UNL     1       2.109   7.645  19.516  0.00  0.00    +0.000 A 
ATOM      6  C   UNL     1       2.402   6.471  20.226  0.00  0.00    +0.000 A 
ATOM      7  C   UNL     1       3.278   5.505  19.699  0.00  0.00    +0.000 A 
BRANCH   2   8
ATOM      8  S   UNL     1       4.900   4.367  17.725  0.00  0.00    +0.000 S 
ATOM      9  O   UNL     1       6.086   4.099  18.722  0.00  0.00    +0.000 OA
BRANCH   8  10
ATOM     10  C   UNL     1       5.568   5.248  16.295  0.00  0.00    +0.000 C 
BRANCH  10  11
ATOM     11  C   UNL     1       7.061   5.362  16.401  0.00  0.00    +0.000 C 
ATOM     12  O   UNL     1       7.843   4.418  16.327  0.00  0.00    +0.000 OA
BRANCH  11  14
ATOM     13  C   UNL     1       7.643   7.097  17.877  0.00  0.00    +0.000 C 
ATOM     14  O   UNL     1       7.434   6.668  16.533  0.00  0.00    +0.000 OA
ENDBRANCH  11  14
ENDBRANCH  10  11
ENDBRANCH   8  10
ENDBRANCH   2   8
ENDBRANCH   1   5
BRANCH   1  15
ATOM     15  N   UNL     1       1.386  10.021  19.709  0.00  0.00    +0.000 N 
ATOM     16  C   UNL     1       0.783  10.784  18.712  0.00  0.00    +0.000 C 
ATOM     17  O   UNL     1      -0.094  10.326  17.991  0.00  0.00    +0.000 OA
ATOM     18  H   UNL     1       1.965  10.494  20.390  0.00  0.00    +0.000 HD
BRANCH  16  19
ATOM     19  C   UNL     1       1.214  12.162  18.670  0.00  0.00    +0.000 A 
ATOM     20  C   UNL     1       2.472  12.660  18.368  0.00  0.00    +0.000 A 
ATOM     21  C   UNL     1       2.473  14.069  18.534  0.00  0.00    +0.000 A 
ATOM     22  C   UNL     1       3.437  15.082  18.386  0.00  0.00    +0.000 A 
ATOM     23 CL   UNL     1       4.938  14.621  17.714  0.00  0.00    +0.000 Cl
ATOM     24  C   UNL     1       3.179  16.389  18.785  0.00  0.00    +0.000 A 
ATOM     25  C   UNL     1       1.939  16.717  19.338  0.00  0.00    +0.000 A 
ATOM     26  C   UNL     1       1.742  18.090  19.918  0.00  0.00    +0.000 C 
ATOM     27  C   UNL     1       0.913  15.747  19.398  0.00  0.00    +0.000 A 
ATOM     28  C   UNL     1       1.198  14.429  18.970  0.00  0.00    +0.000 A 
ATOM     29  N   UNL     1       0.414  13.293  18.832  0.00  0.00    +0.000 N 
ATOM     30  C   UNL     1      -1.037  13.284  18.748  0.00  0.00    +0.000 C 
ENDBRANCH  16  19
ENDBRANCH   1  15
BRANCH   1  31
ATOM     31  C   UNL     1       0.675   8.369  21.462  0.00  0.00    +0.000 C 
BRANCH  31  32
ATOM     32  O   UNL     1      -0.709   8.143  21.706  0.00  0.00    +0.000 OA
ATOM     33  H   UNL     1      -0.894   8.423  22.619  0.00  0.00    +0.000 HD
ENDBRANCH  31  32
ENDBRANCH   1  31
TORSDOF 9
ENDMDL
MODEL 6
REMARK VINA RESULT:      -7.9      5.258     10.526
REMARK  Name = 
REMARK  12 active torsions:
REMARK  status: ('A' for Active; 'I' for Inactive)
REMARK    1  A    between atoms: C_1  and  O_2
REMARK    2  A    between atoms: O_2  and  C_3
REMARK    3  A    between atoms: C_3  and  C_5
REMARK    4  A    between atoms: C_5  and  S_6
REMARK    5  A    between atoms: S_6  and  C_8
REMARK    6  A    between atoms: C_11  and  CA_12
REMARK    7  A    between atoms: CA_12  and  C_13
REMARK    8  A    between atoms: CA_12  and  N_15
REMARK    9  A    between atoms: C_13  and  O_14
REMARK   10  A    between atoms: C_16  and  C_18
REMARK   11  A    between atoms: C_24  and  C_25
REMARK   12  A    between atoms: N_28  and  C_29
REMARK                            x       y       z     vdW  Elec       q    Type
REMARK                         _______ _______ _______ _____ _____    ______ ____
ROOT
ATOM      1  CA  UNL     1       0.559  10.779  19.841  0.00  0.00    +0.000 C 
ENDROOT
BRANCH   1   5
ATOM      2  C   UNL     1      -3.521  11.244  18.335  0.00  0.00    +0.000 A 
ATOM      3  C   UNL     1      -2.964  12.183  19.205  0.00  0.00    +0.000 A 
ATOM      4  C   UNL     1      -1.629  12.061  19.631  0.00  0.00    +0.000 A 
ATOM      5  C   UNL     1      -0.824  10.987  19.213  0.00  0.00    +0.000 A 
ATOM      6  C   UNL     1      -1.379  10.073  18.303  0.00  0.00    +0.000 A 
ATOM      7  C   UNL     1      -2.714  10.195  17.880  0.00  0.00    +0.000 A 
BRANCH   2   8
ATOM      8  S   UNL     1      -5.289  11.288  17.903  0.00  0.00    +0.000 S 
ATOM      9  O   UNL     1      -5.407  12.167  16.605  0.00  0.00    +0.000 OA
BRANCH   8  10
ATOM     10  C   UNL     1      -5.912  12.264  19.291  0.00  0.00    +0.000 C 
BRANCH  10  11
ATOM     11  C   UNL     1      -6.582  11.373  20.298  0.00  0.00    +0.000 C 
ATOM     12  O   UNL     1      -7.280  10.402  20.019  0.00  0.00    +0.000 OA
BRANCH  11  14
ATOM     13  C   UNL     1      -7.256  12.531  22.228  0.00  0.00    +0.000 C 
ATOM     14  O   UNL     1      -6.258  11.757  21.566  0.00  0.00    +0.000 OA
ENDBRANCH  11  14
ENDBRANCH  10  11
ENDBRANCH   8  10
ENDBRANCH   2   8
ENDBRANCH   1   5
BRANCH   1  15
ATOM     15  N   UNL     1       1.136   9.475  19.495  0.00  0.00    +0.000 N 
ATOM     16  C   UNL     1       1.991   9.297  18.410  0.00  0.00    +0.000 C 
ATOM     17  O   UNL     1       2.309  10.226  17.680  0.00  0.00    +0.000 OA
ATOM     18  H   UNL     1       1.051   8.724  20.167  0.00  0.00    +0.000 HD
BRANCH  16  19
ATOM     19  C   UNL     1       2.526   7.961  18.283  0.00  0.00    +0.000 A 
ATOM     20  C   UNL     1       3.426   7.482  17.344  0.00  0.00    +0.000 A 
ATOM     21  C   UNL     1       3.607   6.088  17.535  0.00  0.00    +0.000 A 
ATOM     22  C   UNL     1       4.370   5.092  16.899  0.00  0.00    +0.000 A 
ATOM     23 CL   UNL     1       5.473   5.617  15.705  0.00  0.00    +0.000 Cl
ATOM     24  C   UNL     1       4.215   3.748  17.217  0.00  0.00    +0.000 A 
ATOM     25  C   UNL     1       3.292   3.365  18.194  0.00  0.00    +0.000 A 
ATOM     26  C   UNL     1       3.019   1.901  18.402  0.00  0.00    +0.000 C 
ATOM     27  C   UNL     1       2.592   4.349  18.929  0.00  0.00    +0.000 A 
ATOM     28  C   UNL     1       2.780   5.710  18.594  0.00  0.00    +0.000 A 
ATOM     29  N   UNL     1       2.315   6.891  19.153  0.00  0.00    +0.000 N 
ATOM     30  C   UNL     1       1.789   7.027  20.501  0.00  0.00    +0.000 C 
ENDBRANCH  16  19
ENDBRANCH   1  15
BRANCH   1  31
ATOM     31  C   UNL     1       0.471  10.998  21.379  0.00  0.00    +0.000 C 
BRANCH  31  32
ATOM     32  O   UNL     1       0.843  12.307  21.797  0.00  0.00    +0.000 OA
ATOM     33  H   UNL     1       1.788  12.420  21.594  0.00  0.00    +0.000 HD
ENDBRANCH  31  32
ENDBRANCH   1  31
TORSDOF 9
ENDMDL
MODEL 7
REMARK VINA RESULT:      -7.8      5.750     10.818
REMARK  Name = 
REMARK  12 active torsions:
REMARK  status: ('A' for Active; 'I' for Inactive)
REMARK    1  A    between atoms: C_1  and  O_2
REMARK    2  A    between atoms: O_2  and  C_3
REMARK    3  A    between atoms: C_3  and  C_5
REMARK    4  A    between atoms: C_5  and  S_6
REMARK    5  A    between atoms: S_6  and  C_8
REMARK    6  A    between atoms: C_11  and  CA_12
REMARK    7  A    between atoms: CA_12  and  C_13
REMARK    8  A    between atoms: CA_12  and  N_15
REMARK    9  A    between atoms: C_13  and  O_14
REMARK   10  A    between atoms: C_16  and  C_18
REMARK   11  A    between atoms: C_24  and  C_25
REMARK   12  A    between atoms: N_28  and  C_29
REMARK                            x       y       z     vdW  Elec       q    Type
REMARK                         _______ _______ _______ _____ _____    ______ ____
ROOT
ATOM      1  CA  UNL     1       0.075  11.499  18.555  0.00  0.00    +0.000 C 
ENDROOT
BRANCH   1   5
ATOM      2  C   UNL     1      -4.238  12.146  18.887  0.00  0.00    +0.000 A 
ATOM      3  C   UNL     1      -3.691  11.494  17.779  0.00  0.00    +0.000 A 
ATOM      4  C   UNL     1      -2.311  11.230  17.713  0.00  0.00    +0.000 A 
ATOM      5  C   UNL     1      -1.440  11.630  18.742  0.00  0.00    +0.000 A 
ATOM      6  C   UNL     1      -2.005  12.245  19.870  0.00  0.00    +0.000 A 
ATOM      7  C   UNL     1      -3.385  12.509  19.936  0.00  0.00    +0.000 A 
BRANCH   2   8
ATOM      8  S   UNL     1      -5.988  12.644  18.921  0.00  0.00    +0.000 S 
ATOM      9  O   UNL     1      -6.803  11.375  19.365  0.00  0.00    +0.000 OA
BRANCH   8  10
ATOM     10  C   UNL     1      -6.264  12.887  17.151  0.00  0.00    +0.000 C 
BRANCH  10  11
ATOM     11  C   UNL     1      -6.974  14.188  16.907  0.00  0.00    +0.000 C 
ATOM     12  O   UNL     1      -6.787  14.916  15.936  0.00  0.00    +0.000 OA
BRANCH  11  14
ATOM     13  C   UNL     1      -7.888  15.744  18.413  0.00  0.00    +0.000 C 
ATOM     14  O   UNL     1      -7.898  14.420  17.883  0.00  0.00    +0.000 OA
ENDBRANCH  11  14
ENDBRANCH  10  11
ENDBRANCH   8  10
ENDBRANCH   2   8
ENDBRANCH   1   5
BRANCH   1  15
ATOM     15  N   UNL     1       0.551  10.135  18.805  0.00  0.00    +0.000 N 
ATOM     16  C   UNL     1       1.710   9.626  18.225  0.00  0.00    +0.000 C 
ATOM     17  O   UNL     1       2.401  10.295  17.467  0.00  0.00    +0.000 OA
ATOM     18  H   UNL     1       0.123   9.612  19.557  0.00  0.00    +0.000 HD
BRANCH  16  19
ATOM     19  C   UNL     1       2.063   8.294  18.661  0.00  0.00    +0.000 A 
ATOM     20  C   UNL     1       2.768   7.322  17.968  0.00  0.00    +0.000 A 
ATOM     21  C   UNL     1       2.807   6.132  18.740  0.00  0.00    +0.000 A 
ATOM     22  C   UNL     1       3.356   4.850  18.554  0.00  0.00    +0.000 A 
ATOM     23 CL   UNL     1       4.346   4.631  17.179  0.00  0.00    +0.000 Cl
ATOM     24  C   UNL     1       3.088   3.813  19.440  0.00  0.00    +0.000 A 
ATOM     25  C   UNL     1       2.264   4.037  20.546  0.00  0.00    +0.000 A 
ATOM     26  C   UNL     1       1.850   2.866  21.394  0.00  0.00    +0.000 C 
ATOM     27  C   UNL     1       1.788   5.339  20.820  0.00  0.00    +0.000 A 
ATOM     28  C   UNL     1       2.089   6.379  19.910  0.00  0.00    +0.000 A 
ATOM     29  N   UNL     1       1.845   7.744  19.924  0.00  0.00    +0.000 N 
ATOM     30  C   UNL     1       1.522   8.523  21.108  0.00  0.00    +0.000 C 
ENDBRANCH  16  19
ENDBRANCH   1  15
BRANCH   1  31
ATOM     31  C   UNL     1       0.803  12.551  19.440  0.00  0.00    +0.000 C 
BRANCH  31  32
ATOM     32  O   UNL     1       1.318  12.024  20.658  0.00  0.00    +0.000 OA
ATOM     33  H   UNL     1       2.240  12.322  20.737  0.00  0.00    +0.000 HD
ENDBRANCH  31  32
ENDBRANCH   1  31
TORSDOF 9
ENDMDL
MODEL 8
REMARK VINA RESULT:      -7.7      4.327      7.393
REMARK  Name = 
REMARK  12 active torsions:
REMARK  status: ('A' for Active; 'I' for Inactive)
REMARK    1  A    between atoms: C_1  and  O_2
REMARK    2  A    between atoms: O_2  and  C_3
REMARK    3  A    between atoms: C_3  and  C_5
REMARK    4  A    between atoms: C_5  and  S_6
REMARK    5  A    between atoms: S_6  and  C_8
REMARK    6  A    between atoms: C_11  and  CA_12
REMARK    7  A    between atoms: CA_12  and  C_13
REMARK    8  A    between atoms: CA_12  and  N_15
REMARK    9  A    between atoms: C_13  and  O_14
REMARK   10  A    between atoms: C_16  and  C_18
REMARK   11  A    between atoms: C_24  and  C_25
REMARK   12  A    between atoms: N_28  and  C_29
REMARK                            x       y       z     vdW  Elec       q    Type
REMARK                         _______ _______ _______ _____ _____    ______ ____
ROOT
ATOM      1  CA  UNL     1       0.659  11.381  19.649  0.00  0.00    +0.000 C 
ENDROOT
BRANCH   1   5
ATOM      2  C   UNL     1       2.146   7.269  19.522  0.00  0.00    +0.000 A 
ATOM      3  C   UNL     1       1.537   7.779  20.671  0.00  0.00    +0.000 A 
ATOM      4  C   UNL     1       1.002   9.080  20.681  0.00  0.00    +0.000 A 
ATOM      5  C   UNL     1       1.079   9.910  19.548  0.00  0.00    +0.000 A 
ATOM      6  C   UNL     1       1.652   9.373  18.386  0.00  0.00    +0.000 A 
ATOM      7  C   UNL     1       2.189   8.073  18.377  0.00  0.00    +0.000 A 
BRANCH   2   8
ATOM      8  S   UNL     1       2.990   5.657  19.537  0.00  0.00    +0.000 S 
ATOM      9  O   UNL     1       3.140   5.221  18.034  0.00  0.00    +0.000 OA
BRANCH   8  10
ATOM     10  C   UNL     1       1.690   4.645  20.280  0.00  0.00    +0.000 C 
BRANCH  10  11
ATOM     11  C   UNL     1       2.288   3.467  20.995  0.00  0.00    +0.000 C 
ATOM     12  O   UNL     1       2.172   3.244  22.196  0.00  0.00    +0.000 OA
BRANCH  11  14
ATOM     13  C   UNL     1       2.081   2.025  19.150  0.00  0.00    +0.000 C 
ATOM     14  O   UNL     1       2.930   2.648  20.112  0.00  0.00    +0.000 OA
ENDBRANCH  11  14
ENDBRANCH  10  11
ENDBRANCH   8  10
ENDBRANCH   2   8
ENDBRANCH   1   5
BRANCH   1  15
ATOM     15  N   UNL     1      -0.705  11.536  20.166  0.00  0.00    +0.000 N 
ATOM     16  C   UNL     1      -1.160  12.721  20.740  0.00  0.00    +0.000 C 
ATOM     17  O   UNL     1      -0.441  13.705  20.845  0.00  0.00    +0.000 OA
ATOM     18  H   UNL     1      -1.384  10.822  19.938  0.00  0.00    +0.000 HD
BRANCH  16  19
ATOM     19  C   UNL     1      -2.557  12.708  21.109  0.00  0.00    +0.000 A 
ATOM     20  C   UNL     1      -3.665  12.824  20.284  0.00  0.00    +0.000 A 
ATOM     21  C   UNL     1      -4.841  12.852  21.077  0.00  0.00    +0.000 A 
ATOM     22  C   UNL     1      -6.216  12.962  20.804  0.00  0.00    +0.000 A 
ATOM     23 CL   UNL     1      -6.680  12.905  19.160  0.00  0.00    +0.000 Cl
ATOM     24  C   UNL     1      -7.145  13.126  21.825  0.00  0.00    +0.000 A 
ATOM     25  C   UNL     1      -6.718  13.176  23.154  0.00  0.00    +0.000 A 
ATOM     26  C   UNL     1      -7.715  13.523  24.225  0.00  0.00    +0.000 C 
ATOM     27  C   UNL     1      -5.357  12.958  23.468  0.00  0.00    +0.000 A 
ATOM     28  C   UNL     1      -4.436  12.778  22.410  0.00  0.00    +0.000 A 
ATOM     29  N   UNL     1      -3.082  12.477  22.380  0.00  0.00    +0.000 N 
ATOM     30  C   UNL     1      -2.333  11.889  23.477  0.00  0.00    +0.000 C 
ENDBRANCH  16  19
ENDBRANCH   1  15
BRANCH   1  31
ATOM     31  C   UNL     1       0.852  12.074  18.270  0.00  0.00    +0.000 C 
BRANCH  31  32
ATOM     32  O   UNL     1       1.364  13.400  18.357  0.00  0.00    +0.000 OA
ATOM     33  H   UNL     1       1.883  13.565  17.551  0.00  0.00    +0.000 HD
ENDBRANCH  31  32
ENDBRANCH   1  31
TORSDOF 9
ENDMDL
MODEL 9
REMARK VINA RESULT:      -7.7      5.333     11.073
REMARK  Name = 
REMARK  12 active torsions:
REMARK  status: ('A' for Active; 'I' for Inactive)
REMARK    1  A    between atoms: C_1  and  O_2
REMARK    2  A    between atoms: O_2  and  C_3
REMARK    3  A    between atoms: C_3  and  C_5
REMARK    4  A    between atoms: C_5  and  S_6
REMARK    5  A    between atoms: S_6  and  C_8
REMARK    6  A    between atoms: C_11  and  CA_12
REMARK    7  A    between atoms: CA_12  and  C_13
REMARK    8  A    between atoms: CA_12  and  N_15
REMARK    9  A    between atoms: C_13  and  O_14
REMARK   10  A    between atoms: C_16  and  C_18
REMARK   11  A    between atoms: C_24  and  C_25
REMARK   12  A    between atoms: N_28  and  C_29
REMARK                            x       y       z     vdW  Elec       q    Type
REMARK                         _______ _______ _______ _____ _____    ______ ____
ROOT
ATOM      1  CA  UNL     1       0.780  11.859  18.772  0.00  0.00    +0.000 C 
ENDROOT
BRANCH   1   5
ATOM      2  C   UNL     1      -2.053  12.689  22.000  0.00  0.00    +0.000 A 
ATOM      3  C   UNL     1      -2.434  12.802  20.661  0.00  0.00    +0.000 A 
ATOM      4  C   UNL     1      -1.537  12.468  19.630  0.00  0.00    +0.000 A 
ATOM      5  C   UNL     1      -0.230  12.032  19.912  0.00  0.00    +0.000 A 
ATOM      6  C   UNL     1       0.129  11.880  21.260  0.00  0.00    +0.000 A 
ATOM      7  C   UNL     1      -0.768  12.215  22.290  0.00  0.00    +0.000 A 
BRANCH   2   8
ATOM      8  S   UNL     1      -3.135  13.271  23.342  0.00  0.00    +0.000 S 
ATOM      9  O   UNL     1      -3.778  11.987  23.982  0.00  0.00    +0.000 OA
BRANCH   8  10
ATOM     10  C   UNL     1      -4.409  14.098  22.362  0.00  0.00    +0.000 C 
BRANCH  10  11
ATOM     11  C   UNL     1      -5.652  13.257  22.304  0.00  0.00    +0.000 C 
ATOM     12  O   UNL     1      -5.714  12.130  21.821  0.00  0.00    +0.000 OA
BRANCH  11  14
ATOM     13  C   UNL     1      -6.310  14.972  23.771  0.00  0.00    +0.000 C 
ATOM     14  O   UNL     1      -6.691  13.897  22.916  0.00  0.00    +0.000 OA
ENDBRANCH  11  14
ENDBRANCH  10  11
ENDBRANCH   8  10
ENDBRANCH   2   8
ENDBRANCH   1   5
BRANCH   1  15
ATOM     15  N   UNL     1       1.522  10.598  18.873  0.00  0.00    +0.000 N 
ATOM     16  C   UNL     1       1.101   9.428  18.245  0.00  0.00    +0.000 C 
ATOM     17  O   UNL     1       0.081   9.388  17.570  0.00  0.00    +0.000 OA
ATOM     18  H   UNL     1       2.455  10.624  19.261  0.00  0.00    +0.000 HD
BRANCH  16  19
ATOM     19  C   UNL     1       2.009   8.312  18.388  0.00  0.00    +0.000 A 
ATOM     20  C   UNL     1       3.019   7.912  17.528  0.00  0.00    +0.000 A 
ATOM     21  C   UNL     1       3.603   6.713  18.015  0.00  0.00    +0.000 A 
ATOM     22  C   UNL     1       4.632   5.863  17.572  0.00  0.00    +0.000 A 
ATOM     23 CL   UNL     1       5.542   6.394  16.228  0.00  0.00    +0.000 Cl
ATOM     24  C   UNL     1       4.878   4.643  18.191  0.00  0.00    +0.000 A 
ATOM     25  C   UNL     1       4.101   4.246  19.282  0.00  0.00    +0.000 A 
ATOM     26  C   UNL     1       4.271   2.855  19.828  0.00  0.00    +0.000 C 
ATOM     27  C   UNL     1       3.134   5.126  19.819  0.00  0.00    +0.000 A 
ATOM     28  C   UNL     1       2.915   6.367  19.178  0.00  0.00    +0.000 A 
ATOM     29  N   UNL     1       2.116   7.459  19.486  0.00  0.00    +0.000 N 
ATOM     30  C   UNL     1       1.561   7.744  20.798  0.00  0.00    +0.000 C 
ENDBRANCH  16  19
ENDBRANCH   1  15
BRANCH   1  31
ATOM     31  C   UNL     1       1.722  13.097  18.718  0.00  0.00    +0.000 C 
BRANCH  31  32
ATOM     32  O   UNL     1       2.449  13.216  17.500  0.00  0.00    +0.000 OA
ATOM     33  H   UNL     1       2.853  12.350  17.316  0.00  0.00    +0.000 HD
ENDBRANCH  31  32
ENDBRANCH   1  31
TORSDOF 9
ENDMDL
