MODEL 1
REMARK VINA RESULT:      -6.9      0.000      0.000
REMARK  Name = 
REMARK  4 active torsions:
REMARK  status: ('A' for Active; 'I' for Inactive)
REMARK    1  A    between atoms: C_1  and  O_2
REMARK    2  A    between atoms: O_2  and  C_3
REMARK    3  A    between atoms: C_6  and  C_7
REMARK    4  A    between atoms: C_7  and  N_8
REMARK                            x       y       z     vdW  Elec       q    Type
REMARK                         _______ _______ _______ _____ _____    ______ ____
ROOT
ATOM      1  N   UNL     1       4.881   3.075  17.410  0.00  0.00    +0.000 N 
ATOM      2  C   UNL     1       3.652   3.350  17.972  0.00  0.00    +0.000 A 
ATOM      3  N   UNL     1       2.727   4.000  17.297  0.00  0.00    +0.000 NA
ATOM      4  C   UNL     1       1.501   4.240  17.892  0.00  0.00    +0.000 A 
ATOM      5  C   UNL     1       1.182   3.869  19.145  0.00  0.00    +0.000 A 
ATOM      6  N   UNL     1       2.140   3.206  19.880  0.00  0.00    +0.000 N 
ATOM      7  C   UNL     1       2.154   2.722  21.160  0.00  0.00    +0.000 A 
ATOM      8  C   UNL     1       3.415   2.183  21.324  0.00  0.00    +0.000 A 
ATOM      9  N   UNL     1       4.170   2.321  20.184  0.00  0.00    +0.000 NA
ATOM     10  C   UNL     1       3.364   2.930  19.337  0.00  0.00    +0.000 A 
ATOM     11  H   UNL     1       5.550   2.701  18.079  0.00  0.00    +0.000 HD
ENDROOT
BRANCH   1  12
ATOM     12  C   UNL     1       5.451   3.927  16.394  0.00  0.00    +0.000 C 
BRANCH  12  16
ATOM     13  C   UNL     1       7.842   7.029  18.238  0.00  0.00    +0.000 A 
ATOM     14  C   UNL     1       7.037   7.315  17.135  0.00  0.00    +0.000 A 
ATOM     15  C   UNL     1       6.266   6.314  16.538  0.00  0.00    +0.000 A 
ATOM     16  C   UNL     1       6.295   5.005  17.034  0.00  0.00    +0.000 A 
ATOM     17  C   UNL     1       7.138   4.714  18.117  0.00  0.00    +0.000 A 
ATOM     18  C   UNL     1       7.905   5.721  18.717  0.00  0.00    +0.000 A 
BRANCH  13  20
ATOM     19  C   UNL     1       8.318   9.343  18.096  0.00  0.00    +0.000 C 
ATOM     20  O   UNL     1       8.546   8.092  18.734  0.00  0.00    +0.000 OA
ENDBRANCH  13  20
ENDBRANCH  12  16
ENDBRANCH   1  12
TORSDOF 3
ENDMDL
MODEL 2
REMARK VINA RESULT:      -6.7      0.253      1.129
REMARK  Name = 
REMARK  4 active torsions:
REMARK  status: ('A' for Active; 'I' for Inactive)
REMARK    1  A    between atoms: C_1  and  O_2
REMARK    2  A    between atoms: O_2  and  C_3
REMARK    3  A    between atoms: C_6  and  C_7
REMARK    4  A    between atoms: C_7  and  N_8
REMARK                            x       y       z     vdW  Elec       q    Type
REMARK                         _______ _______ _______ _____ _____    ______ ____
ROOT
ATOM      1  N   UNL     1       4.821   3.029  17.227  0.00  0.00    +0.000 N 
ATOM      2  C   UNL     1       3.670   3.440  17.864  0.00  0.00    +0.000 A 
ATOM      3  N   UNL     1       2.803   4.226  17.260  0.00  0.00    +0.000 NA
ATOM      4  C   UNL     1       1.652   4.601  17.930  0.00  0.00    +0.000 A 
ATOM      5  C   UNL     1       1.353   4.231  19.188  0.00  0.00    +0.000 A 
ATOM      6  N   UNL     1       2.253   3.427  19.850  0.00  0.00    +0.000 N 
ATOM      7  C   UNL     1       2.271   2.901  21.113  0.00  0.00    +0.000 A 
ATOM      8  C   UNL     1       3.458   2.200  21.192  0.00  0.00    +0.000 A 
ATOM      9  N   UNL     1       4.164   2.279  20.015  0.00  0.00    +0.000 NA
ATOM     10  C   UNL     1       3.401   3.014  19.231  0.00  0.00    +0.000 A 
ATOM     11  H   UNL     1       5.470   2.549  17.846  0.00  0.00    +0.000 HD
ENDROOT
BRANCH   1  12
ATOM     12  C   UNL     1       5.444   3.834  16.203  0.00  0.00    +0.000 C 
BRANCH  12  16
ATOM     13  C   UNL     1       7.655   7.094  17.999  0.00  0.00    +0.000 A 
ATOM     14  C   UNL     1       7.853   5.782  18.427  0.00  0.00    +0.000 A 
ATOM     15  C   UNL     1       7.139   4.729  17.849  0.00  0.00    +0.000 A 
ATOM     16  C   UNL     1       6.207   4.976  16.834  0.00  0.00    +0.000 A 
ATOM     17  C   UNL     1       5.981   6.302  16.437  0.00  0.00    +0.000 A 
ATOM     18  C   UNL     1       6.703   7.355  17.013  0.00  0.00    +0.000 A 
BRANCH  13  20
ATOM     19  C   UNL     1       8.359   9.351  18.100  0.00  0.00    +0.000 C 
ATOM     20  O   UNL     1       8.414   8.035  18.639  0.00  0.00    +0.000 OA
ENDBRANCH  13  20
ENDBRANCH  12  16
ENDBRANCH   1  12
TORSDOF 3
ENDMDL
MODEL 3
REMARK VINA RESULT:      -6.5      3.576      5.814
REMARK  Name = 
REMARK  4 active torsions:
REMARK  status: ('A' for Active; 'I' for Inactive)
REMARK    1  A    between atoms: C_1  and  O_2
REMARK    2  A    between atoms: O_2  and  C_3
REMARK    3  A    between atoms: C_6  and  C_7
REMARK    4  A    between atoms: C_7  and  N_8
REMARK                            x       y       z     vdW  Elec       q    Type
REMARK                         _______ _______ _______ _____ _____    ______ ____
ROOT
ATOM      1  N   UNL     1       3.646   4.547  18.996  0.00  0.00    +0.000 N 
ATOM      2  C   UNL     1       4.972   4.767  18.688  0.00  0.00    +0.000 A 
ATOM      3  N   UNL     1       5.826   5.160  19.610  0.00  0.00    +0.000 NA
ATOM      4  C   UNL     1       7.152   5.352  19.261  0.00  0.00    +0.000 A 
ATOM      5  C   UNL     1       7.641   5.184  18.021  0.00  0.00    +0.000 A 
ATOM      6  N   UNL     1       6.764   4.794  17.033  0.00  0.00    +0.000 N 
ATOM      7  C   UNL     1       6.920   4.562  15.694  0.00  0.00    +0.000 A 
ATOM      8  C   UNL     1       5.660   4.224  15.240  0.00  0.00    +0.000 A 
ATOM      9  N   UNL     1       4.740   4.240  16.262  0.00  0.00    +0.000 NA
ATOM     10  C   UNL     1       5.445   4.575  17.324  0.00  0.00    +0.000 A 
ATOM     11  H   UNL     1       3.067   4.390  18.174  0.00  0.00    +0.000 HD
ENDROOT
BRANCH   1  12
ATOM     12  C   UNL     1       2.994   5.259  20.069  0.00  0.00    +0.000 C 
BRANCH  12  16
ATOM     13  C   UNL     1       1.536   9.083  18.660  0.00  0.00    +0.000 A 
ATOM     14  C   UNL     1       1.368   8.707  19.992  0.00  0.00    +0.000 A 
ATOM     15  C   UNL     1       1.837   7.472  20.448  0.00  0.00    +0.000 A 
ATOM     16  C   UNL     1       2.478   6.589  19.571  0.00  0.00    +0.000 A 
ATOM     17  C   UNL     1       2.607   6.954  18.223  0.00  0.00    +0.000 A 
ATOM     18  C   UNL     1       2.142   8.196  17.770  0.00  0.00    +0.000 A 
BRANCH  13  20
ATOM     19  C   UNL     1      -0.299  10.574  18.749  0.00  0.00    +0.000 C 
ATOM     20  O   UNL     1       1.037  10.315  18.335  0.00  0.00    +0.000 OA
ENDBRANCH  13  20
ENDBRANCH  12  16
ENDBRANCH   1  12
TORSDOF 3
ENDMDL
MODEL 4
REMARK VINA RESULT:      -6.5      1.467      2.114
REMARK  Name = 
REMARK  4 active torsions:
REMARK  status: ('A' for Active; 'I' for Inactive)
REMARK    1  A    between atoms: C_1  and  O_2
REMARK    2  A    between atoms: O_2  and  C_3
REMARK    3  A    between atoms: C_6  and  C_7
REMARK    4  A    between atoms: C_7  and  N_8
REMARK                            x       y       z     vdW  Elec       q    Type
REMARK                         _______ _______ _______ _____ _____    ______ ____
ROOT
ATOM      1  N   UNL     1       5.396   4.192  19.094  0.00  0.00    +0.000 N 
ATOM      2  C   UNL     1       4.184   3.582  18.847  0.00  0.00    +0.000 A 
ATOM      3  N   UNL     1       4.073   2.639  17.935  0.00  0.00    +0.000 NA
ATOM      4  C   UNL     1       2.841   2.041  17.731  0.00  0.00    +0.000 A 
ATOM      5  C   UNL     1       1.720   2.371  18.396  0.00  0.00    +0.000 A 
ATOM      6  N   UNL     1       1.805   3.370  19.340  0.00  0.00    +0.000 N 
ATOM      7  C   UNL     1       0.876   3.953  20.158  0.00  0.00    +0.000 A 
ATOM      8  C   UNL     1       1.572   4.917  20.860  0.00  0.00    +0.000 A 
ATOM      9  N   UNL     1       2.899   4.937  20.499  0.00  0.00    +0.000 NA
ATOM     10  C   UNL     1       3.000   3.986  19.592  0.00  0.00    +0.000 A 
ATOM     11  H   UNL     1       5.319   4.997  19.711  0.00  0.00    +0.000 HD
ENDROOT
BRANCH   1  12
ATOM     12  C   UNL     1       6.401   4.313  18.064  0.00  0.00    +0.000 C 
BRANCH  12  16
ATOM     13  C   UNL     1       7.917   8.364  17.900  0.00  0.00    +0.000 A 
ATOM     14  C   UNL     1       8.429   7.453  18.823  0.00  0.00    +0.000 A 
ATOM     15  C   UNL     1       7.940   6.144  18.878  0.00  0.00    +0.000 A 
ATOM     16  C   UNL     1       6.921   5.731  18.010  0.00  0.00    +0.000 A 
ATOM     17  C   UNL     1       6.381   6.664  17.113  0.00  0.00    +0.000 A 
ATOM     18  C   UNL     1       6.878   7.973  17.056  0.00  0.00    +0.000 A 
BRANCH  13  20
ATOM     19  C   UNL     1       9.131   9.959  19.157  0.00  0.00    +0.000 C 
ATOM     20  O   UNL     1       8.479   9.611  17.942  0.00  0.00    +0.000 OA
ENDBRANCH  13  20
ENDBRANCH  12  16
ENDBRANCH   1  12
TORSDOF 3
ENDMDL
MODEL 5
REMARK VINA RESULT:      -6.5      1.060      1.060
REMARK  Name = 
REMARK  4 active torsions:
REMARK  status: ('A' for Active; 'I' for Inactive)
REMARK    1  A    between atoms: C_1  and  O_2
REMARK    2  A    between atoms: O_2  and  C_3
REMARK    3  A    between atoms: C_6  and  C_7
REMARK    4  A    between atoms: C_7  and  N_8
REMARK                            x       y       z     vdW  Elec       q    Type
REMARK                         _______ _______ _______ _____ _____    ______ ____
ROOT
ATOM      1  N   UNL     1       4.067   3.510  17.330  0.00  0.00    +0.000 N 
ATOM      2  C   UNL     1       3.373   4.265  18.251  0.00  0.00    +0.000 A 
ATOM      3  N   UNL     1       2.974   5.488  17.964  0.00  0.00    +0.000 NA
ATOM      4  C   UNL     1       2.265   6.205  18.912  0.00  0.00    +0.000 A 
ATOM      5  C   UNL     1       1.962   5.746  20.139  0.00  0.00    +0.000 A 
ATOM      6  N   UNL     1       2.386   4.479  20.472  0.00  0.00    +0.000 N 
ATOM      7  C   UNL     1       2.272   3.734  21.614  0.00  0.00    +0.000 A 
ATOM      8  C   UNL     1       2.928   2.551  21.336  0.00  0.00    +0.000 A 
ATOM      9  N   UNL     1       3.435   2.549  20.058  0.00  0.00    +0.000 NA
ATOM     10  C   UNL     1       3.078   3.719  19.569  0.00  0.00    +0.000 A 
ATOM     11  H   UNL     1       4.441   2.649  17.722  0.00  0.00    +0.000 HD
ENDROOT
BRANCH   1  12
ATOM     12  C   UNL     1       4.896   4.127  16.322  0.00  0.00    +0.000 C 
BRANCH  12  16
ATOM     13  C   UNL     1       7.692   6.856  18.187  0.00  0.00    +0.000 A 
ATOM     14  C   UNL     1       6.846   7.294  17.168  0.00  0.00    +0.000 A 
ATOM     15  C   UNL     1       5.944   6.413  16.564  0.00  0.00    +0.000 A 
ATOM     16  C   UNL     1       5.880   5.074  16.969  0.00  0.00    +0.000 A 
ATOM     17  C   UNL     1       6.762   4.630  17.965  0.00  0.00    +0.000 A 
ATOM     18  C   UNL     1       7.661   5.516  18.573  0.00  0.00    +0.000 A 
BRANCH  13  20
ATOM     19  C   UNL     1       8.363   9.125  18.181  0.00  0.00    +0.000 C 
ATOM     20  O   UNL     1       8.527   7.811  18.700  0.00  0.00    +0.000 OA
ENDBRANCH  13  20
ENDBRANCH  12  16
ENDBRANCH   1  12
TORSDOF 3
ENDMDL
MODEL 6
REMARK VINA RESULT:      -6.5      3.565      5.817
REMARK  Name = 
REMARK  4 active torsions:
REMARK  status: ('A' for Active; 'I' for Inactive)
REMARK    1  A    between atoms: C_1  and  O_2
REMARK    2  A    between atoms: O_2  and  C_3
REMARK    3  A    between atoms: C_6  and  C_7
REMARK    4  A    between atoms: C_7  and  N_8
REMARK                            x       y       z     vdW  Elec       q    Type
REMARK                         _______ _______ _______ _____ _____    ______ ____
ROOT
ATOM      1  N   UNL     1       3.673   4.554  18.976  0.00  0.00    +0.000 N 
ATOM      2  C   UNL     1       5.000   4.787  18.682  0.00  0.00    +0.000 A 
ATOM      3  N   UNL     1       5.852   5.137  19.623  0.00  0.00    +0.000 NA
ATOM      4  C   UNL     1       7.179   5.345  19.287  0.00  0.00    +0.000 A 
ATOM      5  C   UNL     1       7.671   5.234  18.041  0.00  0.00    +0.000 A 
ATOM      6  N   UNL     1       6.796   4.890  17.034  0.00  0.00    +0.000 N 
ATOM      7  C   UNL     1       6.955   4.720  15.686  0.00  0.00    +0.000 A 
ATOM      8  C   UNL     1       5.696   4.404  15.214  0.00  0.00    +0.000 A 
ATOM      9  N   UNL     1       4.774   4.373  16.234  0.00  0.00    +0.000 NA
ATOM     10  C   UNL     1       5.476   4.659  17.311  0.00  0.00    +0.000 A 
ATOM     11  H   UNL     1       3.096   4.436  18.147  0.00  0.00    +0.000 HD
ENDROOT
BRANCH   1  12
ATOM     12  C   UNL     1       3.020   5.216  20.080  0.00  0.00    +0.000 C 
BRANCH  12  16
ATOM     13  C   UNL     1       1.452   9.039  18.789  0.00  0.00    +0.000 A 
ATOM     14  C   UNL     1       2.106   8.200  17.888  0.00  0.00    +0.000 A 
ATOM     15  C   UNL     1       2.614   6.966  18.304  0.00  0.00    +0.000 A 
ATOM     16  C   UNL     1       2.480   6.556  19.636  0.00  0.00    +0.000 A 
ATOM     17  C   UNL     1       1.858   7.423  20.547  0.00  0.00    +0.000 A 
ATOM     18  C   UNL     1       1.345   8.656  20.126  0.00  0.00    +0.000 A 
BRANCH  13  20
ATOM     19  C   UNL     1      -0.411  10.411  18.293  0.00  0.00    +0.000 C 
ATOM     20  O   UNL     1       0.998  10.217  18.263  0.00  0.00    +0.000 OA
ENDBRANCH  13  20
ENDBRANCH  12  16
ENDBRANCH   1  12
TORSDOF 3
ENDMDL
MODEL 7
REMARK VINA RESULT:      -6.4      5.281      6.663
REMARK  Name = 
REMARK  4 active torsions:
REMARK  status: ('A' for Active; 'I' for Inactive)
REMARK    1  A    between atoms: C_1  and  O_2
REMARK    2  A    between atoms: O_2  and  C_3
REMARK    3  A    between atoms: C_6  and  C_7
REMARK    4  A    between atoms: C_7  and  N_8
REMARK                            x       y       z     vdW  Elec       q    Type
REMARK                         _______ _______ _______ _____ _____    ______ ____
ROOT
ATOM      1  N   UNL     1       2.399   7.039  20.125  0.00  0.00    +0.000 N 
ATOM      2  C   UNL     1       2.871   5.951  19.422  0.00  0.00    +0.000 A 
ATOM      3  N   UNL     1       3.356   6.087  18.205  0.00  0.00    +0.000 NA
ATOM      4  C   UNL     1       3.836   4.971  17.542  0.00  0.00    +0.000 A 
ATOM      5  C   UNL     1       3.826   3.726  18.050  0.00  0.00    +0.000 A 
ATOM      6  N   UNL     1       3.304   3.553  19.313  0.00  0.00    +0.000 N 
ATOM      7  C   UNL     1       3.124   2.446  20.097  0.00  0.00    +0.000 A 
ATOM      8  C   UNL     1       2.526   2.918  21.248  0.00  0.00    +0.000 A 
ATOM      9  N   UNL     1       2.338   4.279  21.193  0.00  0.00    +0.000 NA
ATOM     10  C   UNL     1       2.829   4.623  20.020  0.00  0.00    +0.000 A 
ATOM     11  H   UNL     1       1.922   6.782  20.986  0.00  0.00    +0.000 HD
ENDROOT
BRANCH   1  12
ATOM     12  C   UNL     1       1.849   8.191  19.449  0.00  0.00    +0.000 C 
BRANCH  12  16
ATOM     13  C   UNL     1      -0.195  10.732  22.295  0.00  0.00    +0.000 A 
ATOM     14  C   UNL     1       0.325   9.500  22.691  0.00  0.00    +0.000 A 
ATOM     15  C   UNL     1       0.984   8.678  21.772  0.00  0.00    +0.000 A 
ATOM     16  C   UNL     1       1.126   9.076  20.438  0.00  0.00    +0.000 A 
ATOM     17  C   UNL     1       0.564  10.297  20.036  0.00  0.00    +0.000 A 
ATOM     18  C   UNL     1      -0.091  11.122  20.961  0.00  0.00    +0.000 A 
BRANCH  13  20
ATOM     19  C   UNL     1      -2.159  11.834  23.023  0.00  0.00    +0.000 C 
ATOM     20  O   UNL     1      -0.815  11.445  23.285  0.00  0.00    +0.000 OA
ENDBRANCH  13  20
ENDBRANCH  12  16
ENDBRANCH   1  12
TORSDOF 3
ENDMDL
MODEL 8
REMARK VINA RESULT:      -6.4      5.631      7.011
REMARK  Name = 
REMARK  4 active torsions:
REMARK  status: ('A' for Active; 'I' for Inactive)
REMARK    1  A    between atoms: C_1  and  O_2
REMARK    2  A    between atoms: O_2  and  C_3
REMARK    3  A    between atoms: C_6  and  C_7
REMARK    4  A    between atoms: C_7  and  N_8
REMARK                            x       y       z     vdW  Elec       q    Type
REMARK                         _______ _______ _______ _____ _____    ______ ____
ROOT
ATOM      1  N   UNL     1       2.076   7.383  20.412  0.00  0.00    +0.000 N 
ATOM      2  C   UNL     1       2.627   6.345  19.691  0.00  0.00    +0.000 A 
ATOM      3  N   UNL     1       3.160   6.550  18.505  0.00  0.00    +0.000 NA
ATOM      4  C   UNL     1       3.718   5.482  17.823  0.00  0.00    +0.000 A 
ATOM      5  C   UNL     1       3.739   4.218  18.282  0.00  0.00    +0.000 A 
ATOM      6  N   UNL     1       3.169   3.973  19.511  0.00  0.00    +0.000 N 
ATOM      7  C   UNL     1       3.001   2.829  20.243  0.00  0.00    +0.000 A 
ATOM      8  C   UNL     1       2.331   3.229  21.382  0.00  0.00    +0.000 A 
ATOM      9  N   UNL     1       2.086   4.582  21.369  0.00  0.00    +0.000 NA
ATOM     10  C   UNL     1       2.616   4.993  20.235  0.00  0.00    +0.000 A 
ATOM     11  H   UNL     1       1.572   7.071  21.238  0.00  0.00    +0.000 HD
ENDROOT
BRANCH   1  12
ATOM     12  C   UNL     1       1.509   8.537  19.755  0.00  0.00    +0.000 C 
BRANCH  12  16
ATOM     13  C   UNL     1      -0.623  10.998  22.608  0.00  0.00    +0.000 A 
ATOM     14  C   UNL     1      -0.080  11.560  21.453  0.00  0.00    +0.000 A 
ATOM     15  C   UNL     1       0.610  10.767  20.532  0.00  0.00    +0.000 A 
ATOM     16  C   UNL     1       0.772   9.395  20.758  0.00  0.00    +0.000 A 
ATOM     17  C   UNL     1       0.260   8.843  21.942  0.00  0.00    +0.000 A 
ATOM     18  C   UNL     1      -0.436   9.639  22.860  0.00  0.00    +0.000 A 
BRANCH  13  20
ATOM     19  C   UNL     1      -2.677  12.004  23.216  0.00  0.00    +0.000 C 
ATOM     20  O   UNL     1      -1.276  11.875  23.430  0.00  0.00    +0.000 OA
ENDBRANCH  13  20
ENDBRANCH  12  16
ENDBRANCH   1  12
TORSDOF 3
ENDMDL
MODEL 9
REMARK VINA RESULT:      -6.4      2.736      3.806
REMARK  Name = 
REMARK  4 active torsions:
REMARK  status: ('A' for Active; 'I' for Inactive)
REMARK    1  A    between atoms: C_1  and  O_2
REMARK    2  A    between atoms: O_2  and  C_3
REMARK    3  A    between atoms: C_6  and  C_7
REMARK    4  A    between atoms: C_7  and  N_8
REMARK                            x       y       z     vdW  Elec       q    Type
REMARK                         _______ _______ _______ _____ _____    ______ ____
ROOT
ATOM      1  N   UNL     1       5.152   3.910  18.429  0.00  0.00    +0.000 N 
ATOM      2  C   UNL     1       4.097   4.507  19.085  0.00  0.00    +0.000 A 
ATOM      3  N   UNL     1       3.743   5.747  18.813  0.00  0.00    +0.000 NA
ATOM      4  C   UNL     1       2.667   6.303  19.482  0.00  0.00    +0.000 A 
ATOM      5  C   UNL     1       1.951   5.666  20.425  0.00  0.00    +0.000 A 
ATOM      6  N   UNL     1       2.314   4.376  20.744  0.00  0.00    +0.000 N 
ATOM      7  C   UNL     1       1.827   3.474  21.650  0.00  0.00    +0.000 A 
ATOM      8  C   UNL     1       2.632   2.360  21.514  0.00  0.00    +0.000 A 
ATOM      9  N   UNL     1       3.593   2.554  20.550  0.00  0.00    +0.000 NA
ATOM     10  C   UNL     1       3.360   3.772  20.104  0.00  0.00    +0.000 A 
ATOM     11  H   UNL     1       5.414   3.012  18.830  0.00  0.00    +0.000 HD
ENDROOT
BRANCH   1  12
ATOM     12  C   UNL     1       6.254   4.686  17.912  0.00  0.00    +0.000 C 
BRANCH  12  16
ATOM     13  C   UNL     1       6.524   4.189  13.620  0.00  0.00    +0.000 A 
ATOM     14  C   UNL     1       5.513   3.559  14.345  0.00  0.00    +0.000 A 
ATOM     15  C   UNL     1       5.425   3.717  15.731  0.00  0.00    +0.000 A 
ATOM     16  C   UNL     1       6.357   4.507  16.415  0.00  0.00    +0.000 A 
ATOM     17  C   UNL     1       7.397   5.104  15.686  0.00  0.00    +0.000 A 
ATOM     18  C   UNL     1       7.479   4.948  14.296  0.00  0.00    +0.000 A 
BRANCH  13  20
ATOM     19  C   UNL     1       5.745   2.834  11.844  0.00  0.00    +0.000 C 
ATOM     20  O   UNL     1       6.503   3.959  12.272  0.00  0.00    +0.000 OA
ENDBRANCH  13  20
ENDBRANCH  12  16
ENDBRANCH   1  12
TORSDOF 3
ENDMDL
