MODEL 1
REMARK VINA RESULT:      -8.3      0.000      0.000
REMARK  Name = 
REMARK  6 active torsions:
REMARK  status: ('A' for Active; 'I' for Inactive)
REMARK    1  A    between atoms: C_1  and  C_2
REMARK    2  A    between atoms: C_2  and  N_3
REMARK    3  A    between atoms: C_4  and  C_5
REMARK    4  A    between atoms: C_5  and  N_6
REMARK    5  A    between atoms: N_9  and  C_10
REMARK    6  A    between atoms: N_27  and  C_28
REMARK                            x       y       z     vdW  Elec       q    Type
REMARK                         _______ _______ _______ _____ _____    ______ ____
ROOT
ATOM      1  N   UNL     1       2.643   4.762  20.097  0.00  0.00    +0.000 N 
ATOM      2  C   UNL     1       2.267   6.091  19.906  0.00  0.00    +0.000 A 
ATOM      3  N   UNL     1       2.955   6.582  18.859  0.00  0.00    +0.000 NA
ATOM      4  C   UNL     1       3.641   5.527  18.311  0.00  0.00    +0.000 A 
ATOM      5  C   UNL     1       3.329   4.380  18.977  0.00  0.00    +0.000 A 
ATOM      6  C   UNL     1       3.763   3.093  18.537  0.00  0.00    +0.000 A 
ATOM      7  O   UNL     1       3.351   2.009  18.949  0.00  0.00    +0.000 OA
ATOM      8  N   UNL     1       4.742   3.161  17.580  0.00  0.00    +0.000 N 
ATOM      9  C   UNL     1       5.197   4.297  16.956  0.00  0.00    +0.000 A 
ATOM     10  O   UNL     1       6.122   4.184  16.150  0.00  0.00    +0.000 OA
ATOM     11  N   UNL     1       4.572   5.508  17.278  0.00  0.00    +0.000 N 
ATOM     12  C   UNL     1       5.037   6.708  16.620  0.00  0.00    +0.000 C 
ATOM     13  H   UNL     1       5.157   2.289  17.289  0.00  0.00    +0.000 HD
ENDROOT
BRANCH   1  15
ATOM     14  C   UNL     1       1.214   2.981  21.292  0.00  0.00    +0.000 C 
ATOM     15  C   UNL     1       2.471   3.826  21.192  0.00  0.00    +0.000 C 
ENDBRANCH   1  15
BRANCH   2  16
ATOM     16  C   UNL     1       1.322   6.925  20.799  0.00  0.00    +0.000 C 
BRANCH  16  17
ATOM     17  N   UNL     1       1.595   8.375  20.879  0.00  0.00    +0.000 NA
ATOM     18  C   UNL     1       0.988   9.197  19.807  0.00  0.00    +0.000 C 
ATOM     19  C   UNL     1      -0.161  10.245  20.051  0.00  0.00    +0.000 C 
ATOM     20  N   UNL     1      -0.472  10.547  21.451  0.00  0.00    +0.000 N 
ATOM     21  C   UNL     1       0.038   9.669  22.507  0.00  0.00    +0.000 C 
ATOM     22  C   UNL     1       1.390   8.995  22.190  0.00  0.00    +0.000 C 
BRANCH  20  23
ATOM     23  C   UNL     1      -1.288  11.612  21.850  0.00  0.00    +0.000 A 
ATOM     24  C   UNL     1      -1.508  12.716  20.998  0.00  0.00    +0.000 A 
ATOM     25  C   UNL     1      -2.517  13.662  21.233  0.00  0.00    +0.000 A 
ATOM     26  C   UNL     1      -3.325  13.540  22.354  0.00  0.00    +0.000 A 
ATOM     27  C   UNL     1      -3.064  12.518  23.262  0.00  0.00    +0.000 A 
ATOM     28 CL   UNL     1      -4.073  12.361  24.652  0.00  0.00    +0.000 Cl
ATOM     29  C   UNL     1      -2.038  11.583  23.033  0.00  0.00    +0.000 A 
ENDBRANCH  20  23
ENDBRANCH  16  17
ENDBRANCH   2  16
TORSDOF 4
ENDMDL
MODEL 2
REMARK VINA RESULT:      -8.1      1.751      3.416
REMARK  Name = 
REMARK  6 active torsions:
REMARK  status: ('A' for Active; 'I' for Inactive)
REMARK    1  A    between atoms: C_1  and  C_2
REMARK    2  A    between atoms: C_2  and  N_3
REMARK    3  A    between atoms: C_4  and  C_5
REMARK    4  A    between atoms: C_5  and  N_6
REMARK    5  A    between atoms: N_9  and  C_10
REMARK    6  A    between atoms: N_27  and  C_28
REMARK                            x       y       z     vdW  Elec       q    Type
REMARK                         _______ _______ _______ _____ _____    ______ ____
ROOT
ATOM      1  N   UNL     1       2.513   7.118  18.942  0.00  0.00    +0.000 N 
ATOM      2  C   UNL     1       1.941   7.286  20.203  0.00  0.00    +0.000 A 
ATOM      3  N   UNL     1       1.658   6.071  20.708  0.00  0.00    +0.000 NA
ATOM      4  C   UNL     1       2.184   5.152  19.835  0.00  0.00    +0.000 A 
ATOM      5  C   UNL     1       2.843   5.796  18.830  0.00  0.00    +0.000 A 
ATOM      6  C   UNL     1       3.628   5.104  17.859  0.00  0.00    +0.000 A 
ATOM      7  O   UNL     1       4.417   5.618  17.066  0.00  0.00    +0.000 OA
ATOM      8  N   UNL     1       3.410   3.751  17.865  0.00  0.00    +0.000 N 
ATOM      9  C   UNL     1       2.654   3.049  18.772  0.00  0.00    +0.000 A 
ATOM     10  O   UNL     1       2.522   1.836  18.601  0.00  0.00    +0.000 OA
ATOM     11  N   UNL     1       2.086   3.765  19.834  0.00  0.00    +0.000 N 
ATOM     12  C   UNL     1       1.296   3.033  20.799  0.00  0.00    +0.000 C 
ATOM     13  H   UNL     1       3.866   3.212  17.145  0.00  0.00    +0.000 HD
ENDROOT
BRANCH   1  15
ATOM     14  C   UNL     1       1.888   9.247  17.631  0.00  0.00    +0.000 C 
ATOM     15  C   UNL     1       2.758   8.020  17.833  0.00  0.00    +0.000 C 
ENDBRANCH   1  15
BRANCH   2  16
ATOM     16  C   UNL     1       1.568   8.622  20.882  0.00  0.00    +0.000 C 
BRANCH  16  17
ATOM     17  N   UNL     1       0.126   8.892  21.066  0.00  0.00    +0.000 NA
ATOM     18  C   UNL     1      -0.362   8.816  22.462  0.00  0.00    +0.000 C 
ATOM     19  C   UNL     1      -0.875  10.060  23.279  0.00  0.00    +0.000 C 
ATOM     20  N   UNL     1      -1.064  11.298  22.519  0.00  0.00    +0.000 N 
ATOM     21  C   UNL     1      -0.485  11.414  21.178  0.00  0.00    +0.000 C 
ATOM     22  C   UNL     1      -0.393  10.086  20.397  0.00  0.00    +0.000 C 
BRANCH  20  23
ATOM     23  C   UNL     1      -1.728  12.422  23.022  0.00  0.00    +0.000 A 
ATOM     24  C   UNL     1      -3.086  12.353  23.402  0.00  0.00    +0.000 A 
ATOM     25  C   UNL     1      -3.712  13.356  24.156  0.00  0.00    +0.000 A 
ATOM     26  C   UNL     1      -2.994  14.481  24.532  0.00  0.00    +0.000 A 
ATOM     27  C   UNL     1      -1.683  14.621  24.086  0.00  0.00    +0.000 A 
ATOM     28 CL   UNL     1      -0.786  16.017  24.559  0.00  0.00    +0.000 Cl
ATOM     29  C   UNL     1      -1.065  13.622  23.313  0.00  0.00    +0.000 A 
ENDBRANCH  20  23
ENDBRANCH  16  17
ENDBRANCH   2  16
TORSDOF 4
ENDMDL
MODEL 3
REMARK VINA RESULT:      -8.0      1.582      1.892
REMARK  Name = 
REMARK  6 active torsions:
REMARK  status: ('A' for Active; 'I' for Inactive)
REMARK    1  A    between atoms: C_1  and  C_2
REMARK    2  A    between atoms: C_2  and  N_3
REMARK    3  A    between atoms: C_4  and  C_5
REMARK    4  A    between atoms: C_5  and  N_6
REMARK    5  A    between atoms: N_9  and  C_10
REMARK    6  A    between atoms: N_27  and  C_28
REMARK                            x       y       z     vdW  Elec       q    Type
REMARK                         _______ _______ _______ _____ _____    ______ ____
ROOT
ATOM      1  N   UNL     1       2.914   5.805  18.569  0.00  0.00    +0.000 N 
ATOM      2  C   UNL     1       2.958   7.109  18.073  0.00  0.00    +0.000 A 
ATOM      3  N   UNL     1       4.229   7.393  17.736  0.00  0.00    +0.000 NA
ATOM      4  C   UNL     1       4.943   6.229  17.880  0.00  0.00    +0.000 A 
ATOM      5  C   UNL     1       4.104   5.217  18.243  0.00  0.00    +0.000 A 
ATOM      6  C   UNL     1       4.528   3.856  18.313  0.00  0.00    +0.000 A 
ATOM      7  O   UNL     1       3.794   2.873  18.418  0.00  0.00    +0.000 OA
ATOM      8  N   UNL     1       5.891   3.720  18.271  0.00  0.00    +0.000 N 
ATOM      9  C   UNL     1       6.805   4.719  18.036  0.00  0.00    +0.000 A 
ATOM     10  O   UNL     1       8.002   4.431  18.082  0.00  0.00    +0.000 OA
ATOM     11  N   UNL     1       6.308   5.998  17.756  0.00  0.00    +0.000 N 
ATOM     12  C   UNL     1       7.262   7.054  17.498  0.00  0.00    +0.000 C 
ATOM     13  H   UNL     1       6.262   2.792  18.406  0.00  0.00    +0.000 HD
ENDROOT
BRANCH   1  15
ATOM     14  C   UNL     1       1.677   5.377  20.789  0.00  0.00    +0.000 C 
ATOM     15  C   UNL     1       1.924   5.062  19.324  0.00  0.00    +0.000 C 
ENDBRANCH   1  15
BRANCH   2  16
ATOM     16  C   UNL     1       1.794   8.122  18.022  0.00  0.00    +0.000 C 
BRANCH  16  17
ATOM     17  N   UNL     1       1.851   9.245  18.980  0.00  0.00    +0.000 NA
ATOM     18  C   UNL     1       1.611  10.588  18.401  0.00  0.00    +0.000 C 
ATOM     19  C   UNL     1       0.346  11.467  18.725  0.00  0.00    +0.000 C 
ATOM     20  N   UNL     1      -0.507  10.994  19.817  0.00  0.00    +0.000 N 
ATOM     21  C   UNL     1      -0.343   9.625  20.317  0.00  0.00    +0.000 C 
ATOM     22  C   UNL     1       1.093   9.070  20.221  0.00  0.00    +0.000 C 
BRANCH  20  23
ATOM     23  C   UNL     1      -1.527  11.760  20.391  0.00  0.00    +0.000 A 
ATOM     24  C   UNL     1      -2.529  12.351  19.591  0.00  0.00    +0.000 A 
ATOM     25  C   UNL     1      -3.707  12.890  20.130  0.00  0.00    +0.000 A 
ATOM     26  C   UNL     1      -3.903  12.873  21.503  0.00  0.00    +0.000 A 
ATOM     27  C   UNL     1      -2.888  12.388  22.321  0.00  0.00    +0.000 A 
ATOM     28 CL   UNL     1      -3.135  12.361  24.028  0.00  0.00    +0.000 Cl
ATOM     29  C   UNL     1      -1.699  11.868  21.778  0.00  0.00    +0.000 A 
ENDBRANCH  20  23
ENDBRANCH  16  17
ENDBRANCH   2  16
TORSDOF 4
ENDMDL
MODEL 4
REMARK VINA RESULT:      -7.9      1.119      1.438
REMARK  Name = 
REMARK  6 active torsions:
REMARK  status: ('A' for Active; 'I' for Inactive)
REMARK    1  A    between atoms: C_1  and  C_2
REMARK    2  A    between atoms: C_2  and  N_3
REMARK    3  A    between atoms: C_4  and  C_5
REMARK    4  A    between atoms: C_5  and  N_6
REMARK    5  A    between atoms: N_9  and  C_10
REMARK    6  A    between atoms: N_27  and  C_28
REMARK                            x       y       z     vdW  Elec       q    Type
REMARK                         _______ _______ _______ _____ _____    ______ ____
ROOT
ATOM      1  N   UNL     1       2.699   4.663  19.887  0.00  0.00    +0.000 N 
ATOM      2  C   UNL     1       2.318   5.992  19.704  0.00  0.00    +0.000 A 
ATOM      3  N   UNL     1       2.984   6.484  18.643  0.00  0.00    +0.000 NA
ATOM      4  C   UNL     1       3.660   5.429  18.081  0.00  0.00    +0.000 A 
ATOM      5  C   UNL     1       3.362   4.281  18.754  0.00  0.00    +0.000 A 
ATOM      6  C   UNL     1       3.788   2.995  18.304  0.00  0.00    +0.000 A 
ATOM      7  O   UNL     1       3.385   1.910  18.724  0.00  0.00    +0.000 OA
ATOM      8  N   UNL     1       4.747   3.064  17.328  0.00  0.00    +0.000 N 
ATOM      9  C   UNL     1       5.189   4.200  16.694  0.00  0.00    +0.000 A 
ATOM     10  O   UNL     1       6.097   4.088  15.870  0.00  0.00    +0.000 OA
ATOM     11  N   UNL     1       4.569   5.411  17.030  0.00  0.00    +0.000 N 
ATOM     12  C   UNL     1       5.020   6.611  16.362  0.00  0.00    +0.000 C 
ATOM     13  H   UNL     1       5.157   2.192  17.028  0.00  0.00    +0.000 HD
ENDROOT
BRANCH   1  15
ATOM     14  C   UNL     1       1.243   2.981  21.188  0.00  0.00    +0.000 C 
ATOM     15  C   UNL     1       2.550   3.727  20.985  0.00  0.00    +0.000 C 
ENDBRANCH   1  15
BRANCH   2  16
ATOM     16  C   UNL     1       1.391   6.825  20.616  0.00  0.00    +0.000 C 
BRANCH  16  17
ATOM     17  N   UNL     1       1.694   8.267  20.728  0.00  0.00    +0.000 NA
ATOM     18  C   UNL     1       1.143   9.119  19.649  0.00  0.00    +0.000 C 
ATOM     19  C   UNL     1       0.010  10.190  19.870  0.00  0.00    +0.000 C 
ATOM     20  N   UNL     1      -0.342  10.478  21.262  0.00  0.00    +0.000 N 
ATOM     21  C   UNL     1       0.111   9.572  22.321  0.00  0.00    +0.000 C 
ATOM     22  C   UNL     1       1.457   8.872  22.041  0.00  0.00    +0.000 C 
BRANCH  20  23
ATOM     23  C   UNL     1      -1.147  11.555  21.650  0.00  0.00    +0.000 A 
ATOM     24  C   UNL     1      -1.759  11.584  22.921  0.00  0.00    +0.000 A 
ATOM     25  C   UNL     1      -2.340  12.744  23.455  0.00  0.00    +0.000 A 
ATOM     26  C   UNL     1      -2.344  13.914  22.711  0.00  0.00    +0.000 A 
ATOM     27  C   UNL     1      -1.837  13.887  21.415  0.00  0.00    +0.000 A 
ATOM     28 CL   UNL     1      -1.836  15.344  20.492  0.00  0.00    +0.000 Cl
ATOM     29  C   UNL     1      -1.274  12.717  20.876  0.00  0.00    +0.000 A 
ENDBRANCH  20  23
ENDBRANCH  16  17
ENDBRANCH   2  16
TORSDOF 4
ENDMDL
MODEL 5
REMARK VINA RESULT:      -7.9      1.496      3.225
REMARK  Name = 
REMARK  6 active torsions:
REMARK  status: ('A' for Active; 'I' for Inactive)
REMARK    1  A    between atoms: C_1  and  C_2
REMARK    2  A    between atoms: C_2  and  N_3
REMARK    3  A    between atoms: C_4  and  C_5
REMARK    4  A    between atoms: C_5  and  N_6
REMARK    5  A    between atoms: N_9  and  C_10
REMARK    6  A    between atoms: N_27  and  C_28
REMARK                            x       y       z     vdW  Elec       q    Type
REMARK                         _______ _______ _______ _____ _____    ______ ____
ROOT
ATOM      1  N   UNL     1       2.489   7.108  18.942  0.00  0.00    +0.000 N 
ATOM      2  C   UNL     1       1.928   7.284  20.207  0.00  0.00    +0.000 A 
ATOM      3  N   UNL     1       1.642   6.072  20.718  0.00  0.00    +0.000 NA
ATOM      4  C   UNL     1       2.157   5.147  19.844  0.00  0.00    +0.000 A 
ATOM      5  C   UNL     1       2.812   5.784  18.833  0.00  0.00    +0.000 A 
ATOM      6  C   UNL     1       3.586   5.085  17.858  0.00  0.00    +0.000 A 
ATOM      7  O   UNL     1       4.372   5.592  17.057  0.00  0.00    +0.000 OA
ATOM      8  N   UNL     1       3.361   3.733  17.870  0.00  0.00    +0.000 N 
ATOM      9  C   UNL     1       2.608   3.038  18.785  0.00  0.00    +0.000 A 
ATOM     10  O   UNL     1       2.470   1.825  18.619  0.00  0.00    +0.000 OA
ATOM     11  N   UNL     1       2.053   3.760  19.849  0.00  0.00    +0.000 N 
ATOM     12  C   UNL     1       1.266   3.036  20.823  0.00  0.00    +0.000 C 
ATOM     13  H   UNL     1       3.809   3.190  17.148  0.00  0.00    +0.000 HD
ENDROOT
BRANCH   1  15
ATOM     14  C   UNL     1       1.901   9.265  17.660  0.00  0.00    +0.000 C 
ATOM     15  C   UNL     1       2.731   8.005  17.828  0.00  0.00    +0.000 C 
ENDBRANCH   1  15
BRANCH   2  16
ATOM     16  C   UNL     1       1.567   8.624  20.884  0.00  0.00    +0.000 C 
BRANCH  16  17
ATOM     17  N   UNL     1       0.128   8.908  21.064  0.00  0.00    +0.000 NA
ATOM     18  C   UNL     1      -0.368   8.823  22.458  0.00  0.00    +0.000 C 
ATOM     19  C   UNL     1      -0.870  10.065  23.285  0.00  0.00    +0.000 C 
ATOM     20  N   UNL     1      -1.041  11.313  22.537  0.00  0.00    +0.000 N 
ATOM     21  C   UNL     1      -0.455  11.436  21.200  0.00  0.00    +0.000 C 
ATOM     22  C   UNL     1      -0.376  10.115  20.405  0.00  0.00    +0.000 C 
BRANCH  20  23
ATOM     23  C   UNL     1      -1.695  12.439  23.049  0.00  0.00    +0.000 A 
ATOM     24  C   UNL     1      -1.039  13.686  23.129  0.00  0.00    +0.000 A 
ATOM     25  C   UNL     1      -1.723  14.886  23.372  0.00  0.00    +0.000 A 
ATOM     26  C   UNL     1      -3.095  14.866  23.571  0.00  0.00    +0.000 A 
ATOM     27  C   UNL     1      -3.752  13.639  23.598  0.00  0.00    +0.000 A 
ATOM     28 CL   UNL     1      -5.460  13.613  23.837  0.00  0.00    +0.000 Cl
ATOM     29  C   UNL     1      -3.059  12.436  23.373  0.00  0.00    +0.000 A 
ENDBRANCH  20  23
ENDBRANCH  16  17
ENDBRANCH   2  16
TORSDOF 4
ENDMDL
MODEL 6
REMARK VINA RESULT:      -7.8      1.553      3.148
REMARK  Name = 
REMARK  6 active torsions:
REMARK  status: ('A' for Active; 'I' for Inactive)
REMARK    1  A    between atoms: C_1  and  C_2
REMARK    2  A    between atoms: C_2  and  N_3
REMARK    3  A    between atoms: C_4  and  C_5
REMARK    4  A    between atoms: C_5  and  N_6
REMARK    5  A    between atoms: N_9  and  C_10
REMARK    6  A    between atoms: N_27  and  C_28
REMARK                            x       y       z     vdW  Elec       q    Type
REMARK                         _______ _______ _______ _____ _____    ______ ____
ROOT
ATOM      1  N   UNL     1       3.988   6.537  17.997  0.00  0.00    +0.000 N 
ATOM      2  C   UNL     1       2.684   6.848  18.385  0.00  0.00    +0.000 A 
ATOM      3  N   UNL     1       2.181   5.802  19.066  0.00  0.00    +0.000 NA
ATOM      4  C   UNL     1       3.211   4.909  19.229  0.00  0.00    +0.000 A 
ATOM      5  C   UNL     1       4.358   5.428  18.707  0.00  0.00    +0.000 A 
ATOM      6  C   UNL     1       5.629   4.799  18.869  0.00  0.00    +0.000 A 
ATOM      7  O   UNL     1       6.724   5.304  18.623  0.00  0.00    +0.000 OA
ATOM      8  N   UNL     1       5.531   3.512  19.327  0.00  0.00    +0.000 N 
ATOM      9  C   UNL     1       4.387   2.879  19.750  0.00  0.00    +0.000 A 
ATOM     10  O   UNL     1       4.468   1.697  20.087  0.00  0.00    +0.000 OA
ATOM     11  N   UNL     1       3.204   3.629  19.773  0.00  0.00    +0.000 N 
ATOM     12  C   UNL     1       1.995   2.976  20.225  0.00  0.00    +0.000 C 
ATOM     13  H   UNL     1       6.386   2.979  19.379  0.00  0.00    +0.000 HD
ENDROOT
BRANCH   1  15
ATOM     14  C   UNL     1       5.141   6.451  15.694  0.00  0.00    +0.000 C 
ATOM     15  C   UNL     1       4.906   7.119  17.037  0.00  0.00    +0.000 C 
ENDBRANCH   1  15
BRANCH   2  16
ATOM     16  C   UNL     1       1.882   8.113  18.009  0.00  0.00    +0.000 C 
BRANCH  16  17
ATOM     17  N   UNL     1       1.902   9.223  18.985  0.00  0.00    +0.000 NA
ATOM     18  C   UNL     1       1.697  10.575  18.414  0.00  0.00    +0.000 C 
ATOM     19  C   UNL     1       0.423  11.458  18.691  0.00  0.00    +0.000 C 
ATOM     20  N   UNL     1      -0.482  10.975  19.737  0.00  0.00    +0.000 N 
ATOM     21  C   UNL     1      -0.350   9.599  20.224  0.00  0.00    +0.000 C 
ATOM     22  C   UNL     1       1.087   9.036  20.186  0.00  0.00    +0.000 C 
BRANCH  20  23
ATOM     23  C   UNL     1      -1.523  11.740  20.274  0.00  0.00    +0.000 A 
ATOM     24  C   UNL     1      -2.594  12.179  19.465  0.00  0.00    +0.000 A 
ATOM     25  C   UNL     1      -3.779  12.705  20.000  0.00  0.00    +0.000 A 
ATOM     26  C   UNL     1      -3.915  12.830  21.374  0.00  0.00    +0.000 A 
ATOM     27  C   UNL     1      -2.837  12.499  22.189  0.00  0.00    +0.000 A 
ATOM     28 CL   UNL     1      -3.008  12.648  23.899  0.00  0.00    +0.000 Cl
ATOM     29  C   UNL     1      -1.642  11.991  21.647  0.00  0.00    +0.000 A 
ENDBRANCH  20  23
ENDBRANCH  16  17
ENDBRANCH   2  16
TORSDOF 4
ENDMDL
MODEL 7
REMARK VINA RESULT:      -7.8      2.396      2.747
REMARK  Name = 
REMARK  6 active torsions:
REMARK  status: ('A' for Active; 'I' for Inactive)
REMARK    1  A    between atoms: C_1  and  C_2
REMARK    2  A    between atoms: C_2  and  N_3
REMARK    3  A    between atoms: C_4  and  C_5
REMARK    4  A    between atoms: C_5  and  N_6
REMARK    5  A    between atoms: N_9  and  C_10
REMARK    6  A    between atoms: N_27  and  C_28
REMARK                            x       y       z     vdW  Elec       q    Type
REMARK                         _______ _______ _______ _____ _____    ______ ____
ROOT
ATOM      1  N   UNL     1       2.190   5.466  19.171  0.00  0.00    +0.000 N 
ATOM      2  C   UNL     1       2.493   6.827  19.192  0.00  0.00    +0.000 A 
ATOM      3  N   UNL     1       3.560   7.039  18.399  0.00  0.00    +0.000 NA
ATOM      4  C   UNL     1       3.825   5.846  17.774  0.00  0.00    +0.000 A 
ATOM      5  C   UNL     1       2.890   4.921  18.130  0.00  0.00    +0.000 A 
ATOM      6  C   UNL     1       2.810   3.633  17.519  0.00  0.00    +0.000 A 
ATOM      7  O   UNL     1       1.878   2.836  17.626  0.00  0.00    +0.000 OA
ATOM      8  N   UNL     1       3.921   3.328  16.777  0.00  0.00    +0.000 N 
ATOM      9  C   UNL     1       4.965   4.171  16.482  0.00  0.00    +0.000 A 
ATOM     10  O   UNL     1       5.913   3.717  15.839  0.00  0.00    +0.000 OA
ATOM     11  N   UNL     1       4.875   5.494  16.932  0.00  0.00    +0.000 N 
ATOM     12  C   UNL     1       5.964   6.392  16.620  0.00  0.00    +0.000 C 
ATOM     13  H   UNL     1       3.969   2.398  16.390  0.00  0.00    +0.000 HD
ENDROOT
BRANCH   1  15
ATOM     14  C   UNL     1       1.953   3.927  21.224  0.00  0.00    +0.000 C 
ATOM     15  C   UNL     1       1.363   4.617  20.008  0.00  0.00    +0.000 C 
ENDBRANCH   1  15
BRANCH   2  16
ATOM     16  C   UNL     1       1.822   7.913  20.061  0.00  0.00    +0.000 C 
BRANCH  16  17
ATOM     17  N   UNL     1       1.588   9.224  19.419  0.00  0.00    +0.000 NA
ATOM     18  C   UNL     1       1.144   9.169  18.006  0.00  0.00    +0.000 C 
ATOM     19  C   UNL     1      -0.287   9.611  17.520  0.00  0.00    +0.000 C 
ATOM     20  N   UNL     1      -1.119  10.302  18.508  0.00  0.00    +0.000 N 
ATOM     21  C   UNL     1      -0.739  10.262  19.923  0.00  0.00    +0.000 C 
ATOM     22  C   UNL     1       0.780  10.177  20.182  0.00  0.00    +0.000 C 
BRANCH  20  23
ATOM     23  C   UNL     1      -2.308  10.966  18.189  0.00  0.00    +0.000 A 
ATOM     24  C   UNL     1      -2.910  10.810  16.921  0.00  0.00    +0.000 A 
ATOM     25  C   UNL     1      -4.221  11.227  16.650  0.00  0.00    +0.000 A 
ATOM     26  C   UNL     1      -4.966  11.840  17.646  0.00  0.00    +0.000 A 
ATOM     27  C   UNL     1      -4.364  12.096  18.874  0.00  0.00    +0.000 A 
ATOM     28 CL   UNL     1      -5.292  12.853  20.116  0.00  0.00    +0.000 Cl
ATOM     29  C   UNL     1      -3.041  11.695  19.136  0.00  0.00    +0.000 A 
ENDBRANCH  20  23
ENDBRANCH  16  17
ENDBRANCH   2  16
TORSDOF 4
ENDMDL
MODEL 8
REMARK VINA RESULT:      -7.7      1.647      2.085
REMARK  Name = 
REMARK  6 active torsions:
REMARK  status: ('A' for Active; 'I' for Inactive)
REMARK    1  A    between atoms: C_1  and  C_2
REMARK    2  A    between atoms: C_2  and  N_3
REMARK    3  A    between atoms: C_4  and  C_5
REMARK    4  A    between atoms: C_5  and  N_6
REMARK    5  A    between atoms: N_9  and  C_10
REMARK    6  A    between atoms: N_27  and  C_28
REMARK                            x       y       z     vdW  Elec       q    Type
REMARK                         _______ _______ _______ _____ _____    ______ ____
ROOT
ATOM      1  N   UNL     1       2.849   5.756  18.246  0.00  0.00    +0.000 N 
ATOM      2  C   UNL     1       2.880   7.110  17.912  0.00  0.00    +0.000 A 
ATOM      3  N   UNL     1       4.138   7.433  17.559  0.00  0.00    +0.000 NA
ATOM      4  C   UNL     1       4.850   6.259  17.530  0.00  0.00    +0.000 A 
ATOM      5  C   UNL     1       4.022   5.211  17.801  0.00  0.00    +0.000 A 
ATOM      6  C   UNL     1       4.441   3.851  17.687  0.00  0.00    +0.000 A 
ATOM      7  O   UNL     1       3.706   2.863  17.701  0.00  0.00    +0.000 OA
ATOM      8  N   UNL     1       5.800   3.722  17.572  0.00  0.00    +0.000 N 
ATOM      9  C   UNL     1       6.709   4.741  17.423  0.00  0.00    +0.000 A 
ATOM     10  O   UNL     1       7.906   4.449  17.384  0.00  0.00    +0.000 OA
ATOM     11  N   UNL     1       6.208   6.045  17.323  0.00  0.00    +0.000 N 
ATOM     12  C   UNL     1       7.157   7.124  17.157  0.00  0.00    +0.000 C 
ATOM     13  H   UNL     1       6.171   2.783  17.577  0.00  0.00    +0.000 HD
ENDROOT
BRANCH   1  15
ATOM     14  C   UNL     1       1.849   4.903  20.462  0.00  0.00    +0.000 C 
ATOM     15  C   UNL     1       1.887   4.926  18.945  0.00  0.00    +0.000 C 
ENDBRANCH   1  15
BRANCH   2  16
ATOM     16  C   UNL     1       1.720   8.122  18.033  0.00  0.00    +0.000 C 
BRANCH  16  17
ATOM     17  N   UNL     1       1.889   9.207  19.023  0.00  0.00    +0.000 NA
ATOM     18  C   UNL     1       1.485  10.556  18.563  0.00  0.00    +0.000 C 
ATOM     19  C   UNL     1       0.254  11.347  19.144  0.00  0.00    +0.000 C 
ATOM     20  N   UNL     1      -0.370  10.779  20.342  0.00  0.00    +0.000 N 
ATOM     21  C   UNL     1      -0.054   9.403  20.735  0.00  0.00    +0.000 C 
ATOM     22  C   UNL     1       1.369   8.937  20.365  0.00  0.00    +0.000 C 
BRANCH  20  23
ATOM     23  C   UNL     1      -1.311  11.462  21.122  0.00  0.00    +0.000 A 
ATOM     24  C   UNL     1      -1.318  11.334  22.528  0.00  0.00    +0.000 A 
ATOM     25  C   UNL     1      -2.049  12.194  23.361  0.00  0.00    +0.000 A 
ATOM     26  C   UNL     1      -2.820  13.201  22.801  0.00  0.00    +0.000 A 
ATOM     27  C   UNL     1      -2.910  13.286  21.415  0.00  0.00    +0.000 A 
ATOM     28 CL   UNL     1      -3.863  14.543  20.717  0.00  0.00    +0.000 Cl
ATOM     29  C   UNL     1      -2.192  12.409  20.582  0.00  0.00    +0.000 A 
ENDBRANCH  20  23
ENDBRANCH  16  17
ENDBRANCH   2  16
TORSDOF 4
ENDMDL
MODEL 9
REMARK VINA RESULT:      -7.7      1.516      3.201
REMARK  Name = 
REMARK  6 active torsions:
REMARK  status: ('A' for Active; 'I' for Inactive)
REMARK    1  A    between atoms: C_1  and  C_2
REMARK    2  A    between atoms: C_2  and  N_3
REMARK    3  A    between atoms: C_4  and  C_5
REMARK    4  A    between atoms: C_5  and  N_6
REMARK    5  A    between atoms: N_9  and  C_10
REMARK    6  A    between atoms: N_27  and  C_28
REMARK                            x       y       z     vdW  Elec       q    Type
REMARK                         _______ _______ _______ _____ _____    ______ ____
ROOT
ATOM      1  N   UNL     1       2.431   7.171  19.119  0.00  0.00    +0.000 N 
ATOM      2  C   UNL     1       1.859   7.219  20.390  0.00  0.00    +0.000 A 
ATOM      3  N   UNL     1       1.571   5.962  20.775  0.00  0.00    +0.000 NA
ATOM      4  C   UNL     1       2.096   5.129  19.817  0.00  0.00    +0.000 A 
ATOM      5  C   UNL     1       2.757   5.865  18.880  0.00  0.00    +0.000 A 
ATOM      6  C   UNL     1       3.540   5.268  17.847  0.00  0.00    +0.000 A 
ATOM      7  O   UNL     1       4.332   5.853  17.107  0.00  0.00    +0.000 OA
ATOM      8  N   UNL     1       3.318   3.921  17.722  0.00  0.00    +0.000 N 
ATOM      9  C   UNL     1       2.560   3.137  18.557  0.00  0.00    +0.000 A 
ATOM     10  O   UNL     1       2.425   1.947  18.269  0.00  0.00    +0.000 OA
ATOM     11  N   UNL     1       1.994   3.749  19.682  0.00  0.00    +0.000 N 
ATOM     12  C   UNL     1       1.201   2.930  20.573  0.00  0.00    +0.000 C 
ATOM     13  H   UNL     1       3.773   3.453  16.953  0.00  0.00    +0.000 HD
ENDROOT
BRANCH   1  15
ATOM     14  C   UNL     1       1.586   9.146  17.695  0.00  0.00    +0.000 C 
ATOM     15  C   UNL     1       2.680   8.175  18.102  0.00  0.00    +0.000 C 
ENDBRANCH   1  15
BRANCH   2  16
ATOM     16  C   UNL     1       1.489   8.484  21.194  0.00  0.00    +0.000 C 
BRANCH  16  17
ATOM     17  N   UNL     1       0.052   8.819  21.278  0.00  0.00    +0.000 NA
ATOM     18  C   UNL     1      -0.454   9.112  22.639  0.00  0.00    +0.000 C 
ATOM     19  C   UNL     1      -0.948  10.533  23.103  0.00  0.00    +0.000 C 
ATOM     20  N   UNL     1      -1.099  11.540  22.050  0.00  0.00    +0.000 N 
ATOM     21  C   UNL     1      -0.501  11.298  20.733  0.00  0.00    +0.000 C 
ATOM     22  C   UNL     1      -0.431   9.814  20.318  0.00  0.00    +0.000 C 
BRANCH  20  23
ATOM     23  C   UNL     1      -1.743  12.767  22.239  0.00  0.00    +0.000 A 
ATOM     24  C   UNL     1      -2.478  13.370  21.195  0.00  0.00    +0.000 A 
ATOM     25  C   UNL     1      -3.355  14.443  21.409  0.00  0.00    +0.000 A 
ATOM     26  C   UNL     1      -3.502  14.964  22.686  0.00  0.00    +0.000 A 
ATOM     27  C   UNL     1      -2.715  14.455  23.714  0.00  0.00    +0.000 A 
ATOM     28 CL   UNL     1      -2.903  15.098  25.304  0.00  0.00    +0.000 Cl
ATOM     29  C   UNL     1      -1.822  13.391  23.491  0.00  0.00    +0.000 A 
ENDBRANCH  20  23
ENDBRANCH  16  17
ENDBRANCH   2  16
TORSDOF 4
ENDMDL
