MODEL 1
REMARK VINA RESULT:      -7.5      0.000      0.000
REMARK  Name = 
REMARK  18 active torsions:
REMARK  status: ('A' for Active; 'I' for Inactive)
REMARK    1  A    between atoms: C_1  and  O_2
REMARK    2  A    between atoms: O_2  and  C_3
REMARK    3  A    between atoms: C_3  and  C_4
REMARK    4  A    between atoms: C_4  and  C_5
REMARK    5  A    between atoms: C_5  and  N_6
REMARK    6  A    between atoms: C_9  and  C_10
REMARK    7  A    between atoms: C_10  and  C_11
REMARK    8  A    between atoms: N_13  and  C_14
REMARK    9  A    between atoms: C_14  and  C_15
REMARK   10  A    between atoms: C_15  and  N_16
REMARK   11  A    between atoms: C_23  and  C_24
REMARK   12  A    between atoms: N_26  and  C_27
REMARK   13  A    between atoms: N_26  and  C_30
REMARK   14  A    between atoms: C_27  and  C_28
REMARK   15  A    between atoms: C_27  and  C_29
REMARK   16  A    between atoms: C_30  and  C_31
REMARK   17  A    between atoms: C_30  and  C_32
REMARK   18  A    between atoms: C_33  and  C_34
REMARK                            x       y       z     vdW  Elec       q    Type
REMARK                         _______ _______ _______ _____ _____    ______ ____
ROOT
ATOM      1  N   UNL     1       5.662   4.653  15.597  0.00  0.00    +0.000 N 
ATOM      2  C   UNL     1       6.902   5.285  15.770  0.00  0.00    +0.000 C 
ATOM      3  O   UNL     1       7.631   5.662  14.858  0.00  0.00    +0.000 OA
ATOM      4  C   UNL     1       7.276   5.609  17.183  0.00  0.00    +0.000 C 
ATOM      5  C   UNL     1       6.696   4.553  18.122  0.00  0.00    +0.000 C 
ATOM      6  C   UNL     1       5.211   4.439  17.975  0.00  0.00    +0.000 C 
ATOM      7  C   UNL     1       4.758   4.411  16.677  0.00  0.00    +0.000 C 
ATOM      8  C   UNL     1       3.307   4.215  16.276  0.00  0.00    +0.000 C 
ENDROOT
BRANCH   6   9
ATOM      9  C   UNL     1       4.250   4.641  19.150  0.00  0.00    +0.000 C 
ATOM     10  O   UNL     1       4.222   5.809  19.567  0.00  0.00    +0.000 OA
ATOM     11  N   UNL     1       3.517   3.662  19.858  0.00  0.00    +0.000 N 
BRANCH  11  12
ATOM     12  C   UNL     1       3.641   2.162  19.784  0.00  0.00    +0.000 C 
ATOM     13  C   UNL     1       3.422   1.512  18.391  0.00  0.00    +0.000 C 
ATOM     14  C   UNL     1       4.968   1.644  20.331  0.00  0.00    +0.000 C 
ENDBRANCH  11  12
BRANCH  11  15
ATOM     15  C   UNL     1       2.568   4.168  20.917  0.00  0.00    +0.000 C 
ATOM     16  C   UNL     1       1.321   4.819  20.305  0.00  0.00    +0.000 C 
ATOM     17  C   UNL     1       2.134   3.182  22.017  0.00  0.00    +0.000 C 
ENDBRANCH  11  15
ENDBRANCH   6   9
BRANCH   1  18
ATOM     18  C   UNL     1       5.335   4.409  14.178  0.00  0.00    +0.000 C 
BRANCH  18  19
ATOM     19  C   UNL     1       6.353   3.437  13.551  0.00  0.00    +0.000 C 
BRANCH  19  20
ATOM     20  C   UNL     1       6.228   3.331  12.043  0.00  0.00    +0.000 C 
BRANCH  20  22
ATOM     21  C   UNL     1       4.094   3.200  11.059  0.00  0.00    +0.000 C 
ATOM     22  O   UNL     1       5.134   2.485  11.708  0.00  0.00    +0.000 OA
ENDBRANCH  20  22
ENDBRANCH  19  20
ENDBRANCH  18  19
ENDBRANCH   1  18
BRANCH   4  23
ATOM     23  C   UNL     1       6.847   7.044  17.467  0.00  0.00    +0.000 C 
BRANCH  23  24
ATOM     24  C   UNL     1       7.991   7.676  18.205  0.00  0.00    +0.000 C 
ATOM     25  O   UNL     1       8.595   7.052  19.066  0.00  0.00    +0.000 OA
ATOM     26  N   UNL     1       8.155   9.019  17.941  0.00  0.00    +0.000 N 
ATOM     27  H   UNL     1       7.494   9.469  17.313  0.00  0.00    +0.000 HD
BRANCH  26  28
ATOM     28  C   UNL     1       8.874   9.878  18.860  0.00  0.00    +0.000 C 
BRANCH  28  29
ATOM     29  C   UNL     1       9.582  11.066  18.200  0.00  0.00    +0.000 C 
BRANCH  29  30
ATOM     30  N   UNL     1       9.224  12.389  18.744  0.00  0.00    +0.000 NA
ATOM     31  C   UNL     1       9.397  13.405  17.671  0.00  0.00    +0.000 C 
ATOM     32  C   UNL     1      10.867  13.760  17.356  0.00  0.00    +0.000 C 
ATOM     33  O   UNL     1      11.591  14.139  18.535  0.00  0.00    +0.000 OA
ATOM     34  C   UNL     1      11.529  13.103  19.520  0.00  0.00    +0.000 C 
ATOM     35  C   UNL     1      10.069  12.801  19.892  0.00  0.00    +0.000 C 
ENDBRANCH  29  30
ENDBRANCH  28  29
ENDBRANCH  26  28
ENDBRANCH  23  24
ENDBRANCH   4  23
TORSDOF 12
ENDMDL
MODEL 2
REMARK VINA RESULT:      -7.1      0.736      1.046
REMARK  Name = 
REMARK  18 active torsions:
REMARK  status: ('A' for Active; 'I' for Inactive)
REMARK    1  A    between atoms: C_1  and  O_2
REMARK    2  A    between atoms: O_2  and  C_3
REMARK    3  A    between atoms: C_3  and  C_4
REMARK    4  A    between atoms: C_4  and  C_5
REMARK    5  A    between atoms: C_5  and  N_6
REMARK    6  A    between atoms: C_9  and  C_10
REMARK    7  A    between atoms: C_10  and  C_11
REMARK    8  A    between atoms: N_13  and  C_14
REMARK    9  A    between atoms: C_14  and  C_15
REMARK   10  A    between atoms: C_15  and  N_16
REMARK   11  A    between atoms: C_23  and  C_24
REMARK   12  A    between atoms: N_26  and  C_27
REMARK   13  A    between atoms: N_26  and  C_30
REMARK   14  A    between atoms: C_27  and  C_28
REMARK   15  A    between atoms: C_27  and  C_29
REMARK   16  A    between atoms: C_30  and  C_31
REMARK   17  A    between atoms: C_30  and  C_32
REMARK   18  A    between atoms: C_33  and  C_34
REMARK                            x       y       z     vdW  Elec       q    Type
REMARK                         _______ _______ _______ _____ _____    ______ ____
ROOT
ATOM      1  N   UNL     1       5.637   4.687  15.603  0.00  0.00    +0.000 N 
ATOM      2  C   UNL     1       6.900   5.278  15.760  0.00  0.00    +0.000 C 
ATOM      3  O   UNL     1       7.621   5.648  14.839  0.00  0.00    +0.000 OA
ATOM      4  C   UNL     1       7.313   5.566  17.170  0.00  0.00    +0.000 C 
ATOM      5  C   UNL     1       6.720   4.511  18.103  0.00  0.00    +0.000 C 
ATOM      6  C   UNL     1       5.230   4.444  17.985  0.00  0.00    +0.000 C 
ATOM      7  C   UNL     1       4.749   4.453  16.698  0.00  0.00    +0.000 C 
ATOM      8  C   UNL     1       3.285   4.308  16.324  0.00  0.00    +0.000 C 
ENDROOT
BRANCH   6   9
ATOM      9  C   UNL     1       4.300   4.655  19.184  0.00  0.00    +0.000 C 
ATOM     10  O   UNL     1       4.311   5.817  19.617  0.00  0.00    +0.000 OA
ATOM     11  N   UNL     1       3.558   3.684  19.895  0.00  0.00    +0.000 N 
BRANCH  11  12
ATOM     12  C   UNL     1       3.643   2.183  19.800  0.00  0.00    +0.000 C 
ATOM     13  C   UNL     1       3.411   1.560  18.396  0.00  0.00    +0.000 C 
ATOM     14  C   UNL     1       4.953   1.622  20.342  0.00  0.00    +0.000 C 
ENDBRANCH  11  12
BRANCH  11  15
ATOM     15  C   UNL     1       2.645   4.200  20.981  0.00  0.00    +0.000 C 
ATOM     16  C   UNL     1       1.493   5.037  20.412  0.00  0.00    +0.000 C 
ATOM     17  C   UNL     1       2.079   3.177  21.983  0.00  0.00    +0.000 C 
ENDBRANCH  11  15
ENDBRANCH   6   9
BRANCH   1  18
ATOM     18  C   UNL     1       5.275   4.477  14.187  0.00  0.00    +0.000 C 
BRANCH  18  19
ATOM     19  C   UNL     1       6.084   3.311  13.591  0.00  0.00    +0.000 C 
BRANCH  19  20
ATOM     20  C   UNL     1       6.481   3.536  12.143  0.00  0.00    +0.000 C 
BRANCH  20  22
ATOM     21  C   UNL     1       5.867   1.401  11.365  0.00  0.00    +0.000 C 
ATOM     22  O   UNL     1       6.934   2.314  11.573  0.00  0.00    +0.000 OA
ENDBRANCH  20  22
ENDBRANCH  19  20
ENDBRANCH  18  19
ENDBRANCH   1  18
BRANCH   4  23
ATOM     23  C   UNL     1       6.933   7.008  17.488  0.00  0.00    +0.000 C 
BRANCH  23  24
ATOM     24  C   UNL     1       8.044   7.545  18.343  0.00  0.00    +0.000 C 
ATOM     25  O   UNL     1       8.515   6.869  19.247  0.00  0.00    +0.000 OA
ATOM     26  N   UNL     1       8.329   8.875  18.120  0.00  0.00    +0.000 N 
ATOM     27  H   UNL     1       7.767   9.380  17.440  0.00  0.00    +0.000 HD
BRANCH  26  28
ATOM     28  C   UNL     1       9.017   9.668  19.120  0.00  0.00    +0.000 C 
BRANCH  28  29
ATOM     29  C   UNL     1       8.962  11.181  18.880  0.00  0.00    +0.000 C 
BRANCH  29  30
ATOM     30  N   UNL     1       9.901  11.688  17.863  0.00  0.00    +0.000 NA
ATOM     31  C   UNL     1      11.286  11.559  18.390  0.00  0.00    +0.000 C 
ATOM     32  C   UNL     1      11.657  12.596  19.474  0.00  0.00    +0.000 C 
ATOM     33  O   UNL     1      11.403  13.939  19.039  0.00  0.00    +0.000 OA
ATOM     34  C   UNL     1      10.034  14.093  18.651  0.00  0.00    +0.000 C 
ATOM     35  C   UNL     1       9.682  13.114  17.520  0.00  0.00    +0.000 C 
ENDBRANCH  29  30
ENDBRANCH  28  29
ENDBRANCH  26  28
ENDBRANCH  23  24
ENDBRANCH   4  23
TORSDOF 12
ENDMDL
MODEL 3
REMARK VINA RESULT:      -6.8      0.924      1.331
REMARK  Name = 
REMARK  18 active torsions:
REMARK  status: ('A' for Active; 'I' for Inactive)
REMARK    1  A    between atoms: C_1  and  O_2
REMARK    2  A    between atoms: O_2  and  C_3
REMARK    3  A    between atoms: C_3  and  C_4
REMARK    4  A    between atoms: C_4  and  C_5
REMARK    5  A    between atoms: C_5  and  N_6
REMARK    6  A    between atoms: C_9  and  C_10
REMARK    7  A    between atoms: C_10  and  C_11
REMARK    8  A    between atoms: N_13  and  C_14
REMARK    9  A    between atoms: C_14  and  C_15
REMARK   10  A    between atoms: C_15  and  N_16
REMARK   11  A    between atoms: C_23  and  C_24
REMARK   12  A    between atoms: N_26  and  C_27
REMARK   13  A    between atoms: N_26  and  C_30
REMARK   14  A    between atoms: C_27  and  C_28
REMARK   15  A    between atoms: C_27  and  C_29
REMARK   16  A    between atoms: C_30  and  C_31
REMARK   17  A    between atoms: C_30  and  C_32
REMARK   18  A    between atoms: C_33  and  C_34
REMARK                            x       y       z     vdW  Elec       q    Type
REMARK                         _______ _______ _______ _____ _____    ______ ____
ROOT
ATOM      1  N   UNL     1       5.697   4.757  15.769  0.00  0.00    +0.000 N 
ATOM      2  C   UNL     1       6.912   5.407  16.031  0.00  0.00    +0.000 C 
ATOM      3  O   UNL     1       7.680   5.833  15.174  0.00  0.00    +0.000 OA
ATOM      4  C   UNL     1       7.203   5.686  17.474  0.00  0.00    +0.000 C 
ATOM      5  C   UNL     1       6.597   4.584  18.341  0.00  0.00    +0.000 C 
ATOM      6  C   UNL     1       5.125   4.445  18.109  0.00  0.00    +0.000 C 
ATOM      7  C   UNL     1       4.743   4.456  16.789  0.00  0.00    +0.000 C 
ATOM      8  C   UNL     1       3.320   4.245  16.303  0.00  0.00    +0.000 C 
ENDROOT
BRANCH   6   9
ATOM      9  C   UNL     1       4.099   4.583  19.238  0.00  0.00    +0.000 C 
ATOM     10  O   UNL     1       3.983   5.744  19.658  0.00  0.00    +0.000 OA
ATOM     11  N   UNL     1       3.390   3.558  19.905  0.00  0.00    +0.000 N 
BRANCH  11  12
ATOM     12  C   UNL     1       3.605   2.068  19.831  0.00  0.00    +0.000 C 
ATOM     13  C   UNL     1       3.453   1.410  18.432  0.00  0.00    +0.000 C 
ATOM     14  C   UNL     1       4.949   1.628  20.404  0.00  0.00    +0.000 C 
ENDBRANCH  11  12
BRANCH  11  15
ATOM     15  C   UNL     1       2.364   4.001  20.918  0.00  0.00    +0.000 C 
ATOM     16  C   UNL     1       1.046   4.418  20.255  0.00  0.00    +0.000 C 
ATOM     17  C   UNL     1       2.060   3.049  22.089  0.00  0.00    +0.000 C 
ENDBRANCH  11  15
ENDBRANCH   6   9
BRANCH   1  18
ATOM     18  C   UNL     1       5.453   4.559  14.326  0.00  0.00    +0.000 C 
BRANCH  18  19
ATOM     19  C   UNL     1       6.315   3.402  13.788  0.00  0.00    +0.000 C 
BRANCH  19  20
ATOM     20  C   UNL     1       6.394   3.369  12.273  0.00  0.00    +0.000 C 
BRANCH  20  22
ATOM     21  C   UNL     1       6.272   1.315  11.130  0.00  0.00    +0.000 C 
ATOM     22  O   UNL     1       5.539   2.350  11.768  0.00  0.00    +0.000 OA
ENDBRANCH  20  22
ENDBRANCH  19  20
ENDBRANCH  18  19
ENDBRANCH   1  18
BRANCH   4  23
ATOM     23  C   UNL     1       6.726   7.101  17.786  0.00  0.00    +0.000 C 
BRANCH  23  24
ATOM     24  C   UNL     1       7.966   7.897  18.071  0.00  0.00    +0.000 C 
ATOM     25  O   UNL     1       8.731   7.558  18.964  0.00  0.00    +0.000 OA
ATOM     26  N   UNL     1       8.044   9.082  17.371  0.00  0.00    +0.000 N 
ATOM     27  H   UNL     1       7.270   9.331  16.761  0.00  0.00    +0.000 HD
BRANCH  26  28
ATOM     28  C   UNL     1       8.892  10.164  17.829  0.00  0.00    +0.000 C 
BRANCH  28  29
ATOM     29  C   UNL     1       8.901  10.367  19.349  0.00  0.00    +0.000 C 
BRANCH  29  30
ATOM     30  N   UNL     1      10.091  11.055  19.881  0.00  0.00    +0.000 NA
ATOM     31  C   UNL     1       9.697  11.805  21.104  0.00  0.00    +0.000 C 
ATOM     32  C   UNL     1       8.884  13.090  20.832  0.00  0.00    +0.000 C 
ATOM     33  O   UNL     1       9.546  13.955  19.898  0.00  0.00    +0.000 OA
ATOM     34  C   UNL     1       9.811  13.265  18.672  0.00  0.00    +0.000 C 
ATOM     35  C   UNL     1      10.684  12.027  18.930  0.00  0.00    +0.000 C 
ENDBRANCH  29  30
ENDBRANCH  28  29
ENDBRANCH  26  28
ENDBRANCH  23  24
ENDBRANCH   4  23
TORSDOF 12
ENDMDL
MODEL 4
REMARK VINA RESULT:      -6.7      0.815      1.349
REMARK  Name = 
REMARK  18 active torsions:
REMARK  status: ('A' for Active; 'I' for Inactive)
REMARK    1  A    between atoms: C_1  and  O_2
REMARK    2  A    between atoms: O_2  and  C_3
REMARK    3  A    between atoms: C_3  and  C_4
REMARK    4  A    between atoms: C_4  and  C_5
REMARK    5  A    between atoms: C_5  and  N_6
REMARK    6  A    between atoms: C_9  and  C_10
REMARK    7  A    between atoms: C_10  and  C_11
REMARK    8  A    between atoms: N_13  and  C_14
REMARK    9  A    between atoms: C_14  and  C_15
REMARK   10  A    between atoms: C_15  and  N_16
REMARK   11  A    between atoms: C_23  and  C_24
REMARK   12  A    between atoms: N_26  and  C_27
REMARK   13  A    between atoms: N_26  and  C_30
REMARK   14  A    between atoms: C_27  and  C_28
REMARK   15  A    between atoms: C_27  and  C_29
REMARK   16  A    between atoms: C_30  and  C_31
REMARK   17  A    between atoms: C_30  and  C_32
REMARK   18  A    between atoms: C_33  and  C_34
REMARK                            x       y       z     vdW  Elec       q    Type
REMARK                         _______ _______ _______ _____ _____    ______ ____
ROOT
ATOM      1  N   UNL     1       5.748   4.785  15.525  0.00  0.00    +0.000 N 
ATOM      2  C   UNL     1       6.974   5.398  15.824  0.00  0.00    +0.000 C 
ATOM      3  O   UNL     1       7.762   5.837  14.991  0.00  0.00    +0.000 OA
ATOM      4  C   UNL     1       7.254   5.619  17.278  0.00  0.00    +0.000 C 
ATOM      5  C   UNL     1       6.614   4.501  18.099  0.00  0.00    +0.000 C 
ATOM      6  C   UNL     1       5.142   4.403  17.846  0.00  0.00    +0.000 C 
ATOM      7  C   UNL     1       4.776   4.469  16.523  0.00  0.00    +0.000 C 
ATOM      8  C   UNL     1       3.355   4.308  16.013  0.00  0.00    +0.000 C 
ENDROOT
BRANCH   6   9
ATOM      9  C   UNL     1       4.106   4.523  18.967  0.00  0.00    +0.000 C 
ATOM     10  O   UNL     1       4.414   5.354  19.834  0.00  0.00    +0.000 OA
ATOM     11  N   UNL     1       2.947   3.740  19.175  0.00  0.00    +0.000 N 
BRANCH  11  12
ATOM     12  C   UNL     1       2.541   2.464  18.482  0.00  0.00    +0.000 C 
ATOM     13  C   UNL     1       3.458   1.230  18.701  0.00  0.00    +0.000 C 
ATOM     14  C   UNL     1       1.112   2.040  18.802  0.00  0.00    +0.000 C 
ENDBRANCH  11  12
BRANCH  11  15
ATOM     15  C   UNL     1       2.053   4.153  20.318  0.00  0.00    +0.000 C 
ATOM     16  C   UNL     1       2.488   3.519  21.645  0.00  0.00    +0.000 C 
ATOM     17  C   UNL     1       1.820   5.660  20.532  0.00  0.00    +0.000 C 
ENDBRANCH  11  15
ENDBRANCH   6   9
BRANCH   1  18
ATOM     18  C   UNL     1       5.517   4.644  14.073  0.00  0.00    +0.000 C 
BRANCH  18  19
ATOM     19  C   UNL     1       6.125   3.327  13.557  0.00  0.00    +0.000 C 
BRANCH  19  20
ATOM     20  C   UNL     1       5.727   3.004  12.128  0.00  0.00    +0.000 C 
BRANCH  20  22
ATOM     21  C   UNL     1       3.936   3.429  10.661  0.00  0.00    +0.000 C 
ATOM     22  O   UNL     1       4.315   3.096  11.988  0.00  0.00    +0.000 OA
ENDBRANCH  20  22
ENDBRANCH  19  20
ENDBRANCH  18  19
ENDBRANCH   1  18
BRANCH   4  23
ATOM     23  C   UNL     1       6.805   7.032  17.636  0.00  0.00    +0.000 C 
BRANCH  23  24
ATOM     24  C   UNL     1       7.997   7.695  18.261  0.00  0.00    +0.000 C 
ATOM     25  O   UNL     1       8.657   7.113  19.111  0.00  0.00    +0.000 OA
ATOM     26  N   UNL     1       8.144   9.021  17.918  0.00  0.00    +0.000 N 
ATOM     27  H   UNL     1       7.443   9.442  17.314  0.00  0.00    +0.000 HD
BRANCH  26  28
ATOM     28  C   UNL     1       8.925   9.923  18.742  0.00  0.00    +0.000 C 
BRANCH  28  29
ATOM     29  C   UNL     1       9.497  11.133  17.995  0.00  0.00    +0.000 C 
BRANCH  29  30
ATOM     30  N   UNL     1      10.564  11.861  18.707  0.00  0.00    +0.000 NA
ATOM     31  C   UNL     1       9.989  13.113  19.269  0.00  0.00    +0.000 C 
ATOM     32  C   UNL     1       9.719  14.218  18.224  0.00  0.00    +0.000 C 
ATOM     33  O   UNL     1      10.882  14.504  17.433  0.00  0.00    +0.000 OA
ATOM     34  C   UNL     1      11.358  13.317  16.791  0.00  0.00    +0.000 C 
ATOM     35  C   UNL     1      11.700  12.241  17.834  0.00  0.00    +0.000 C 
ENDBRANCH  29  30
ENDBRANCH  28  29
ENDBRANCH  26  28
ENDBRANCH  23  24
ENDBRANCH   4  23
TORSDOF 12
ENDMDL
MODEL 5
REMARK VINA RESULT:      -6.4      2.975      5.015
REMARK  Name = 
REMARK  18 active torsions:
REMARK  status: ('A' for Active; 'I' for Inactive)
REMARK    1  A    between atoms: C_1  and  O_2
REMARK    2  A    between atoms: O_2  and  C_3
REMARK    3  A    between atoms: C_3  and  C_4
REMARK    4  A    between atoms: C_4  and  C_5
REMARK    5  A    between atoms: C_5  and  N_6
REMARK    6  A    between atoms: C_9  and  C_10
REMARK    7  A    between atoms: C_10  and  C_11
REMARK    8  A    between atoms: N_13  and  C_14
REMARK    9  A    between atoms: C_14  and  C_15
REMARK   10  A    between atoms: C_15  and  N_16
REMARK   11  A    between atoms: C_23  and  C_24
REMARK   12  A    between atoms: N_26  and  C_27
REMARK   13  A    between atoms: N_26  and  C_30
REMARK   14  A    between atoms: C_27  and  C_28
REMARK   15  A    between atoms: C_27  and  C_29
REMARK   16  A    between atoms: C_30  and  C_31
REMARK   17  A    between atoms: C_30  and  C_32
REMARK   18  A    between atoms: C_33  and  C_34
REMARK                            x       y       z     vdW  Elec       q    Type
REMARK                         _______ _______ _______ _____ _____    ______ ____
ROOT
ATOM      1  N   UNL     1       3.350   4.287  17.798  0.00  0.00    +0.000 N 
ATOM      2  C   UNL     1       4.745   4.376  17.922  0.00  0.00    +0.000 C 
ATOM      3  O   UNL     1       5.534   3.485  17.626  0.00  0.00    +0.000 OA
ATOM      4  C   UNL     1       5.277   5.713  18.339  0.00  0.00    +0.000 C 
ATOM      5  C   UNL     1       4.272   6.398  19.264  0.00  0.00    +0.000 C 
ATOM      6  C   UNL     1       2.929   6.535  18.617  0.00  0.00    +0.000 C 
ATOM      7  C   UNL     1       2.483   5.410  17.965  0.00  0.00    +0.000 C 
ATOM      8  C   UNL     1       1.120   5.280  17.308  0.00  0.00    +0.000 C 
ENDROOT
BRANCH   6   9
ATOM      9  C   UNL     1       2.242   7.891  18.431  0.00  0.00    +0.000 C 
ATOM     10  O   UNL     1       2.413   8.378  17.303  0.00  0.00    +0.000 OA
ATOM     11  N   UNL     1       1.565   8.668  19.399  0.00  0.00    +0.000 N 
BRANCH  11  12
ATOM     12  C   UNL     1       1.522   8.475  20.893  0.00  0.00    +0.000 C 
ATOM     13  C   UNL     1       0.956   9.653  21.732  0.00  0.00    +0.000 C 
ATOM     14  C   UNL     1       0.777   7.212  21.311  0.00  0.00    +0.000 C 
ENDBRANCH  11  12
BRANCH  11  15
ATOM     15  C   UNL     1       0.896   9.926  18.902  0.00  0.00    +0.000 C 
ATOM     16  C   UNL     1       1.910  10.932  18.344  0.00  0.00    +0.000 C 
ATOM     17  C   UNL     1      -0.262   9.770  17.900  0.00  0.00    +0.000 C 
ENDBRANCH  11  15
ENDBRANCH   6   9
BRANCH   1  18
ATOM     18  C   UNL     1       2.900   2.959  17.337  0.00  0.00    +0.000 C 
BRANCH  18  19
ATOM     19  C   UNL     1       2.808   1.979  18.521  0.00  0.00    +0.000 C 
BRANCH  19  20
ATOM     20  C   UNL     1       1.466   2.021  19.230  0.00  0.00    +0.000 C 
BRANCH  20  22
ATOM     21  C   UNL     1       1.349   3.646  20.928  0.00  0.00    +0.000 C 
ATOM     22  O   UNL     1       1.659   2.298  20.612  0.00  0.00    +0.000 OA
ENDBRANCH  20  22
ENDBRANCH  19  20
ENDBRANCH  18  19
ENDBRANCH   1  18
BRANCH   4  23
ATOM     23  C   UNL     1       5.641   6.489  17.079  0.00  0.00    +0.000 C 
BRANCH  23  24
ATOM     24  C   UNL     1       7.053   6.956  17.280  0.00  0.00    +0.000 C 
ATOM     25  O   UNL     1       7.952   6.151  17.476  0.00  0.00    +0.000 OA
ATOM     26  N   UNL     1       7.181   8.324  17.389  0.00  0.00    +0.000 N 
ATOM     27  H   UNL     1       6.337   8.890  17.357  0.00  0.00    +0.000 HD
BRANCH  26  28
ATOM     28  C   UNL     1       8.342   8.917  18.022  0.00  0.00    +0.000 C 
BRANCH  28  29
ATOM     29  C   UNL     1       8.400  10.447  17.941  0.00  0.00    +0.000 C 
BRANCH  29  30
ATOM     30  N   UNL     1       9.732  11.035  18.166  0.00  0.00    +0.000 NA
ATOM     31  C   UNL     1      10.070  10.907  19.610  0.00  0.00    +0.000 C 
ATOM     32  C   UNL     1       9.310  11.884  20.534  0.00  0.00    +0.000 C 
ATOM     33  O   UNL     1       9.446  13.245  20.102  0.00  0.00    +0.000 OA
ATOM     34  C   UNL     1       9.001  13.391  18.749  0.00  0.00    +0.000 C 
ATOM     35  C   UNL     1       9.807  12.475  17.816  0.00  0.00    +0.000 C 
ENDBRANCH  29  30
ENDBRANCH  28  29
ENDBRANCH  26  28
ENDBRANCH  23  24
ENDBRANCH   4  23
TORSDOF 12
ENDMDL
MODEL 6
REMARK VINA RESULT:      -6.4      2.970      4.945
REMARK  Name = 
REMARK  18 active torsions:
REMARK  status: ('A' for Active; 'I' for Inactive)
REMARK    1  A    between atoms: C_1  and  O_2
REMARK    2  A    between atoms: O_2  and  C_3
REMARK    3  A    between atoms: C_3  and  C_4
REMARK    4  A    between atoms: C_4  and  C_5
REMARK    5  A    between atoms: C_5  and  N_6
REMARK    6  A    between atoms: C_9  and  C_10
REMARK    7  A    between atoms: C_10  and  C_11
REMARK    8  A    between atoms: N_13  and  C_14
REMARK    9  A    between atoms: C_14  and  C_15
REMARK   10  A    between atoms: C_15  and  N_16
REMARK   11  A    between atoms: C_23  and  C_24
REMARK   12  A    between atoms: N_26  and  C_27
REMARK   13  A    between atoms: N_26  and  C_30
REMARK   14  A    between atoms: C_27  and  C_28
REMARK   15  A    between atoms: C_27  and  C_29
REMARK   16  A    between atoms: C_30  and  C_31
REMARK   17  A    between atoms: C_30  and  C_32
REMARK   18  A    between atoms: C_33  and  C_34
REMARK                            x       y       z     vdW  Elec       q    Type
REMARK                         _______ _______ _______ _____ _____    ______ ____
ROOT
ATOM      1  N   UNL     1       3.436   4.467  17.831  0.00  0.00    +0.000 N 
ATOM      2  C   UNL     1       4.829   4.636  17.845  0.00  0.00    +0.000 C 
ATOM      3  O   UNL     1       5.643   3.791  17.486  0.00  0.00    +0.000 OA
ATOM      4  C   UNL     1       5.315   6.002  18.223  0.00  0.00    +0.000 C 
ATOM      5  C   UNL     1       4.348   6.630  19.225  0.00  0.00    +0.000 C 
ATOM      6  C   UNL     1       2.954   6.690  18.685  0.00  0.00    +0.000 C 
ATOM      7  C   UNL     1       2.522   5.540  18.067  0.00  0.00    +0.000 C 
ATOM      8  C   UNL     1       1.122   5.331  17.519  0.00  0.00    +0.000 C 
ENDROOT
BRANCH   6   9
ATOM      9  C   UNL     1       2.177   8.004  18.557  0.00  0.00    +0.000 C 
ATOM     10  O   UNL     1       2.437   8.629  17.518  0.00  0.00    +0.000 OA
ATOM     11  N   UNL     1       1.326   8.612  19.508  0.00  0.00    +0.000 N 
BRANCH  11  12
ATOM     12  C   UNL     1       1.123   8.246  20.955  0.00  0.00    +0.000 C 
ATOM     13  C   UNL     1       1.810   9.159  22.008  0.00  0.00    +0.000 C 
ATOM     14  C   UNL     1      -0.347   8.123  21.341  0.00  0.00    +0.000 C 
ENDBRANCH  11  12
BRANCH  11  15
ATOM     15  C   UNL     1       0.614   9.867  19.065  0.00  0.00    +0.000 C 
ATOM     16  C   UNL     1       1.589  11.026  18.827  0.00  0.00    +0.000 C 
ATOM     17  C   UNL     1      -0.343   9.758  17.863  0.00  0.00    +0.000 C 
ENDBRANCH  11  15
ENDBRANCH   6   9
BRANCH   1  18
ATOM     18  C   UNL     1       3.027   3.115  17.402  0.00  0.00    +0.000 C 
BRANCH  18  19
ATOM     19  C   UNL     1       2.907   2.178  18.618  0.00  0.00    +0.000 C 
BRANCH  19  20
ATOM     20  C   UNL     1       1.525   2.185  19.245  0.00  0.00    +0.000 C 
BRANCH  20  22
ATOM     21  C   UNL     1       1.756   3.633  21.086  0.00  0.00    +0.000 C 
ATOM     22  O   UNL     1       1.639   2.284  20.660  0.00  0.00    +0.000 OA
ENDBRANCH  20  22
ENDBRANCH  19  20
ENDBRANCH  18  19
ENDBRANCH   1  18
BRANCH   4  23
ATOM     23  C   UNL     1       5.535   6.796  16.940  0.00  0.00    +0.000 C 
BRANCH  23  24
ATOM     24  C   UNL     1       6.957   7.273  16.993  0.00  0.00    +0.000 C 
ATOM     25  O   UNL     1       7.868   6.555  16.606  0.00  0.00    +0.000 OA
ATOM     26  N   UNL     1       7.122   8.471  17.654  0.00  0.00    +0.000 N 
ATOM     27  H   UNL     1       6.302   8.909  18.067  0.00  0.00    +0.000 HD
BRANCH  26  28
ATOM     28  C   UNL     1       8.410   8.853  18.195  0.00  0.00    +0.000 C 
BRANCH  28  29
ATOM     29  C   UNL     1       8.890  10.247  17.774  0.00  0.00    +0.000 C 
BRANCH  29  30
ATOM     30  N   UNL     1       9.014  11.224  18.871  0.00  0.00    +0.000 NA
ATOM     31  C   UNL     1       8.911  12.594  18.299  0.00  0.00    +0.000 C 
ATOM     32  C   UNL     1      10.166  13.063  17.530  0.00  0.00    +0.000 C 
ATOM     33  O   UNL     1      11.357  12.932  18.319  0.00  0.00    +0.000 OA
ATOM     34  C   UNL     1      11.521  11.582  18.764  0.00  0.00    +0.000 C 
ATOM     35  C   UNL     1      10.306  11.137  19.593  0.00  0.00    +0.000 C 
ENDBRANCH  29  30
ENDBRANCH  28  29
ENDBRANCH  26  28
ENDBRANCH  23  24
ENDBRANCH   4  23
TORSDOF 12
ENDMDL
MODEL 7
REMARK VINA RESULT:      -6.3      2.927      4.988
REMARK  Name = 
REMARK  18 active torsions:
REMARK  status: ('A' for Active; 'I' for Inactive)
REMARK    1  A    between atoms: C_1  and  O_2
REMARK    2  A    between atoms: O_2  and  C_3
REMARK    3  A    between atoms: C_3  and  C_4
REMARK    4  A    between atoms: C_4  and  C_5
REMARK    5  A    between atoms: C_5  and  N_6
REMARK    6  A    between atoms: C_9  and  C_10
REMARK    7  A    between atoms: C_10  and  C_11
REMARK    8  A    between atoms: N_13  and  C_14
REMARK    9  A    between atoms: C_14  and  C_15
REMARK   10  A    between atoms: C_15  and  N_16
REMARK   11  A    between atoms: C_23  and  C_24
REMARK   12  A    between atoms: N_26  and  C_27
REMARK   13  A    between atoms: N_26  and  C_30
REMARK   14  A    between atoms: C_27  and  C_28
REMARK   15  A    between atoms: C_27  and  C_29
REMARK   16  A    between atoms: C_30  and  C_31
REMARK   17  A    between atoms: C_30  and  C_32
REMARK   18  A    between atoms: C_33  and  C_34
REMARK                            x       y       z     vdW  Elec       q    Type
REMARK                         _______ _______ _______ _____ _____    ______ ____
ROOT
ATOM      1  N   UNL     1       3.307   4.376  17.904  0.00  0.00    +0.000 N 
ATOM      2  C   UNL     1       4.702   4.487  17.995  0.00  0.00    +0.000 C 
ATOM      3  O   UNL     1       5.496   3.589  17.734  0.00  0.00    +0.000 OA
ATOM      4  C   UNL     1       5.226   5.850  18.327  0.00  0.00    +0.000 C 
ATOM      5  C   UNL     1       4.232   6.575  19.232  0.00  0.00    +0.000 C 
ATOM      6  C   UNL     1       2.876   6.662  18.604  0.00  0.00    +0.000 C 
ATOM      7  C   UNL     1       2.430   5.498  18.024  0.00  0.00    +0.000 C 
ATOM      8  C   UNL     1       1.057   5.316  17.403  0.00  0.00    +0.000 C 
ENDROOT
BRANCH   6   9
ATOM      9  C   UNL     1       2.169   7.998  18.357  0.00  0.00    +0.000 C 
ATOM     10  O   UNL     1       2.537   8.564  17.317  0.00  0.00    +0.000 OA
ATOM     11  N   UNL     1       1.271   8.682  19.208  0.00  0.00    +0.000 N 
BRANCH  11  12
ATOM     12  C   UNL     1       0.938   8.392  20.648  0.00  0.00    +0.000 C 
ATOM     13  C   UNL     1       1.051   6.911  21.105  0.00  0.00    +0.000 C 
ATOM     14  C   UNL     1       1.739   9.240  21.630  0.00  0.00    +0.000 C 
ENDBRANCH  11  12
BRANCH  11  15
ATOM     15  C   UNL     1       0.650   9.942  18.655  0.00  0.00    +0.000 C 
ATOM     16  C   UNL     1      -0.795  10.126  19.132  0.00  0.00    +0.000 C 
ATOM     17  C   UNL     1       1.419  11.262  18.852  0.00  0.00    +0.000 C 
ENDBRANCH  11  15
ENDBRANCH   6   9
BRANCH   1  18
ATOM     18  C   UNL     1       2.863   3.019  17.525  0.00  0.00    +0.000 C 
BRANCH  18  19
ATOM     19  C   UNL     1       2.196   2.317  18.723  0.00  0.00    +0.000 C 
BRANCH  19  20
ATOM     20  C   UNL     1       3.121   2.162  19.916  0.00  0.00    +0.000 C 
BRANCH  20  22
ATOM     21  C   UNL     1       1.204   3.147  20.863  0.00  0.00    +0.000 C 
ATOM     22  O   UNL     1       2.582   2.854  21.036  0.00  0.00    +0.000 OA
ENDBRANCH  20  22
ENDBRANCH  19  20
ENDBRANCH  18  19
ENDBRANCH   1  18
BRANCH   4  23
ATOM     23  C   UNL     1       5.558   6.559  17.018  0.00  0.00    +0.000 C 
BRANCH  23  24
ATOM     24  C   UNL     1       7.006   6.941  17.116  0.00  0.00    +0.000 C 
ATOM     25  O   UNL     1       7.880   6.089  17.045  0.00  0.00    +0.000 OA
ATOM     26  N   UNL     1       7.215   8.262  17.453  0.00  0.00    +0.000 N 
ATOM     27  H   UNL     1       6.403   8.846  17.633  0.00  0.00    +0.000 HD
BRANCH  26  28
ATOM     28  C   UNL     1       8.474   8.695  18.026  0.00  0.00    +0.000 C 
BRANCH  28  29
ATOM     29  C   UNL     1       8.596  10.210  18.223  0.00  0.00    +0.000 C 
BRANCH  29  30
ATOM     30  N   UNL     1       9.902  10.672  18.727  0.00  0.00    +0.000 NA
ATOM     31  C   UNL     1       9.684  11.411  20.000  0.00  0.00    +0.000 C 
ATOM     32  C   UNL     1       9.078  12.821  19.825  0.00  0.00    +0.000 C 
ATOM     33  O   UNL     1       9.830  13.617  18.899  0.00  0.00    +0.000 OA
ATOM     34  C   UNL     1       9.931  12.958  17.633  0.00  0.00    +0.000 C 
ATOM     35  C   UNL     1      10.603  11.586  17.792  0.00  0.00    +0.000 C 
ENDBRANCH  29  30
ENDBRANCH  28  29
ENDBRANCH  26  28
ENDBRANCH  23  24
ENDBRANCH   4  23
TORSDOF 12
ENDMDL
MODEL 8
REMARK VINA RESULT:      -6.3      0.798      1.271
REMARK  Name = 
REMARK  18 active torsions:
REMARK  status: ('A' for Active; 'I' for Inactive)
REMARK    1  A    between atoms: C_1  and  O_2
REMARK    2  A    between atoms: O_2  and  C_3
REMARK    3  A    between atoms: C_3  and  C_4
REMARK    4  A    between atoms: C_4  and  C_5
REMARK    5  A    between atoms: C_5  and  N_6
REMARK    6  A    between atoms: C_9  and  C_10
REMARK    7  A    between atoms: C_10  and  C_11
REMARK    8  A    between atoms: N_13  and  C_14
REMARK    9  A    between atoms: C_14  and  C_15
REMARK   10  A    between atoms: C_15  and  N_16
REMARK   11  A    between atoms: C_23  and  C_24
REMARK   12  A    between atoms: N_26  and  C_27
REMARK   13  A    between atoms: N_26  and  C_30
REMARK   14  A    between atoms: C_27  and  C_28
REMARK   15  A    between atoms: C_27  and  C_29
REMARK   16  A    between atoms: C_30  and  C_31
REMARK   17  A    between atoms: C_30  and  C_32
REMARK   18  A    between atoms: C_33  and  C_34
REMARK                            x       y       z     vdW  Elec       q    Type
REMARK                         _______ _______ _______ _____ _____    ______ ____
ROOT
ATOM      1  N   UNL     1       5.709   4.707  15.363  0.00  0.00    +0.000 N 
ATOM      2  C   UNL     1       6.942   5.324  15.625  0.00  0.00    +0.000 C 
ATOM      3  O   UNL     1       7.702   5.768  14.770  0.00  0.00    +0.000 OA
ATOM      4  C   UNL     1       7.265   5.543  17.071  0.00  0.00    +0.000 C 
ATOM      5  C   UNL     1       6.655   4.420  17.908  0.00  0.00    +0.000 C 
ATOM      6  C   UNL     1       5.176   4.317  17.700  0.00  0.00    +0.000 C 
ATOM      7  C   UNL     1       4.769   4.386  16.389  0.00  0.00    +0.000 C 
ATOM      8  C   UNL     1       3.333   4.221  15.923  0.00  0.00    +0.000 C 
ENDROOT
BRANCH   6   9
ATOM      9  C   UNL     1       4.174   4.432  18.853  0.00  0.00    +0.000 C 
ATOM     10  O   UNL     1       4.504   5.265  19.711  0.00  0.00    +0.000 OA
ATOM     11  N   UNL     1       3.028   3.641  19.097  0.00  0.00    +0.000 N 
BRANCH  11  12
ATOM     12  C   UNL     1       2.608   2.364  18.417  0.00  0.00    +0.000 C 
ATOM     13  C   UNL     1       3.526   1.128  18.627  0.00  0.00    +0.000 C 
ATOM     14  C   UNL     1       1.183   1.943  18.761  0.00  0.00    +0.000 C 
ENDBRANCH  11  12
BRANCH  11  15
ATOM     15  C   UNL     1       2.167   4.050  20.267  0.00  0.00    +0.000 C 
ATOM     16  C   UNL     1       2.641   3.411  21.578  0.00  0.00    +0.000 C 
ATOM     17  C   UNL     1       1.939   5.555  20.493  0.00  0.00    +0.000 C 
ENDBRANCH  11  15
ENDBRANCH   6   9
BRANCH   1  18
ATOM     18  C   UNL     1       5.434   4.569  13.919  0.00  0.00    +0.000 C 
BRANCH  18  19
ATOM     19  C   UNL     1       5.998   3.237  13.388  0.00  0.00    +0.000 C 
BRANCH  19  20
ATOM     20  C   UNL     1       5.335   2.776  12.104  0.00  0.00    +0.000 C 
BRANCH  20  22
ATOM     21  C   UNL     1       7.407   2.165  11.168  0.00  0.00    +0.000 C 
ATOM     22  O   UNL     1       6.100   1.731  11.515  0.00  0.00    +0.000 OA
ENDBRANCH  20  22
ENDBRANCH  19  20
ENDBRANCH  18  19
ENDBRANCH   1  18
BRANCH   4  23
ATOM     23  C   UNL     1       6.822   6.953  17.445  0.00  0.00    +0.000 C 
BRANCH  23  24
ATOM     24  C   UNL     1       7.977   7.562  18.186  0.00  0.00    +0.000 C 
ATOM     25  O   UNL     1       8.539   6.942  19.078  0.00  0.00    +0.000 OA
ATOM     26  N   UNL     1       8.199   8.888  17.884  0.00  0.00    +0.000 N 
ATOM     27  H   UNL     1       7.569   9.344  17.230  0.00  0.00    +0.000 HD
BRANCH  26  28
ATOM     28  C   UNL     1       8.935   9.747  18.791  0.00  0.00    +0.000 C 
BRANCH  28  29
ATOM     29  C   UNL     1       9.536  10.996  18.139  0.00  0.00    +0.000 C 
BRANCH  29  30
ATOM     30  N   UNL     1       9.432  12.231  18.937  0.00  0.00    +0.000 NA
ATOM     31  C   UNL     1       9.904  13.373  18.108  0.00  0.00    +0.000 C 
ATOM     32  C   UNL     1      11.436  13.438  17.921  0.00  0.00    +0.000 C 
ATOM     33  O   UNL     1      12.131  13.402  19.175  0.00  0.00    +0.000 OA
ATOM     34  C   UNL     1      11.769  12.233  19.918  0.00  0.00    +0.000 C 
ATOM     35  C   UNL     1      10.254  12.204  20.172  0.00  0.00    +0.000 C 
ENDBRANCH  29  30
ENDBRANCH  28  29
ENDBRANCH  26  28
ENDBRANCH  23  24
ENDBRANCH   4  23
TORSDOF 12
ENDMDL
MODEL 9
REMARK VINA RESULT:      -6.3      6.142     10.174
REMARK  Name = 
REMARK  18 active torsions:
REMARK  status: ('A' for Active; 'I' for Inactive)
REMARK    1  A    between atoms: C_1  and  O_2
REMARK    2  A    between atoms: O_2  and  C_3
REMARK    3  A    between atoms: C_3  and  C_4
REMARK    4  A    between atoms: C_4  and  C_5
REMARK    5  A    between atoms: C_5  and  N_6
REMARK    6  A    between atoms: C_9  and  C_10
REMARK    7  A    between atoms: C_10  and  C_11
REMARK    8  A    between atoms: N_13  and  C_14
REMARK    9  A    between atoms: C_14  and  C_15
REMARK   10  A    between atoms: C_15  and  N_16
REMARK   11  A    between atoms: C_23  and  C_24
REMARK   12  A    between atoms: N_26  and  C_27
REMARK   13  A    between atoms: N_26  and  C_30
REMARK   14  A    between atoms: C_27  and  C_28
REMARK   15  A    between atoms: C_27  and  C_29
REMARK   16  A    between atoms: C_30  and  C_31
REMARK   17  A    between atoms: C_30  and  C_32
REMARK   18  A    between atoms: C_33  and  C_34
REMARK                            x       y       z     vdW  Elec       q    Type
REMARK                         _______ _______ _______ _____ _____    ______ ____
ROOT
ATOM      1  N   UNL     1      -0.854  11.669  19.447  0.00  0.00    +0.000 N 
ATOM      2  C   UNL     1      -0.521  10.344  19.767  0.00  0.00    +0.000 C 
ATOM      3  O   UNL     1      -1.327   9.429  19.898  0.00  0.00    +0.000 OA
ATOM      4  C   UNL     1       0.944  10.038  19.830  0.00  0.00    +0.000 C 
ATOM      5  C   UNL     1       1.704  11.272  20.316  0.00  0.00    +0.000 C 
ATOM      6  C   UNL     1       1.443  12.460  19.444  0.00  0.00    +0.000 C 
ATOM      7  C   UNL     1       0.124  12.654  19.109  0.00  0.00    +0.000 C 
ATOM      8  C   UNL     1      -0.396  13.834  18.308  0.00  0.00    +0.000 C 
ENDROOT
BRANCH   6   9
ATOM      9  C   UNL     1       2.566  13.221  18.734  0.00  0.00    +0.000 C 
ATOM     10  O   UNL     1       3.047  12.604  17.772  0.00  0.00    +0.000 OA
ATOM     11  N   UNL     1       3.170  14.442  19.113  0.00  0.00    +0.000 N 
BRANCH  11  12
ATOM     12  C   UNL     1       3.018  15.203  20.405  0.00  0.00    +0.000 C 
ATOM     13  C   UNL     1       1.611  15.787  20.708  0.00  0.00    +0.000 C 
ATOM     14  C   UNL     1       3.457  14.401  21.626  0.00  0.00    +0.000 C 
ENDBRANCH  11  12
BRANCH  11  15
ATOM     15  C   UNL     1       4.195  15.008  18.160  0.00  0.00    +0.000 C 
ATOM     16  C   UNL     1       3.725  16.324  17.528  0.00  0.00    +0.000 C 
ATOM     17  C   UNL     1       5.633  15.184  18.682  0.00  0.00    +0.000 C 
ENDBRANCH  11  15
ENDBRANCH   6   9
BRANCH   1  18
ATOM     18  C   UNL     1      -2.311  11.886  19.352  0.00  0.00    +0.000 C 
BRANCH  18  19
ATOM     19  C   UNL     1      -2.927  10.955  18.291  0.00  0.00    +0.000 C 
BRANCH  19  20
ATOM     20  C   UNL     1      -2.554  11.338  16.870  0.00  0.00    +0.000 C 
BRANCH  20  22
ATOM     21  C   UNL     1      -2.945  10.261  14.814  0.00  0.00    +0.000 C 
ATOM     22  O   UNL     1      -2.341  10.164  16.095  0.00  0.00    +0.000 OA
ENDBRANCH  20  22
ENDBRANCH  19  20
ENDBRANCH  18  19
ENDBRANCH   1  18
BRANCH   4  23
ATOM     23  C   UNL     1       1.373   9.499  18.470  0.00  0.00    +0.000 C 
BRANCH  23  24
ATOM     24  C   UNL     1       2.106   8.219  18.750  0.00  0.00    +0.000 C 
ATOM     25  O   UNL     1       2.000   7.667  19.836  0.00  0.00    +0.000 OA
ATOM     26  N   UNL     1       2.998   7.857  17.763  0.00  0.00    +0.000 N 
ATOM     27  H   UNL     1       3.109   8.477  16.965  0.00  0.00    +0.000 HD
BRANCH  26  28
ATOM     28  C   UNL     1       4.090   6.947  18.042  0.00  0.00    +0.000 C 
BRANCH  28  29
ATOM     29  C   UNL     1       4.708   6.294  16.801  0.00  0.00    +0.000 C 
BRANCH  29  30
ATOM     30  N   UNL     1       4.968   4.848  16.917  0.00  0.00    +0.000 NA
ATOM     31  C   UNL     1       5.949   4.629  18.014  0.00  0.00    +0.000 C 
ATOM     32  C   UNL     1       7.402   5.019  17.661  0.00  0.00    +0.000 C 
ATOM     33  O   UNL     1       7.846   4.390  16.451  0.00  0.00    +0.000 OA
ATOM     34  C   UNL     1       6.967   4.706  15.366  0.00  0.00    +0.000 C 
ATOM     35  C   UNL     1       5.535   4.251  15.684  0.00  0.00    +0.000 C 
ENDBRANCH  29  30
ENDBRANCH  28  29
ENDBRANCH  26  28
ENDBRANCH  23  24
ENDBRANCH   4  23
TORSDOF 12
ENDMDL
