MODEL 1
REMARK VINA RESULT:      -8.3      0.000      0.000
REMARK  Name = 
REMARK  6 active torsions:
REMARK  status: ('A' for Active; 'I' for Inactive)
REMARK    1  A    between atoms: C_1  and  N_2
REMARK    2  A    between atoms: N_2  and  C_3
REMARK    3  A    between atoms: N_2  and  C_24
REMARK    4  A    between atoms: C_3  and  C_4
REMARK    5  A    between atoms: C_8  and  C_9
REMARK    6  A    between atoms: C_17  and  C_18
REMARK                            x       y       z     vdW  Elec       q    Type
REMARK                         _______ _______ _______ _____ _____    ______ ____
ROOT
ATOM      1  C   UNL     1       6.046   4.669  16.705  0.00  0.00    +0.000 A 
ATOM      2  N   UNL     1       5.623   3.755  15.779  0.00  0.00    +0.000 NA
ATOM      3  C   UNL     1       6.108   3.852  14.539  0.00  0.00    +0.000 A 
ATOM      4  C   UNL     1       5.705   2.916  13.597  0.00  0.00    +0.000 A 
ATOM      5  C   UNL     1       6.179   2.945  12.281  0.00  0.00    +0.000 A 
ATOM      6  C   UNL     1       7.081   3.951  11.930  0.00  0.00    +0.000 A 
ATOM      7  C   UNL     1       7.484   4.897  12.882  0.00  0.00    +0.000 A 
ATOM      8  C   UNL     1       7.016   4.868  14.189  0.00  0.00    +0.000 A 
ATOM      9  N   UNL     1       7.429   5.780  15.101  0.00  0.00    +0.000 NA
ATOM     10  C   UNL     1       6.963   5.684  16.384  0.00  0.00    +0.000 A 
ENDROOT
BRANCH  10  11
ATOM     11  C   UNL     1       7.524   6.707  17.319  0.00  0.00    +0.000 A 
ATOM     12  C   UNL     1       8.035   6.332  18.575  0.00  0.00    +0.000 A 
ATOM     13  C   UNL     1       8.566   7.278  19.467  0.00  0.00    +0.000 A 
ATOM     14  C   UNL     1       8.608   8.625  19.128  0.00  0.00    +0.000 A 
ATOM     15  C   UNL     1       8.101   9.032  17.905  0.00  0.00    +0.000 A 
ATOM     16  C   UNL     1       7.549   8.086  17.038  0.00  0.00    +0.000 A 
ENDBRANCH  10  11
BRANCH   5  17
ATOM     17  C   UNL     1       5.734   1.913  11.273  0.00  0.00    +0.000 C 
ATOM     18  F   UNL     1       4.516   2.175  10.722  0.00  0.00    +0.000 F 
ATOM     19  F   UNL     1       6.598   1.802  10.228  0.00  0.00    +0.000 F 
ATOM     20  F   UNL     1       5.637   0.667  11.814  0.00  0.00    +0.000 F 
ENDBRANCH   5  17
BRANCH   1  21
ATOM     21  C   UNL     1       5.462   4.457  18.084  0.00  0.00    +0.000 C 
BRANCH  21  23
ATOM     22  C   UNL     1       3.668   6.261  17.725  0.00  0.00    +0.000 C 
ATOM     23  N   UNL     1       4.089   4.975  18.281  0.00  0.00    +0.000 N 
BRANCH  23  24
ATOM     24  C   UNL     1       3.263   4.342  19.213  0.00  0.00    +0.000 A 
ATOM     25  C   UNL     1       1.957   4.796  19.464  0.00  0.00    +0.000 A 
ATOM     26  C   UNL     1       1.141   4.196  20.429  0.00  0.00    +0.000 A 
ATOM     27  C   UNL     1       1.619   3.115  21.153  0.00  0.00    +0.000 A 
ATOM     28  F   UNL     1       0.841   2.538  22.076  0.00  0.00    +0.000 F 
ATOM     29  C   UNL     1       2.896   2.631  20.928  0.00  0.00    +0.000 A 
ATOM     30  C   UNL     1       3.710   3.243  19.971  0.00  0.00    +0.000 A 
ENDBRANCH  23  24
ENDBRANCH  21  23
ENDBRANCH   1  21
TORSDOF 5
ENDMDL
MODEL 2
REMARK VINA RESULT:      -8.3      0.092      1.416
REMARK  Name = 
REMARK  6 active torsions:
REMARK  status: ('A' for Active; 'I' for Inactive)
REMARK    1  A    between atoms: C_1  and  N_2
REMARK    2  A    between atoms: N_2  and  C_3
REMARK    3  A    between atoms: N_2  and  C_24
REMARK    4  A    between atoms: C_3  and  C_4
REMARK    5  A    between atoms: C_8  and  C_9
REMARK    6  A    between atoms: C_17  and  C_18
REMARK                            x       y       z     vdW  Elec       q    Type
REMARK                         _______ _______ _______ _____ _____    ______ ____
ROOT
ATOM      1  C   UNL     1       6.050   4.739  16.745  0.00  0.00    +0.000 A 
ATOM      2  N   UNL     1       5.621   3.824  15.822  0.00  0.00    +0.000 NA
ATOM      3  C   UNL     1       6.111   3.911  14.583  0.00  0.00    +0.000 A 
ATOM      4  C   UNL     1       5.703   2.974  13.644  0.00  0.00    +0.000 A 
ATOM      5  C   UNL     1       6.182   2.992  12.329  0.00  0.00    +0.000 A 
ATOM      6  C   UNL     1       7.095   3.989  11.977  0.00  0.00    +0.000 A 
ATOM      7  C   UNL     1       7.502   4.936  12.925  0.00  0.00    +0.000 A 
ATOM      8  C   UNL     1       7.030   4.917  14.231  0.00  0.00    +0.000 A 
ATOM      9  N   UNL     1       7.448   5.829  15.140  0.00  0.00    +0.000 NA
ATOM     10  C   UNL     1       6.977   5.744  16.422  0.00  0.00    +0.000 A 
ENDROOT
BRANCH  10  11
ATOM     11  C   UNL     1       7.543   6.766  17.354  0.00  0.00    +0.000 A 
ATOM     12  C   UNL     1       7.560   8.129  17.007  0.00  0.00    +0.000 A 
ATOM     13  C   UNL     1       8.087   9.103  17.869  0.00  0.00    +0.000 A 
ATOM     14  C   UNL     1       8.608   8.746  19.107  0.00  0.00    +0.000 A 
ATOM     15  C   UNL     1       8.620   7.412  19.478  0.00  0.00    +0.000 A 
ATOM     16  C   UNL     1       8.119   6.447  18.599  0.00  0.00    +0.000 A 
ENDBRANCH  10  11
BRANCH   5  17
ATOM     17  C   UNL     1       5.731   1.960  11.325  0.00  0.00    +0.000 C 
ATOM     18  F   UNL     1       5.616   0.705  11.843  0.00  0.00    +0.000 F 
ATOM     19  F   UNL     1       4.516   2.254  10.788  0.00  0.00    +0.000 F 
ATOM     20  F   UNL     1       6.590   1.851  10.273  0.00  0.00    +0.000 F 
ENDBRANCH   5  17
BRANCH   1  21
ATOM     21  C   UNL     1       5.458   4.538  18.123  0.00  0.00    +0.000 C 
BRANCH  21  23
ATOM     22  C   UNL     1       3.614   6.271  17.674  0.00  0.00    +0.000 C 
ATOM     23  N   UNL     1       4.073   5.030  18.299  0.00  0.00    +0.000 N 
BRANCH  23  24
ATOM     24  C   UNL     1       3.270   4.429  19.272  0.00  0.00    +0.000 A 
ATOM     25  C   UNL     1       3.680   3.264  19.944  0.00  0.00    +0.000 A 
ATOM     26  C   UNL     1       2.861   2.632  20.885  0.00  0.00    +0.000 A 
ATOM     27  C   UNL     1       1.618   3.167  21.181  0.00  0.00    +0.000 A 
ATOM     28  F   UNL     1       0.833   2.564  22.082  0.00  0.00    +0.000 F 
ATOM     29  C   UNL     1       1.182   4.318  20.549  0.00  0.00    +0.000 A 
ATOM     30  C   UNL     1       2.000   4.939  19.601  0.00  0.00    +0.000 A 
ENDBRANCH  23  24
ENDBRANCH  21  23
ENDBRANCH   1  21
TORSDOF 5
ENDMDL
MODEL 3
REMARK VINA RESULT:      -8.2      4.871      8.781
REMARK  Name = 
REMARK  6 active torsions:
REMARK  status: ('A' for Active; 'I' for Inactive)
REMARK    1  A    between atoms: C_1  and  N_2
REMARK    2  A    between atoms: N_2  and  C_3
REMARK    3  A    between atoms: N_2  and  C_24
REMARK    4  A    between atoms: C_3  and  C_4
REMARK    5  A    between atoms: C_8  and  C_9
REMARK    6  A    between atoms: C_17  and  C_18
REMARK                            x       y       z     vdW  Elec       q    Type
REMARK                         _______ _______ _______ _____ _____    ______ ____
ROOT
ATOM      1  C   UNL     1       2.467   6.515  18.334  0.00  0.00    +0.000 A 
ATOM      2  N   UNL     1       2.526   7.807  17.888  0.00  0.00    +0.000 NA
ATOM      3  C   UNL     1       2.028   8.763  18.676  0.00  0.00    +0.000 A 
ATOM      4  C   UNL     1       2.104  10.080  18.246  0.00  0.00    +0.000 A 
ATOM      5  C   UNL     1       1.615  11.138  19.021  0.00  0.00    +0.000 A 
ATOM      6  C   UNL     1       1.040  10.834  20.257  0.00  0.00    +0.000 A 
ATOM      7  C   UNL     1       0.961   9.503  20.687  0.00  0.00    +0.000 A 
ATOM      8  C   UNL     1       1.449   8.453  19.920  0.00  0.00    +0.000 A 
ATOM      9  N   UNL     1       1.380   7.174  20.359  0.00  0.00    +0.000 NA
ATOM     10  C   UNL     1       1.907   6.182  19.578  0.00  0.00    +0.000 A 
ENDROOT
BRANCH  10  11
ATOM     11  C   UNL     1       1.826   4.816  20.182  0.00  0.00    +0.000 A 
ATOM     12  C   UNL     1       1.017   3.820  19.606  0.00  0.00    +0.000 A 
ATOM     13  C   UNL     1       0.928   2.533  20.157  0.00  0.00    +0.000 A 
ATOM     14  C   UNL     1       1.650   2.199  21.298  0.00  0.00    +0.000 A 
ATOM     15  C   UNL     1       2.446   3.158  21.900  0.00  0.00    +0.000 A 
ATOM     16  C   UNL     1       2.505   4.446  21.358  0.00  0.00    +0.000 A 
ENDBRANCH  10  11
BRANCH   5  17
ATOM     17  C   UNL     1       1.714  12.564  18.538  0.00  0.00    +0.000 C 
ATOM     18  F   UNL     1       2.155  13.435  19.490  0.00  0.00    +0.000 F 
ATOM     19  F   UNL     1       2.567  12.699  17.487  0.00  0.00    +0.000 F 
ATOM     20  F   UNL     1       0.515  13.052  18.114  0.00  0.00    +0.000 F 
ENDBRANCH   5  17
BRANCH   1  21
ATOM     21  C   UNL     1       3.083   5.512  17.382  0.00  0.00    +0.000 C 
BRANCH  21  23
ATOM     22  C   UNL     1       4.276   3.465  18.377  0.00  0.00    +0.000 C 
ATOM     23  N   UNL     1       4.307   4.838  17.872  0.00  0.00    +0.000 N 
BRANCH  23  24
ATOM     24  C   UNL     1       5.454   5.606  18.081  0.00  0.00    +0.000 A 
ATOM     25  C   UNL     1       5.778   6.686  17.240  0.00  0.00    +0.000 A 
ATOM     26  C   UNL     1       6.949   7.430  17.415  0.00  0.00    +0.000 A 
ATOM     27  C   UNL     1       7.812   7.113  18.451  0.00  0.00    +0.000 A 
ATOM     28  F   UNL     1       8.933   7.825  18.623  0.00  0.00    +0.000 F 
ATOM     29  C   UNL     1       7.525   6.066  19.308  0.00  0.00    +0.000 A 
ATOM     30  C   UNL     1       6.359   5.318  19.120  0.00  0.00    +0.000 A 
ENDBRANCH  23  24
ENDBRANCH  21  23
ENDBRANCH   1  21
TORSDOF 5
ENDMDL
MODEL 4
REMARK VINA RESULT:      -8.1      4.873      8.789
REMARK  Name = 
REMARK  6 active torsions:
REMARK  status: ('A' for Active; 'I' for Inactive)
REMARK    1  A    between atoms: C_1  and  N_2
REMARK    2  A    between atoms: N_2  and  C_3
REMARK    3  A    between atoms: N_2  and  C_24
REMARK    4  A    between atoms: C_3  and  C_4
REMARK    5  A    between atoms: C_8  and  C_9
REMARK    6  A    between atoms: C_17  and  C_18
REMARK                            x       y       z     vdW  Elec       q    Type
REMARK                         _______ _______ _______ _____ _____    ______ ____
ROOT
ATOM      1  C   UNL     1       2.491   6.514  18.325  0.00  0.00    +0.000 A 
ATOM      2  N   UNL     1       2.567   7.806  17.881  0.00  0.00    +0.000 NA
ATOM      3  C   UNL     1       2.053   8.764  18.655  0.00  0.00    +0.000 A 
ATOM      4  C   UNL     1       2.146  10.080  18.227  0.00  0.00    +0.000 A 
ATOM      5  C   UNL     1       1.643  11.141  18.989  0.00  0.00    +0.000 A 
ATOM      6  C   UNL     1       1.036  10.841  20.210  0.00  0.00    +0.000 A 
ATOM      7  C   UNL     1       0.939   9.510  20.639  0.00  0.00    +0.000 A 
ATOM      8  C   UNL     1       1.442   8.458  19.885  0.00  0.00    +0.000 A 
ATOM      9  N   UNL     1       1.356   7.179  20.322  0.00  0.00    +0.000 NA
ATOM     10  C   UNL     1       1.898   6.184  19.555  0.00  0.00    +0.000 A 
ENDROOT
BRANCH  10  11
ATOM     11  C   UNL     1       1.796   4.819  20.157  0.00  0.00    +0.000 A 
ATOM     12  C   UNL     1       2.474   4.504  21.349  0.00  0.00    +0.000 A 
ATOM     13  C   UNL     1       2.389   3.228  21.929  0.00  0.00    +0.000 A 
ATOM     14  C   UNL     1       1.620   2.232  21.340  0.00  0.00    +0.000 A 
ATOM     15  C   UNL     1       0.949   2.502  20.160  0.00  0.00    +0.000 A 
ATOM     16  C   UNL     1       1.063   3.767  19.575  0.00  0.00    +0.000 A 
ENDBRANCH  10  11
BRANCH   5  17
ATOM     17  C   UNL     1       1.760  12.567  18.508  0.00  0.00    +0.000 C 
ATOM     18  F   UNL     1       0.588  13.089  18.051  0.00  0.00    +0.000 F 
ATOM     19  F   UNL     1       2.187  13.410  19.487  0.00  0.00    +0.000 F 
ATOM     20  F   UNL     1       2.650  12.698  17.485  0.00  0.00    +0.000 F 
ENDBRANCH   5  17
BRANCH   1  21
ATOM     21  C   UNL     1       3.126   5.508  17.390  0.00  0.00    +0.000 C 
BRANCH  21  23
ATOM     22  C   UNL     1       4.279   3.493  18.492  0.00  0.00    +0.000 C 
ATOM     23  N   UNL     1       4.338   4.833  17.909  0.00  0.00    +0.000 N 
BRANCH  23  24
ATOM     24  C   UNL     1       5.505   5.584  18.064  0.00  0.00    +0.000 A 
ATOM     25  C   UNL     1       6.411   5.325  19.108  0.00  0.00    +0.000 A 
ATOM     26  C   UNL     1       7.558   6.102  19.297  0.00  0.00    +0.000 A 
ATOM     27  C   UNL     1       7.825   7.150  18.431  0.00  0.00    +0.000 A 
ATOM     28  F   UNL     1       8.923   7.896  18.608  0.00  0.00    +0.000 F 
ATOM     29  C   UNL     1       6.964   7.432  17.385  0.00  0.00    +0.000 A 
ATOM     30  C   UNL     1       5.813   6.659  17.209  0.00  0.00    +0.000 A 
ENDBRANCH  23  24
ENDBRANCH  21  23
ENDBRANCH   1  21
TORSDOF 5
ENDMDL
MODEL 5
REMARK VINA RESULT:      -8.0      3.857      7.711
REMARK  Name = 
REMARK  6 active torsions:
REMARK  status: ('A' for Active; 'I' for Inactive)
REMARK    1  A    between atoms: C_1  and  N_2
REMARK    2  A    between atoms: N_2  and  C_3
REMARK    3  A    between atoms: N_2  and  C_24
REMARK    4  A    between atoms: C_3  and  C_4
REMARK    5  A    between atoms: C_8  and  C_9
REMARK    6  A    between atoms: C_17  and  C_18
REMARK                            x       y       z     vdW  Elec       q    Type
REMARK                         _______ _______ _______ _____ _____    ______ ____
ROOT
ATOM      1  C   UNL     1       5.447   5.589  17.058  0.00  0.00    +0.000 A 
ATOM      2  N   UNL     1       4.799   5.493  18.259  0.00  0.00    +0.000 NA
ATOM      3  C   UNL     1       4.086   4.390  18.498  0.00  0.00    +0.000 A 
ATOM      4  C   UNL     1       3.444   4.270  19.722  0.00  0.00    +0.000 A 
ATOM      5  C   UNL     1       2.689   3.139  20.051  0.00  0.00    +0.000 A 
ATOM      6  C   UNL     1       2.594   2.116  19.105  0.00  0.00    +0.000 A 
ATOM      7  C   UNL     1       3.240   2.241  17.867  0.00  0.00    +0.000 A 
ATOM      8  C   UNL     1       3.993   3.362  17.542  0.00  0.00    +0.000 A 
ATOM      9  N   UNL     1       4.625   3.459  16.349  0.00  0.00    +0.000 NA
ATOM     10  C   UNL     1       5.381   4.570  16.093  0.00  0.00    +0.000 A 
ENDROOT
BRANCH  10  11
ATOM     11  C   UNL     1       6.077   4.549  14.770  0.00  0.00    +0.000 A 
ATOM     12  C   UNL     1       5.577   3.780  13.704  0.00  0.00    +0.000 A 
ATOM     13  C   UNL     1       6.216   3.748  12.455  0.00  0.00    +0.000 A 
ATOM     14  C   UNL     1       7.372   4.487  12.231  0.00  0.00    +0.000 A 
ATOM     15  C   UNL     1       7.901   5.245  13.262  0.00  0.00    +0.000 A 
ATOM     16  C   UNL     1       7.271   5.247  14.510  0.00  0.00    +0.000 A 
ENDBRANCH  10  11
BRANCH   5  17
ATOM     17  C   UNL     1       2.004   3.025  21.391  0.00  0.00    +0.000 C 
ATOM     18  F   UNL     1       0.644   2.986  21.309  0.00  0.00    +0.000 F 
ATOM     19  F   UNL     1       2.369   1.901  22.066  0.00  0.00    +0.000 F 
ATOM     20  F   UNL     1       2.298   4.069  22.214  0.00  0.00    +0.000 F 
ENDBRANCH   5  17
BRANCH   1  21
ATOM     21  C   UNL     1       6.249   6.862  16.896  0.00  0.00    +0.000 C 
BRANCH  21  23
ATOM     22  C   UNL     1       7.840   5.910  18.676  0.00  0.00    +0.000 C 
ATOM     23  N   UNL     1       7.405   7.007  17.811  0.00  0.00    +0.000 N 
BRANCH  23  24
ATOM     24  C   UNL     1       7.930   8.283  18.026  0.00  0.00    +0.000 A 
ATOM     25  C   UNL     1       8.888   8.524  19.027  0.00  0.00    +0.000 A 
ATOM     26  C   UNL     1       9.383   9.807  19.278  0.00  0.00    +0.000 A 
ATOM     27  C   UNL     1       8.935  10.875  18.517  0.00  0.00    +0.000 A 
ATOM     28  F   UNL     1       9.408  12.104  18.754  0.00  0.00    +0.000 F 
ATOM     29  C   UNL     1       8.001  10.678  17.515  0.00  0.00    +0.000 A 
ATOM     30  C   UNL     1       7.501   9.395  17.277  0.00  0.00    +0.000 A 
ENDBRANCH  23  24
ENDBRANCH  21  23
ENDBRANCH   1  21
TORSDOF 5
ENDMDL
MODEL 6
REMARK VINA RESULT:      -8.0      4.956      8.796
REMARK  Name = 
REMARK  6 active torsions:
REMARK  status: ('A' for Active; 'I' for Inactive)
REMARK    1  A    between atoms: C_1  and  N_2
REMARK    2  A    between atoms: N_2  and  C_3
REMARK    3  A    between atoms: N_2  and  C_24
REMARK    4  A    between atoms: C_3  and  C_4
REMARK    5  A    between atoms: C_8  and  C_9
REMARK    6  A    between atoms: C_17  and  C_18
REMARK                            x       y       z     vdW  Elec       q    Type
REMARK                         _______ _______ _______ _____ _____    ______ ____
ROOT
ATOM      1  C   UNL     1       2.521   6.886  18.254  0.00  0.00    +0.000 A 
ATOM      2  N   UNL     1       2.544   8.192  17.846  0.00  0.00    +0.000 NA
ATOM      3  C   UNL     1       1.955   9.100  18.626  0.00  0.00    +0.000 A 
ATOM      4  C   UNL     1       1.993  10.431  18.235  0.00  0.00    +0.000 A 
ATOM      5  C   UNL     1       1.409  11.442  19.006  0.00  0.00    +0.000 A 
ATOM      6  C   UNL     1       0.778  11.077  20.198  0.00  0.00    +0.000 A 
ATOM      7  C   UNL     1       0.737   9.732  20.588  0.00  0.00    +0.000 A 
ATOM      8  C   UNL     1       1.320   8.729  19.825  0.00  0.00    +0.000 A 
ATOM      9  N   UNL     1       1.287   7.436  20.226  0.00  0.00    +0.000 NA
ATOM     10  C   UNL     1       1.906   6.492  19.453  0.00  0.00    +0.000 A 
ENDROOT
BRANCH  10  11
ATOM     11  C   UNL     1       1.856   5.107  20.016  0.00  0.00    +0.000 A 
ATOM     12  C   UNL     1       1.172   4.079  19.341  0.00  0.00    +0.000 A 
ATOM     13  C   UNL     1       1.114   2.774  19.853  0.00  0.00    +0.000 A 
ATOM     14  C   UNL     1       1.742   2.454  21.051  0.00  0.00    +0.000 A 
ATOM     15  C   UNL     1       2.413   3.444  21.750  0.00  0.00    +0.000 A 
ATOM     16  C   UNL     1       2.440   4.747  21.244  0.00  0.00    +0.000 A 
ENDBRANCH  10  11
BRANCH   5  17
ATOM     17  C   UNL     1       1.467  12.885  18.567  0.00  0.00    +0.000 C 
ATOM     18  F   UNL     1       1.785  13.750  19.571  0.00  0.00    +0.000 F 
ATOM     19  F   UNL     1       2.389  13.093  17.589  0.00  0.00    +0.000 F 
ATOM     20  F   UNL     1       0.279  13.322  18.063  0.00  0.00    +0.000 F 
ENDBRANCH   5  17
BRANCH   1  21
ATOM     21  C   UNL     1       3.240   5.940  17.316  0.00  0.00    +0.000 C 
BRANCH  21  23
ATOM     22  C   UNL     1       4.858   6.785  15.507  0.00  0.00    +0.000 C 
ATOM     23  N   UNL     1       4.589   6.373  16.885  0.00  0.00    +0.000 N 
BRANCH  23  24
ATOM     24  C   UNL     1       5.667   6.151  17.744  0.00  0.00    +0.000 A 
ATOM     25  C   UNL     1       6.860   6.886  17.630  0.00  0.00    +0.000 A 
ATOM     26  C   UNL     1       7.960   6.638  18.457  0.00  0.00    +0.000 A 
ATOM     27  C   UNL     1       7.878   5.652  19.427  0.00  0.00    +0.000 A 
ATOM     28  F   UNL     1       8.929   5.412  20.221  0.00  0.00    +0.000 F 
ATOM     29  C   UNL     1       6.717   4.913  19.580  0.00  0.00    +0.000 A 
ATOM     30  C   UNL     1       5.626   5.159  18.742  0.00  0.00    +0.000 A 
ENDBRANCH  23  24
ENDBRANCH  21  23
ENDBRANCH   1  21
TORSDOF 5
ENDMDL
MODEL 7
REMARK VINA RESULT:      -8.0      3.857      7.684
REMARK  Name = 
REMARK  6 active torsions:
REMARK  status: ('A' for Active; 'I' for Inactive)
REMARK    1  A    between atoms: C_1  and  N_2
REMARK    2  A    between atoms: N_2  and  C_3
REMARK    3  A    between atoms: N_2  and  C_24
REMARK    4  A    between atoms: C_3  and  C_4
REMARK    5  A    between atoms: C_8  and  C_9
REMARK    6  A    between atoms: C_17  and  C_18
REMARK                            x       y       z     vdW  Elec       q    Type
REMARK                         _______ _______ _______ _____ _____    ______ ____
ROOT
ATOM      1  C   UNL     1       5.441   5.587  17.051  0.00  0.00    +0.000 A 
ATOM      2  N   UNL     1       4.790   5.495  18.250  0.00  0.00    +0.000 NA
ATOM      3  C   UNL     1       4.078   4.392  18.492  0.00  0.00    +0.000 A 
ATOM      4  C   UNL     1       3.433   4.276  19.715  0.00  0.00    +0.000 A 
ATOM      5  C   UNL     1       2.679   3.145  20.047  0.00  0.00    +0.000 A 
ATOM      6  C   UNL     1       2.590   2.117  19.105  0.00  0.00    +0.000 A 
ATOM      7  C   UNL     1       3.239   2.238  17.869  0.00  0.00    +0.000 A 
ATOM      8  C   UNL     1       3.990   3.359  17.541  0.00  0.00    +0.000 A 
ATOM      9  N   UNL     1       4.626   3.452  16.349  0.00  0.00    +0.000 NA
ATOM     10  C   UNL     1       5.380   4.563  16.091  0.00  0.00    +0.000 A 
ENDROOT
BRANCH  10  11
ATOM     11  C   UNL     1       6.081   4.537  14.770  0.00  0.00    +0.000 A 
ATOM     12  C   UNL     1       5.587   3.760  13.707  0.00  0.00    +0.000 A 
ATOM     13  C   UNL     1       6.230   3.723  12.460  0.00  0.00    +0.000 A 
ATOM     14  C   UNL     1       7.383   4.467  12.236  0.00  0.00    +0.000 A 
ATOM     15  C   UNL     1       7.905   5.234  13.263  0.00  0.00    +0.000 A 
ATOM     16  C   UNL     1       7.272   5.240  14.509  0.00  0.00    +0.000 A 
ENDBRANCH  10  11
BRANCH   5  17
ATOM     17  C   UNL     1       1.990   3.035  21.385  0.00  0.00    +0.000 C 
ATOM     18  F   UNL     1       2.234   1.861  22.032  0.00  0.00    +0.000 F 
ATOM     19  F   UNL     1       2.368   4.019  22.245  0.00  0.00    +0.000 F 
ATOM     20  F   UNL     1       0.636   3.128  21.280  0.00  0.00    +0.000 F 
ENDBRANCH   5  17
BRANCH   1  21
ATOM     21  C   UNL     1       6.241   6.861  16.886  0.00  0.00    +0.000 C 
BRANCH  21  23
ATOM     22  C   UNL     1       7.853   5.908  18.646  0.00  0.00    +0.000 C 
ATOM     23  N   UNL     1       7.394   7.012  17.803  0.00  0.00    +0.000 N 
BRANCH  23  24
ATOM     24  C   UNL     1       7.891   8.295  18.043  0.00  0.00    +0.000 A 
ATOM     25  C   UNL     1       7.466   9.401  17.285  0.00  0.00    +0.000 A 
ATOM     26  C   UNL     1       7.995  10.680  17.489  0.00  0.00    +0.000 A 
ATOM     27  C   UNL     1       8.952  10.876  18.471  0.00  0.00    +0.000 A 
ATOM     28  F   UNL     1       9.459  12.099  18.670  0.00  0.00    +0.000 F 
ATOM     29  C   UNL     1       9.390   9.816  19.246  0.00  0.00    +0.000 A 
ATOM     30  C   UNL     1       8.866   8.538  19.028  0.00  0.00    +0.000 A 
ENDBRANCH  23  24
ENDBRANCH  21  23
ENDBRANCH   1  21
TORSDOF 5
ENDMDL
MODEL 8
REMARK VINA RESULT:      -7.9      9.072     11.828
REMARK  Name = 
REMARK  6 active torsions:
REMARK  status: ('A' for Active; 'I' for Inactive)
REMARK    1  A    between atoms: C_1  and  N_2
REMARK    2  A    between atoms: N_2  and  C_3
REMARK    3  A    between atoms: N_2  and  C_24
REMARK    4  A    between atoms: C_3  and  C_4
REMARK    5  A    between atoms: C_8  and  C_9
REMARK    6  A    between atoms: C_17  and  C_18
REMARK                            x       y       z     vdW  Elec       q    Type
REMARK                         _______ _______ _______ _____ _____    ______ ____
ROOT
ATOM      1  C   UNL     1      -1.278  11.806  20.395  0.00  0.00    +0.000 A 
ATOM      2  N   UNL     1      -0.575  11.002  19.540  0.00  0.00    +0.000 NA
ATOM      3  C   UNL     1       0.206  10.058  20.070  0.00  0.00    +0.000 A 
ATOM      4  C   UNL     1       0.905   9.221  19.213  0.00  0.00    +0.000 A 
ATOM      5  C   UNL     1       1.734   8.201  19.693  0.00  0.00    +0.000 A 
ATOM      6  C   UNL     1       1.842   8.039  21.076  0.00  0.00    +0.000 A 
ATOM      7  C   UNL     1       1.138   8.888  21.940  0.00  0.00    +0.000 A 
ATOM      8  C   UNL     1       0.313   9.899  21.464  0.00  0.00    +0.000 A 
ATOM      9  N   UNL     1      -0.374  10.700  22.312  0.00  0.00    +0.000 NA
ATOM     10  C   UNL     1      -1.199  11.658  21.789  0.00  0.00    +0.000 A 
ENDROOT
BRANCH  10  11
ATOM     11  C   UNL     1      -1.950  12.448  22.813  0.00  0.00    +0.000 A 
ATOM     12  C   UNL     1      -1.520  13.734  23.190  0.00  0.00    +0.000 A 
ATOM     13  C   UNL     1      -2.212  14.490  24.148  0.00  0.00    +0.000 A 
ATOM     14  C   UNL     1      -3.357  13.989  24.755  0.00  0.00    +0.000 A 
ATOM     15  C   UNL     1      -3.803  12.722  24.418  0.00  0.00    +0.000 A 
ATOM     16  C   UNL     1      -3.090  11.966  23.484  0.00  0.00    +0.000 A 
ENDBRANCH  10  11
BRANCH   5  17
ATOM     17  C   UNL     1       2.481   7.296  18.744  0.00  0.00    +0.000 C 
ATOM     18  F   UNL     1       3.465   6.568  19.342  0.00  0.00    +0.000 F 
ATOM     19  F   UNL     1       1.665   6.391  18.138  0.00  0.00    +0.000 F 
ATOM     20  F   UNL     1       3.088   7.986  17.739  0.00  0.00    +0.000 F 
ENDBRANCH   5  17
BRANCH   1  21
ATOM     21  C   UNL     1      -2.153  12.823  19.696  0.00  0.00    +0.000 C 
BRANCH  21  23
ATOM     22  C   UNL     1      -4.057  11.669  18.413  0.00  0.00    +0.000 C 
ATOM     23  N   UNL     1      -3.579  12.448  19.555  0.00  0.00    +0.000 N 
BRANCH  23  24
ATOM     24  C   UNL     1      -4.514  13.054  20.396  0.00  0.00    +0.000 A 
ATOM     25  C   UNL     1      -4.371  14.390  20.813  0.00  0.00    +0.000 A 
ATOM     26  C   UNL     1      -5.279  14.988  21.691  0.00  0.00    +0.000 A 
ATOM     27  C   UNL     1      -6.360  14.259  22.160  0.00  0.00    +0.000 A 
ATOM     28  F   UNL     1      -7.232  14.830  23.000  0.00  0.00    +0.000 F 
ATOM     29  C   UNL     1      -6.544  12.946  21.765  0.00  0.00    +0.000 A 
ATOM     30  C   UNL     1      -5.626  12.350  20.896  0.00  0.00    +0.000 A 
ENDBRANCH  23  24
ENDBRANCH  21  23
ENDBRANCH   1  21
TORSDOF 5
ENDMDL
MODEL 9
REMARK VINA RESULT:      -7.8      9.082     11.840
REMARK  Name = 
REMARK  6 active torsions:
REMARK  status: ('A' for Active; 'I' for Inactive)
REMARK    1  A    between atoms: C_1  and  N_2
REMARK    2  A    between atoms: N_2  and  C_3
REMARK    3  A    between atoms: N_2  and  C_24
REMARK    4  A    between atoms: C_3  and  C_4
REMARK    5  A    between atoms: C_8  and  C_9
REMARK    6  A    between atoms: C_17  and  C_18
REMARK                            x       y       z     vdW  Elec       q    Type
REMARK                         _______ _______ _______ _____ _____    ______ ____
ROOT
ATOM      1  C   UNL     1      -1.209  11.824  20.491  0.00  0.00    +0.000 A 
ATOM      2  N   UNL     1      -0.512  11.000  19.650  0.00  0.00    +0.000 NA
ATOM      3  C   UNL     1       0.258  10.056  20.196  0.00  0.00    +0.000 A 
ATOM      4  C   UNL     1       0.950   9.199  19.353  0.00  0.00    +0.000 A 
ATOM      5  C   UNL     1       1.767   8.177  19.850  0.00  0.00    +0.000 A 
ATOM      6  C   UNL     1       1.870   8.035  21.235  0.00  0.00    +0.000 A 
ATOM      7  C   UNL     1       1.173   8.904  22.085  0.00  0.00    +0.000 A 
ATOM      8  C   UNL     1       0.360   9.916  21.592  0.00  0.00    +0.000 A 
ATOM      9  N   UNL     1      -0.321  10.737  22.427  0.00  0.00    +0.000 NA
ATOM     10  C   UNL     1      -1.135  11.695  21.888  0.00  0.00    +0.000 A 
ENDROOT
BRANCH  10  11
ATOM     11  C   UNL     1      -1.880  12.508  22.898  0.00  0.00    +0.000 A 
ATOM     12  C   UNL     1      -3.069  12.028  23.476  0.00  0.00    +0.000 A 
ATOM     13  C   UNL     1      -3.782  12.776  24.425  0.00  0.00    +0.000 A 
ATOM     14  C   UNL     1      -3.325  14.024  24.832  0.00  0.00    +0.000 A 
ATOM     15  C   UNL     1      -2.165  14.535  24.275  0.00  0.00    +0.000 A 
ATOM     16  C   UNL     1      -1.479  13.793  23.309  0.00  0.00    +0.000 A 
ENDBRANCH  10  11
BRANCH   5  17
ATOM     17  C   UNL     1       2.507   7.251  18.916  0.00  0.00    +0.000 C 
ATOM     18  F   UNL     1       3.312   7.898  18.027  0.00  0.00    +0.000 F 
ATOM     19  F   UNL     1       3.312   6.379  19.580  0.00  0.00    +0.000 F 
ATOM     20  F   UNL     1       1.664   6.487  18.167  0.00  0.00    +0.000 F 
ENDBRANCH   5  17
BRANCH   1  21
ATOM     21  C   UNL     1      -2.072  12.840  19.775  0.00  0.00    +0.000 C 
BRANCH  21  23
ATOM     22  C   UNL     1      -3.966  11.703  18.462  0.00  0.00    +0.000 C 
ATOM     23  N   UNL     1      -3.497  12.468  19.618  0.00  0.00    +0.000 N 
BRANCH  23  24
ATOM     24  C   UNL     1      -4.439  13.064  20.458  0.00  0.00    +0.000 A 
ATOM     25  C   UNL     1      -5.584  12.369  20.887  0.00  0.00    +0.000 A 
ATOM     26  C   UNL     1      -6.555  12.975  21.691  0.00  0.00    +0.000 A 
ATOM     27  C   UNL     1      -6.387  14.290  22.093  0.00  0.00    +0.000 A 
ATOM     28  F   UNL     1      -7.313  14.873  22.864  0.00  0.00    +0.000 F 
ATOM     29  C   UNL     1      -5.268  15.005  21.702  0.00  0.00    +0.000 A 
ATOM     30  C   UNL     1      -4.308  14.398  20.889  0.00  0.00    +0.000 A 
ENDBRANCH  23  24
ENDBRANCH  21  23
ENDBRANCH   1  21
TORSDOF 5
ENDMDL
