MODEL 1
REMARK VINA RESULT:      -5.8      0.000      0.000
REMARK  Name = 
REMARK  9 active torsions:
REMARK  status: ('A' for Active; 'I' for Inactive)
REMARK    1  A    between atoms: C_1  and  C_2
REMARK    2  A    between atoms: C_2  and  C_3
REMARK    3  A    between atoms: C_2  and  N_4
REMARK    4  A    between atoms: C_5  and  C_7
REMARK    5  A    between atoms: C_7  and  C_8
REMARK    6  A    between atoms: C_7  and  C_10
REMARK    7  A    between atoms: C_10  and  C_11
REMARK    8  A    between atoms: C_10  and  C_12
REMARK    9  A    between atoms: C_10  and  C_13
REMARK                            x       y       z     vdW  Elec       q    Type
REMARK                         _______ _______ _______ _____ _____    ______ ____
ROOT
ATOM      1  N   UNL     1       5.678   4.067  19.015  0.00  0.00    +0.000 N 
ATOM      2  C   UNL     1       4.363   3.897  18.612  0.00  0.00    +0.000 C 
ATOM      3  O   UNL     1       3.898   4.547  17.679  0.00  0.00    +0.000 OA
ATOM      4  H   UNL     1       5.976   3.713  19.916  0.00  0.00    +0.000 HD
ENDROOT
BRANCH   1   6
ATOM      5  C   UNL     1       7.500   5.709  19.335  0.00  0.00    +0.000 C 
ATOM      6  C   UNL     1       6.528   5.062  18.349  0.00  0.00    +0.000 C 
ATOM      7  C   UNL     1       7.287   4.453  17.174  0.00  0.00    +0.000 C 
ENDBRANCH   1   6
BRANCH   2   8
ATOM      8  C   UNL     1       3.548   2.805  19.334  0.00  0.00    +0.000 C 
BRANCH   8   9
ATOM      9  C   UNL     1       2.341   3.410  20.155  0.00  0.00    +0.000 C 
ATOM     10  C   UNL     1       2.569   4.889  20.542  0.00  0.00    +0.000 C 
ATOM     11  C   UNL     1       1.042   3.333  19.321  0.00  0.00    +0.000 C 
ATOM     12  C   UNL     1       2.100   2.627  21.466  0.00  0.00    +0.000 C 
ENDBRANCH   8   9
BRANCH   8  13
ATOM     13  C   UNL     1       4.501   2.124  20.302  0.00  0.00    +0.000 C 
ATOM     14  N   UNL     1       5.293   1.558  21.105  0.00  0.00    +0.000 NA
ENDBRANCH   8  13
ENDBRANCH   2   8
TORSDOF 4
ENDMDL
MODEL 2
REMARK VINA RESULT:      -5.7      0.531      1.150
REMARK  Name = 
REMARK  9 active torsions:
REMARK  status: ('A' for Active; 'I' for Inactive)
REMARK    1  A    between atoms: C_1  and  C_2
REMARK    2  A    between atoms: C_2  and  C_3
REMARK    3  A    between atoms: C_2  and  N_4
REMARK    4  A    between atoms: C_5  and  C_7
REMARK    5  A    between atoms: C_7  and  C_8
REMARK    6  A    between atoms: C_7  and  C_10
REMARK    7  A    between atoms: C_10  and  C_11
REMARK    8  A    between atoms: C_10  and  C_12
REMARK    9  A    between atoms: C_10  and  C_13
REMARK                            x       y       z     vdW  Elec       q    Type
REMARK                         _______ _______ _______ _____ _____    ______ ____
ROOT
ATOM      1  N   UNL     1       5.837   4.104  18.864  0.00  0.00    +0.000 N 
ATOM      2  C   UNL     1       4.586   3.921  18.296  0.00  0.00    +0.000 C 
ATOM      3  O   UNL     1       4.247   4.550  17.297  0.00  0.00    +0.000 OA
ATOM      4  H   UNL     1       6.015   3.769  19.804  0.00  0.00    +0.000 HD
ENDROOT
BRANCH   1   6
ATOM      5  C   UNL     1       7.664   5.691  19.373  0.00  0.00    +0.000 C 
ATOM      6  C   UNL     1       6.766   5.087  18.294  0.00  0.00    +0.000 C 
ATOM      7  C   UNL     1       7.609   4.479  17.177  0.00  0.00    +0.000 C 
ENDBRANCH   1   6
BRANCH   2   8
ATOM      8  C   UNL     1       3.684   2.842  18.929  0.00  0.00    +0.000 C 
BRANCH   8   9
ATOM      9  C   UNL     1       2.356   3.454  19.526  0.00  0.00    +0.000 C 
ATOM     10  C   UNL     1       1.322   3.808  18.434  0.00  0.00    +0.000 C 
ATOM     11  C   UNL     1       1.696   2.444  20.493  0.00  0.00    +0.000 C 
ATOM     12  C   UNL     1       2.638   4.746  20.326  0.00  0.00    +0.000 C 
ENDBRANCH   8   9
BRANCH   8  13
ATOM     13  C   UNL     1       4.485   2.219  20.061  0.00  0.00    +0.000 C 
ATOM     14  N   UNL     1       5.149   1.702  21.000  0.00  0.00    +0.000 NA
ENDBRANCH   8  13
ENDBRANCH   2   8
TORSDOF 4
ENDMDL
MODEL 3
REMARK VINA RESULT:      -5.6      0.825      1.536
REMARK  Name = 
REMARK  9 active torsions:
REMARK  status: ('A' for Active; 'I' for Inactive)
REMARK    1  A    between atoms: C_1  and  C_2
REMARK    2  A    between atoms: C_2  and  C_3
REMARK    3  A    between atoms: C_2  and  N_4
REMARK    4  A    between atoms: C_5  and  C_7
REMARK    5  A    between atoms: C_7  and  C_8
REMARK    6  A    between atoms: C_7  and  C_10
REMARK    7  A    between atoms: C_10  and  C_11
REMARK    8  A    between atoms: C_10  and  C_12
REMARK    9  A    between atoms: C_10  and  C_13
REMARK                            x       y       z     vdW  Elec       q    Type
REMARK                         _______ _______ _______ _____ _____    ______ ____
ROOT
ATOM      1  N   UNL     1       5.158   3.864  18.507  0.00  0.00    +0.000 N 
ATOM      2  C   UNL     1       3.876   3.409  18.243  0.00  0.00    +0.000 C 
ATOM      3  O   UNL     1       3.330   3.647  17.169  0.00  0.00    +0.000 OA
ATOM      4  H   UNL     1       5.501   3.871  19.461  0.00  0.00    +0.000 HD
ENDROOT
BRANCH   1   6
ATOM      5  C   UNL     1       5.472   6.146  17.607  0.00  0.00    +0.000 C 
ATOM      6  C   UNL     1       5.870   4.674  17.511  0.00  0.00    +0.000 C 
ATOM      7  C   UNL     1       7.383   4.522  17.644  0.00  0.00    +0.000 C 
ENDBRANCH   1   6
BRANCH   2   8
ATOM      8  C   UNL     1       3.211   2.532  19.323  0.00  0.00    +0.000 C 
BRANCH   8   9
ATOM      9  C   UNL     1       2.138   3.333  20.161  0.00  0.00    +0.000 C 
ATOM     10  C   UNL     1       0.758   3.380  19.468  0.00  0.00    +0.000 C 
ATOM     11  C   UNL     1       1.950   2.674  21.547  0.00  0.00    +0.000 C 
ATOM     12  C   UNL     1       2.582   4.795  20.398  0.00  0.00    +0.000 C 
ENDBRANCH   8   9
BRANCH   8  13
ATOM     13  C   UNL     1       4.321   2.082  20.258  0.00  0.00    +0.000 C 
ATOM     14  N   UNL     1       5.244   1.708  21.033  0.00  0.00    +0.000 NA
ENDBRANCH   8  13
ENDBRANCH   2   8
TORSDOF 4
ENDMDL
MODEL 4
REMARK VINA RESULT:      -5.6      0.893      1.536
REMARK  Name = 
REMARK  9 active torsions:
REMARK  status: ('A' for Active; 'I' for Inactive)
REMARK    1  A    between atoms: C_1  and  C_2
REMARK    2  A    between atoms: C_2  and  C_3
REMARK    3  A    between atoms: C_2  and  N_4
REMARK    4  A    between atoms: C_5  and  C_7
REMARK    5  A    between atoms: C_7  and  C_8
REMARK    6  A    between atoms: C_7  and  C_10
REMARK    7  A    between atoms: C_10  and  C_11
REMARK    8  A    between atoms: C_10  and  C_12
REMARK    9  A    between atoms: C_10  and  C_13
REMARK                            x       y       z     vdW  Elec       q    Type
REMARK                         _______ _______ _______ _____ _____    ______ ____
ROOT
ATOM      1  N   UNL     1       5.131   3.785  18.448  0.00  0.00    +0.000 N 
ATOM      2  C   UNL     1       3.869   3.285  18.168  0.00  0.00    +0.000 C 
ATOM      3  O   UNL     1       3.330   3.499  17.085  0.00  0.00    +0.000 OA
ATOM      4  H   UNL     1       5.459   3.808  19.406  0.00  0.00    +0.000 HD
ENDROOT
BRANCH   1   6
ATOM      5  C   UNL     1       5.350   6.064  17.515  0.00  0.00    +0.000 C 
ATOM      6  C   UNL     1       5.829   4.614  17.459  0.00  0.00    +0.000 C 
ATOM      7  C   UNL     1       7.342   4.545  17.638  0.00  0.00    +0.000 C 
ENDBRANCH   1   6
BRANCH   2   8
ATOM      8  C   UNL     1       3.218   2.390  19.242  0.00  0.00    +0.000 C 
BRANCH   8   9
ATOM      9  C   UNL     1       2.068   3.139  20.023  0.00  0.00    +0.000 C 
ATOM     10  C   UNL     1       1.912   2.637  21.476  0.00  0.00    +0.000 C 
ATOM     11  C   UNL     1       2.364   4.656  20.076  0.00  0.00    +0.000 C 
ATOM     12  C   UNL     1       0.700   2.957  19.327  0.00  0.00    +0.000 C 
ENDBRANCH   8   9
BRANCH   8  13
ATOM     13  C   UNL     1       4.319   2.028  20.227  0.00  0.00    +0.000 C 
ATOM     14  N   UNL     1       5.231   1.728  21.044  0.00  0.00    +0.000 NA
ENDBRANCH   8  13
ENDBRANCH   2   8
TORSDOF 4
ENDMDL
MODEL 5
REMARK VINA RESULT:      -5.5      1.810      4.796
REMARK  Name = 
REMARK  9 active torsions:
REMARK  status: ('A' for Active; 'I' for Inactive)
REMARK    1  A    between atoms: C_1  and  C_2
REMARK    2  A    between atoms: C_2  and  C_3
REMARK    3  A    between atoms: C_2  and  N_4
REMARK    4  A    between atoms: C_5  and  C_7
REMARK    5  A    between atoms: C_7  and  C_8
REMARK    6  A    between atoms: C_7  and  C_10
REMARK    7  A    between atoms: C_10  and  C_11
REMARK    8  A    between atoms: C_10  and  C_12
REMARK    9  A    between atoms: C_10  and  C_13
REMARK                            x       y       z     vdW  Elec       q    Type
REMARK                         _______ _______ _______ _____ _____    ______ ____
ROOT
ATOM      1  N   UNL     1       3.092   4.213  19.545  0.00  0.00    +0.000 N 
ATOM      2  C   UNL     1       4.453   4.071  19.327  0.00  0.00    +0.000 C 
ATOM      3  O   UNL     1       5.030   3.019  19.590  0.00  0.00    +0.000 OA
ATOM      4  H   UNL     1       2.679   5.137  19.552  0.00  0.00    +0.000 HD
ENDROOT
BRANCH   1   6
ATOM      5  C   UNL     1       2.083   3.333  21.625  0.00  0.00    +0.000 C 
ATOM      6  C   UNL     1       2.323   3.109  20.133  0.00  0.00    +0.000 C 
ATOM      7  C   UNL     1       0.998   2.899  19.406  0.00  0.00    +0.000 C 
ENDBRANCH   1   6
BRANCH   2   8
ATOM      8  C   UNL     1       5.182   5.261  18.670  0.00  0.00    +0.000 C 
BRANCH   8   9
ATOM      9  C   UNL     1       5.445   5.021  17.131  0.00  0.00    +0.000 C 
ATOM     10  C   UNL     1       4.492   3.968  16.523  0.00  0.00    +0.000 C 
ATOM     11  C   UNL     1       5.253   6.341  16.349  0.00  0.00    +0.000 C 
ATOM     12  C   UNL     1       6.889   4.535  16.874  0.00  0.00    +0.000 C 
ENDBRANCH   8   9
BRANCH   8  13
ATOM     13  C   UNL     1       6.520   5.391  19.378  0.00  0.00    +0.000 C 
ATOM     14  N   UNL     1       7.631   5.498  19.966  0.00  0.00    +0.000 NA
ENDBRANCH   8  13
ENDBRANCH   2   8
TORSDOF 4
ENDMDL
MODEL 6
REMARK VINA RESULT:      -5.5      0.893      1.070
REMARK  Name = 
REMARK  9 active torsions:
REMARK  status: ('A' for Active; 'I' for Inactive)
REMARK    1  A    between atoms: C_1  and  C_2
REMARK    2  A    between atoms: C_2  and  C_3
REMARK    3  A    between atoms: C_2  and  N_4
REMARK    4  A    between atoms: C_5  and  C_7
REMARK    5  A    between atoms: C_7  and  C_8
REMARK    6  A    between atoms: C_7  and  C_10
REMARK    7  A    between atoms: C_10  and  C_11
REMARK    8  A    between atoms: C_10  and  C_12
REMARK    9  A    between atoms: C_10  and  C_13
REMARK                            x       y       z     vdW  Elec       q    Type
REMARK                         _______ _______ _______ _____ _____    ______ ____
ROOT
ATOM      1  N   UNL     1       5.163   3.563  18.026  0.00  0.00    +0.000 N 
ATOM      2  C   UNL     1       3.796   3.687  18.220  0.00  0.00    +0.000 C 
ATOM      3  O   UNL     1       3.135   4.492  17.568  0.00  0.00    +0.000 OA
ATOM      4  H   UNL     1       5.726   3.083  18.718  0.00  0.00    +0.000 HD
ENDROOT
BRANCH   1   6
ATOM      5  C   UNL     1       7.265   4.761  17.516  0.00  0.00    +0.000 C 
ATOM      6  C   UNL     1       5.848   4.424  17.055  0.00  0.00    +0.000 C 
ATOM      7  C   UNL     1       5.875   3.791  15.667  0.00  0.00    +0.000 C 
ENDBRANCH   1   6
BRANCH   2   8
ATOM      8  C   UNL     1       3.144   2.721  19.230  0.00  0.00    +0.000 C 
BRANCH   8   9
ATOM      9  C   UNL     1       2.165   3.466  20.220  0.00  0.00    +0.000 C 
ATOM     10  C   UNL     1       2.590   4.927  20.487  0.00  0.00    +0.000 C 
ATOM     11  C   UNL     1       0.735   3.489  19.633  0.00  0.00    +0.000 C 
ATOM     12  C   UNL     1       2.093   2.752  21.589  0.00  0.00    +0.000 C 
ENDBRANCH   8   9
BRANCH   8  13
ATOM     13  C   UNL     1       4.278   2.109  20.036  0.00  0.00    +0.000 C 
ATOM     14  N   UNL     1       5.220   1.602  20.705  0.00  0.00    +0.000 NA
ENDBRANCH   8  13
ENDBRANCH   2   8
TORSDOF 4
ENDMDL
MODEL 7
REMARK VINA RESULT:      -5.4      1.847      4.805
REMARK  Name = 
REMARK  9 active torsions:
REMARK  status: ('A' for Active; 'I' for Inactive)
REMARK    1  A    between atoms: C_1  and  C_2
REMARK    2  A    between atoms: C_2  and  C_3
REMARK    3  A    between atoms: C_2  and  N_4
REMARK    4  A    between atoms: C_5  and  C_7
REMARK    5  A    between atoms: C_7  and  C_8
REMARK    6  A    between atoms: C_7  and  C_10
REMARK    7  A    between atoms: C_10  and  C_11
REMARK    8  A    between atoms: C_10  and  C_12
REMARK    9  A    between atoms: C_10  and  C_13
REMARK                            x       y       z     vdW  Elec       q    Type
REMARK                         _______ _______ _______ _____ _____    ______ ____
ROOT
ATOM      1  N   UNL     1       3.008   4.100  19.180  0.00  0.00    +0.000 N 
ATOM      2  C   UNL     1       4.392   4.030  19.163  0.00  0.00    +0.000 C 
ATOM      3  O   UNL     1       4.979   3.020  19.543  0.00  0.00    +0.000 OA
ATOM      4  H   UNL     1       2.550   4.999  19.095  0.00  0.00    +0.000 HD
ENDROOT
BRANCH   1   6
ATOM      5  C   UNL     1       1.653   3.274  21.077  0.00  0.00    +0.000 C 
ATOM      6  C   UNL     1       2.222   2.970  19.691  0.00  0.00    +0.000 C 
ATOM      7  C   UNL     1       1.103   2.585  18.728  0.00  0.00    +0.000 C 
ENDBRANCH   1   6
BRANCH   2   8
ATOM      8  C   UNL     1       5.144   5.241  18.574  0.00  0.00    +0.000 C 
BRANCH   8   9
ATOM      9  C   UNL     1       5.502   5.036  17.050  0.00  0.00    +0.000 C 
ATOM     10  C   UNL     1       6.959   4.565  16.840  0.00  0.00    +0.000 C 
ATOM     11  C   UNL     1       4.567   3.975  16.425  0.00  0.00    +0.000 C 
ATOM     12  C   UNL     1       5.324   6.344  16.246  0.00  0.00    +0.000 C 
ENDBRANCH   8   9
BRANCH   8  13
ATOM     13  C   UNL     1       6.437   5.371  19.364  0.00  0.00    +0.000 C 
ATOM     14  N   UNL     1       7.510   5.479  20.019  0.00  0.00    +0.000 NA
ENDBRANCH   8  13
ENDBRANCH   2   8
TORSDOF 4
ENDMDL
MODEL 8
REMARK VINA RESULT:      -5.4      1.658      2.051
REMARK  Name = 
REMARK  9 active torsions:
REMARK  status: ('A' for Active; 'I' for Inactive)
REMARK    1  A    between atoms: C_1  and  C_2
REMARK    2  A    between atoms: C_2  and  C_3
REMARK    3  A    between atoms: C_2  and  N_4
REMARK    4  A    between atoms: C_5  and  C_7
REMARK    5  A    between atoms: C_7  and  C_8
REMARK    6  A    between atoms: C_7  and  C_10
REMARK    7  A    between atoms: C_10  and  C_11
REMARK    8  A    between atoms: C_10  and  C_12
REMARK    9  A    between atoms: C_10  and  C_13
REMARK                            x       y       z     vdW  Elec       q    Type
REMARK                         _______ _______ _______ _____ _____    ______ ____
ROOT
ATOM      1  N   UNL     1       4.525   4.206  17.000  0.00  0.00    +0.000 N 
ATOM      2  C   UNL     1       4.801   3.781  18.290  0.00  0.00    +0.000 C 
ATOM      3  O   UNL     1       5.797   4.181  18.889  0.00  0.00    +0.000 OA
ATOM      4  H   UNL     1       3.851   3.699  16.439  0.00  0.00    +0.000 HD
ENDROOT
BRANCH   1   6
ATOM      5  C   UNL     1       5.664   4.699  14.861  0.00  0.00    +0.000 C 
ATOM      6  C   UNL     1       5.448   5.119  16.315  0.00  0.00    +0.000 C 
ATOM      7  C   UNL     1       4.962   6.564  16.386  0.00  0.00    +0.000 C 
ENDBRANCH   1   6
BRANCH   2   8
ATOM      8  C   UNL     1       3.764   2.854  18.956  0.00  0.00    +0.000 C 
BRANCH   8   9
ATOM      9  C   UNL     1       2.511   3.652  19.493  0.00  0.00    +0.000 C 
ATOM     10  C   UNL     1       2.892   5.027  20.085  0.00  0.00    +0.000 C 
ATOM     11  C   UNL     1       1.506   3.893  18.344  0.00  0.00    +0.000 C 
ATOM     12  C   UNL     1       1.772   2.866  20.600  0.00  0.00    +0.000 C 
ENDBRANCH   8   9
BRANCH   8  13
ATOM     13  C   UNL     1       4.466   2.199  20.136  0.00  0.00    +0.000 C 
ATOM     14  N   UNL     1       5.047   1.656  21.114  0.00  0.00    +0.000 NA
ENDBRANCH   8  13
ENDBRANCH   2   8
TORSDOF 4
ENDMDL
MODEL 9
REMARK VINA RESULT:      -5.3      1.724      2.490
REMARK  Name = 
REMARK  9 active torsions:
REMARK  status: ('A' for Active; 'I' for Inactive)
REMARK    1  A    between atoms: C_1  and  C_2
REMARK    2  A    between atoms: C_2  and  C_3
REMARK    3  A    between atoms: C_2  and  N_4
REMARK    4  A    between atoms: C_5  and  C_7
REMARK    5  A    between atoms: C_7  and  C_8
REMARK    6  A    between atoms: C_7  and  C_10
REMARK    7  A    between atoms: C_10  and  C_11
REMARK    8  A    between atoms: C_10  and  C_12
REMARK    9  A    between atoms: C_10  and  C_13
REMARK                            x       y       z     vdW  Elec       q    Type
REMARK                         _______ _______ _______ _____ _____    ______ ____
ROOT
ATOM      1  N   UNL     1       4.625   4.123  16.793  0.00  0.00    +0.000 N 
ATOM      2  C   UNL     1       4.841   3.768  18.115  0.00  0.00    +0.000 C 
ATOM      3  O   UNL     1       5.821   4.181  18.729  0.00  0.00    +0.000 OA
ATOM      4  H   UNL     1       3.962   3.599  16.235  0.00  0.00    +0.000 HD
ENDROOT
BRANCH   1   6
ATOM      5  C   UNL     1       5.894   4.441  14.695  0.00  0.00    +0.000 C 
ATOM      6  C   UNL     1       5.594   4.976  16.095  0.00  0.00    +0.000 C 
ATOM      7  C   UNL     1       5.116   6.423  16.021  0.00  0.00    +0.000 C 
ENDBRANCH   1   6
BRANCH   2   8
ATOM      8  C   UNL     1       3.757   2.902  18.791  0.00  0.00    +0.000 C 
BRANCH   8   9
ATOM      9  C   UNL     1       2.515   3.760  19.255  0.00  0.00    +0.000 C 
ATOM     10  C   UNL     1       1.613   3.004  20.257  0.00  0.00    +0.000 C 
ATOM     11  C   UNL     1       2.995   5.061  19.938  0.00  0.00    +0.000 C 
ATOM     12  C   UNL     1       1.627   4.164  18.056  0.00  0.00    +0.000 C 
ENDBRANCH   8   9
BRANCH   8  13
ATOM     13  C   UNL     1       4.405   2.280  20.017  0.00  0.00    +0.000 C 
ATOM     14  N   UNL     1       4.942   1.763  21.035  0.00  0.00    +0.000 NA
ENDBRANCH   8  13
ENDBRANCH   2   8
TORSDOF 4
ENDMDL
