MODEL 1
REMARK VINA RESULT:     -10.1      0.000      0.000
REMARK  Name = 
REMARK  10 active torsions:
REMARK  status: ('A' for Active; 'I' for Inactive)
REMARK    1  A    between atoms: C_1  and  C_2
REMARK    2  A    between atoms: C_5  and  N_6
REMARK    3  A    between atoms: C_8  and  C_9
REMARK    4  A    between atoms: C_9  and  C_10
REMARK    5  A    between atoms: C_9  and  C_11
REMARK    6  A    between atoms: C_9  and  C_12
REMARK    7  A    between atoms: C_14  and  N_15
REMARK    8  A    between atoms: N_18  and  C_19
REMARK    9  A    between atoms: C_23  and  N_24
REMARK   10  A    between atoms: N_24  and  C_25
REMARK                            x       y       z     vdW  Elec       q    Type
REMARK                         _______ _______ _______ _____ _____    ______ ____
ROOT
ATOM      1  N   UNL     1       0.241  11.160  18.544  0.00  0.00    +0.000 N 
ATOM      2  C   UNL     1       0.756   9.849  18.847  0.00  0.00    +0.000 C 
ATOM      3  O   UNL     1       0.120   9.133  19.617  0.00  0.00    +0.000 OA
ATOM      4  N   UNL     1       1.912   9.590  18.183  0.00  0.00    +0.000 N 
ATOM      5  H   UNL     1       0.493  11.617  17.681  0.00  0.00    +0.000 HD
ATOM      6  H   UNL     1       2.504  10.373  17.989  0.00  0.00    +0.000 HD
ENDROOT
BRANCH   4   7
ATOM      7  C   UNL     1       2.563   8.323  18.344  0.00  0.00    +0.000 A 
ATOM      8  C   UNL     1       2.190   7.533  19.437  0.00  0.00    +0.000 A 
ATOM      9  C   UNL     1       2.688   6.224  19.528  0.00  0.00    +0.000 A 
ATOM     10  C   UNL     1       3.596   5.702  18.594  0.00  0.00    +0.000 A 
ATOM     11  C   UNL     1       4.056   6.481  17.537  0.00  0.00    +0.000 A 
ATOM     12  C   UNL     1       3.494   7.795  17.420  0.00  0.00    +0.000 A 
BRANCH  11  13
ATOM     13  N   UNL     1       4.685   5.947  16.355  0.00  0.00    +0.000 N 
ATOM     14  H   UNL     1       3.912   6.202  15.717  0.00  0.00    +0.000 HD
BRANCH  13  15
ATOM     15  C   UNL     1       5.059   4.562  15.723  0.00  0.00    +0.000 A 
ATOM     16  C   UNL     1       5.933   4.000  16.647  0.00  0.00    +0.000 A 
ATOM     17  C   UNL     1       7.190   4.568  16.598  0.00  0.00    +0.000 A 
ATOM     18  N   UNL     1       7.627   5.221  15.493  0.00  0.00    +0.000 NA
ATOM     19  C   UNL     1       6.935   4.976  14.352  0.00  0.00    +0.000 A 
ATOM     20  C   UNL     1       7.562   4.986  13.109  0.00  0.00    +0.000 A 
ATOM     21  C   UNL     1       7.077   4.214  12.044  0.00  0.00    +0.000 A 
ATOM     22  C   UNL     1       5.987   3.399  12.248  0.00  0.00    +0.000 A 
ATOM     23  C   UNL     1       5.256   3.529  13.440  0.00  0.00    +0.000 A 
ATOM     24  C   UNL     1       5.637   4.467  14.449  0.00  0.00    +0.000 A 
ENDBRANCH  13  15
ENDBRANCH  11  13
ENDBRANCH   4   7
BRANCH   1  29
ATOM     25  N   UNL     1      -2.182  11.740  18.757  0.00  0.00    +0.000 N 
ATOM     26  N   UNL     1      -2.981  12.361  19.665  0.00  0.00    +0.000 NA
ATOM     27  C   UNL     1      -2.263  12.371  20.801  0.00  0.00    +0.000 A 
ATOM     28  C   UNL     1      -0.936  11.928  20.560  0.00  0.00    +0.000 A 
ATOM     29  C   UNL     1      -0.901  11.586  19.232  0.00  0.00    +0.000 A 
BRANCH  25  34
ATOM     30  C   UNL     1      -4.254   9.775  13.784  0.00  0.00    +0.000 C 
ATOM     31  C   UNL     1      -3.727  10.297  15.088  0.00  0.00    +0.000 A 
ATOM     32  C   UNL     1      -4.467  11.196  15.866  0.00  0.00    +0.000 A 
ATOM     33  C   UNL     1      -3.973  11.662  17.089  0.00  0.00    +0.000 A 
ATOM     34  C   UNL     1      -2.705  11.257  17.522  0.00  0.00    +0.000 A 
ATOM     35  C   UNL     1      -1.971  10.340  16.755  0.00  0.00    +0.000 A 
ATOM     36  C   UNL     1      -2.483   9.859  15.551  0.00  0.00    +0.000 A 
ENDBRANCH  25  34
BRANCH  27  37
ATOM     37  C   UNL     1      -2.839  12.847  22.133  0.00  0.00    +0.000 C 
ATOM     38  C   UNL     1      -4.381  12.869  22.138  0.00  0.00    +0.000 C 
ATOM     39  C   UNL     1      -2.376  11.915  23.276  0.00  0.00    +0.000 C 
ATOM     40  C   UNL     1      -2.340  14.274  22.438  0.00  0.00    +0.000 C 
ENDBRANCH  27  37
ENDBRANCH   1  29
TORSDOF 6
ENDMDL
MODEL 2
REMARK VINA RESULT:     -10.1      5.755      7.657
REMARK  Name = 
REMARK  10 active torsions:
REMARK  status: ('A' for Active; 'I' for Inactive)
REMARK    1  A    between atoms: C_1  and  C_2
REMARK    2  A    between atoms: C_5  and  N_6
REMARK    3  A    between atoms: C_8  and  C_9
REMARK    4  A    between atoms: C_9  and  C_10
REMARK    5  A    between atoms: C_9  and  C_11
REMARK    6  A    between atoms: C_9  and  C_12
REMARK    7  A    between atoms: C_14  and  N_15
REMARK    8  A    between atoms: N_18  and  C_19
REMARK    9  A    between atoms: C_23  and  N_24
REMARK   10  A    between atoms: N_24  and  C_25
REMARK                            x       y       z     vdW  Elec       q    Type
REMARK                         _______ _______ _______ _____ _____    ______ ____
ROOT
ATOM      1  N   UNL     1       1.999  12.524  18.479  0.00  0.00    +0.000 N 
ATOM      2  C   UNL     1       2.945  13.535  18.878  0.00  0.00    +0.000 C 
ATOM      3  O   UNL     1       2.972  13.878  20.057  0.00  0.00    +0.000 OA
ATOM      4  N   UNL     1       3.712  13.956  17.839  0.00  0.00    +0.000 N 
ATOM      5  H   UNL     1       2.177  11.958  17.662  0.00  0.00    +0.000 HD
ATOM      6  H   UNL     1       3.288  13.938  16.933  0.00  0.00    +0.000 HD
ENDROOT
BRANCH   4   7
ATOM      7  C   UNL     1       4.725  14.947  18.051  0.00  0.00    +0.000 A 
ATOM      8  C   UNL     1       4.332  16.174  18.597  0.00  0.00    +0.000 A 
ATOM      9  C   UNL     1       5.321  17.098  18.967  0.00  0.00    +0.000 A 
ATOM     10  C   UNL     1       6.687  16.860  18.750  0.00  0.00    +0.000 A 
ATOM     11  C   UNL     1       7.116  15.688  18.136  0.00  0.00    +0.000 A 
ATOM     12  C   UNL     1       6.101  14.725  17.817  0.00  0.00    +0.000 A 
BRANCH  11  13
ATOM     13  N   UNL     1       8.469  15.196  18.192  0.00  0.00    +0.000 N 
ATOM     14  H   UNL     1       8.331  14.465  17.473  0.00  0.00    +0.000 HD
BRANCH  13  15
ATOM     15  C   UNL     1       9.410  14.395  19.157  0.00  0.00    +0.000 A 
ATOM     16  C   UNL     1      10.688  14.682  18.690  0.00  0.00    +0.000 A 
ATOM     17  C   UNL     1      10.992  13.997  17.531  0.00  0.00    +0.000 A 
ATOM     18  N   UNL     1      10.333  12.862  17.188  0.00  0.00    +0.000 NA
ATOM     19  C   UNL     1       9.644  12.257  18.188  0.00  0.00    +0.000 A 
ATOM     20  C   UNL     1       9.495  10.873  18.229  0.00  0.00    +0.000 A 
ATOM     21  C   UNL     1       9.330  10.195  19.445  0.00  0.00    +0.000 A 
ATOM     22  C   UNL     1       9.361  10.910  20.621  0.00  0.00    +0.000 A 
ATOM     23  C   UNL     1       9.330  12.314  20.563  0.00  0.00    +0.000 A 
ATOM     24  C   UNL     1       9.294  13.007  19.314  0.00  0.00    +0.000 A 
ENDBRANCH  13  15
ENDBRANCH  11  13
ENDBRANCH   4   7
BRANCH   1  29
ATOM     25  N   UNL     1       0.716  10.776  19.723  0.00  0.00    +0.000 N 
ATOM     26  N   UNL     1      -0.339  10.736  20.580  0.00  0.00    +0.000 NA
ATOM     27  C   UNL     1      -0.464  11.999  21.024  0.00  0.00    +0.000 A 
ATOM     28  C   UNL     1       0.389  12.873  20.301  0.00  0.00    +0.000 A 
ATOM     29  C   UNL     1       1.089  12.069  19.437  0.00  0.00    +0.000 A 
BRANCH  25  34
ATOM     30  C   UNL     1       3.293   5.947  18.014  0.00  0.00    +0.000 C 
ATOM     31  C   UNL     1       2.620   7.216  18.444  0.00  0.00    +0.000 A 
ATOM     32  C   UNL     1       2.422   8.276  17.551  0.00  0.00    +0.000 A 
ATOM     33  C   UNL     1       1.775   9.448  17.959  0.00  0.00    +0.000 A 
ATOM     34  C   UNL     1       1.358   9.580  19.288  0.00  0.00    +0.000 A 
ATOM     35  C   UNL     1       1.536   8.512  20.180  0.00  0.00    +0.000 A 
ATOM     36  C   UNL     1       2.155   7.336  19.758  0.00  0.00    +0.000 A 
ENDBRANCH  25  34
BRANCH  27  37
ATOM     37  C   UNL     1      -1.443  12.386  22.131  0.00  0.00    +0.000 C 
ATOM     38  C   UNL     1      -2.860  12.673  21.597  0.00  0.00    +0.000 C 
ATOM     39  C   UNL     1      -1.551  11.244  23.168  0.00  0.00    +0.000 C 
ATOM     40  C   UNL     1      -0.939  13.652  22.854  0.00  0.00    +0.000 C 
ENDBRANCH  27  37
ENDBRANCH   1  29
TORSDOF 6
ENDMDL
MODEL 3
REMARK VINA RESULT:     -10.0      6.191      7.974
REMARK  Name = 
REMARK  10 active torsions:
REMARK  status: ('A' for Active; 'I' for Inactive)
REMARK    1  A    between atoms: C_1  and  C_2
REMARK    2  A    between atoms: C_5  and  N_6
REMARK    3  A    between atoms: C_8  and  C_9
REMARK    4  A    between atoms: C_9  and  C_10
REMARK    5  A    between atoms: C_9  and  C_11
REMARK    6  A    between atoms: C_9  and  C_12
REMARK    7  A    between atoms: C_14  and  N_15
REMARK    8  A    between atoms: N_18  and  C_19
REMARK    9  A    between atoms: C_23  and  N_24
REMARK   10  A    between atoms: N_24  and  C_25
REMARK                            x       y       z     vdW  Elec       q    Type
REMARK                         _______ _______ _______ _____ _____    ______ ____
ROOT
ATOM      1  N   UNL     1       1.560  12.635  18.459  0.00  0.00    +0.000 N 
ATOM      2  C   UNL     1       2.625  13.525  18.847  0.00  0.00    +0.000 C 
ATOM      3  O   UNL     1       2.813  13.728  20.044  0.00  0.00    +0.000 OA
ATOM      4  N   UNL     1       3.303  14.008  17.773  0.00  0.00    +0.000 N 
ATOM      5  H   UNL     1       1.597  12.157  17.572  0.00  0.00    +0.000 HD
ATOM      6  H   UNL     1       2.780  14.124  16.928  0.00  0.00    +0.000 HD
ENDROOT
BRANCH   4   7
ATOM      7  C   UNL     1       4.412  14.895  17.965  0.00  0.00    +0.000 A 
ATOM      8  C   UNL     1       4.146  16.169  18.479  0.00  0.00    +0.000 A 
ATOM      9  C   UNL     1       5.224  16.996  18.831  0.00  0.00    +0.000 A 
ATOM     10  C   UNL     1       6.559  16.613  18.626  0.00  0.00    +0.000 A 
ATOM     11  C   UNL     1       6.867  15.388  18.042  0.00  0.00    +0.000 A 
ATOM     12  C   UNL     1       5.759  14.527  17.743  0.00  0.00    +0.000 A 
BRANCH  11  13
ATOM     13  N   UNL     1       8.162  14.761  18.116  0.00  0.00    +0.000 N 
ATOM     14  H   UNL     1       7.794  13.811  18.293  0.00  0.00    +0.000 HD
BRANCH  13  15
ATOM     15  C   UNL     1       9.410  14.706  19.063  0.00  0.00    +0.000 A 
ATOM     16  C   UNL     1      10.174  15.799  18.672  0.00  0.00    +0.000 A 
ATOM     17  C   UNL     1      10.839  15.580  17.482  0.00  0.00    +0.000 A 
ATOM     18  N   UNL     1      11.088  14.324  17.034  0.00  0.00    +0.000 NA
ATOM     19  C   UNL     1      10.984  13.338  17.960  0.00  0.00    +0.000 A 
ATOM     20  C   UNL     1      11.787  12.201  17.899  0.00  0.00    +0.000 A 
ATOM     21  C   UNL     1      12.127  11.489  19.058  0.00  0.00    +0.000 A 
ATOM     22  C   UNL     1      11.694  11.949  20.280  0.00  0.00    +0.000 A 
ATOM     23  C   UNL     1      10.743  12.984  20.318  0.00  0.00    +0.000 A 
ATOM     24  C   UNL     1      10.242  13.578  19.119  0.00  0.00    +0.000 A 
ENDBRANCH  13  15
ENDBRANCH  11  13
ENDBRANCH   4   7
BRANCH   1  29
ATOM     25  N   UNL     1       0.459  10.829  19.791  0.00  0.00    +0.000 N 
ATOM     26  N   UNL     1      -0.550  10.734  20.698  0.00  0.00    +0.000 NA
ATOM     27  C   UNL     1      -0.742  11.993  21.126  0.00  0.00    +0.000 A 
ATOM     28  C   UNL     1       0.015  12.910  20.349  0.00  0.00    +0.000 A 
ATOM     29  C   UNL     1       0.728  12.138  19.467  0.00  0.00    +0.000 A 
BRANCH  25  34
ATOM     30  C   UNL     1       3.285   6.155  18.043  0.00  0.00    +0.000 C 
ATOM     31  C   UNL     1       2.545   7.383  18.484  0.00  0.00    +0.000 A 
ATOM     32  C   UNL     1       2.241   8.413  17.585  0.00  0.00    +0.000 A 
ATOM     33  C   UNL     1       1.535   9.546  18.004  0.00  0.00    +0.000 A 
ATOM     34  C   UNL     1       1.162   9.671  19.347  0.00  0.00    +0.000 A 
ATOM     35  C   UNL     1       1.447   8.631  20.245  0.00  0.00    +0.000 A 
ATOM     36  C   UNL     1       2.126   7.493  19.814  0.00  0.00    +0.000 A 
ENDBRANCH  25  34
BRANCH  27  37
ATOM     37  C   UNL     1      -1.693  12.335  22.272  0.00  0.00    +0.000 C 
ATOM     38  C   UNL     1      -3.119  12.661  21.782  0.00  0.00    +0.000 C 
ATOM     39  C   UNL     1      -1.792  11.144  23.253  0.00  0.00    +0.000 C 
ATOM     40  C   UNL     1      -1.161  13.558  23.046  0.00  0.00    +0.000 C 
ENDBRANCH  27  37
ENDBRANCH   1  29
TORSDOF 6
ENDMDL
MODEL 4
REMARK VINA RESULT:     -10.0      2.311      3.947
REMARK  Name = 
REMARK  10 active torsions:
REMARK  status: ('A' for Active; 'I' for Inactive)
REMARK    1  A    between atoms: C_1  and  C_2
REMARK    2  A    between atoms: C_5  and  N_6
REMARK    3  A    between atoms: C_8  and  C_9
REMARK    4  A    between atoms: C_9  and  C_10
REMARK    5  A    between atoms: C_9  and  C_11
REMARK    6  A    between atoms: C_9  and  C_12
REMARK    7  A    between atoms: C_14  and  N_15
REMARK    8  A    between atoms: N_18  and  C_19
REMARK    9  A    between atoms: C_23  and  N_24
REMARK   10  A    between atoms: N_24  and  C_25
REMARK                            x       y       z     vdW  Elec       q    Type
REMARK                         _______ _______ _______ _____ _____    ______ ____
ROOT
ATOM      1  N   UNL     1       0.134  11.308  18.242  0.00  0.00    +0.000 N 
ATOM      2  C   UNL     1       0.878  10.186  18.755  0.00  0.00    +0.000 C 
ATOM      3  O   UNL     1       0.796   9.927  19.953  0.00  0.00    +0.000 OA
ATOM      4  N   UNL     1       1.571   9.545  17.779  0.00  0.00    +0.000 N 
ATOM      5  H   UNL     1      -0.130  11.339  17.269  0.00  0.00    +0.000 HD
ATOM      6  H   UNL     1       1.894  10.105  17.016  0.00  0.00    +0.000 HD
ENDROOT
BRANCH   4   7
ATOM      7  C   UNL     1       2.356   8.388  18.099  0.00  0.00    +0.000 A 
ATOM      8  C   UNL     1       2.037   7.686  19.266  0.00  0.00    +0.000 A 
ATOM      9  C   UNL     1       2.677   6.463  19.517  0.00  0.00    +0.000 A 
ATOM     10  C   UNL     1       3.671   5.951  18.669  0.00  0.00    +0.000 A 
ATOM     11  C   UNL     1       4.076   6.656  17.540  0.00  0.00    +0.000 A 
ATOM     12  C   UNL     1       3.373   7.874  17.262  0.00  0.00    +0.000 A 
BRANCH  11  13
ATOM     13  N   UNL     1       4.803   6.072  16.442  0.00  0.00    +0.000 N 
ATOM     14  H   UNL     1       4.162   6.422  15.710  0.00  0.00    +0.000 HD
BRANCH  13  15
ATOM     15  C   UNL     1       5.109   4.662  15.826  0.00  0.00    +0.000 A 
ATOM     16  C   UNL     1       5.995   4.089  16.731  0.00  0.00    +0.000 A 
ATOM     17  C   UNL     1       7.268   4.613  16.627  0.00  0.00    +0.000 A 
ATOM     18  N   UNL     1       7.687   5.229  15.494  0.00  0.00    +0.000 NA
ATOM     19  C   UNL     1       6.948   4.985  14.383  0.00  0.00    +0.000 A 
ATOM     20  C   UNL     1       7.531   4.950  13.119  0.00  0.00    +0.000 A 
ATOM     21  C   UNL     1       6.984   4.173  12.088  0.00  0.00    +0.000 A 
ATOM     22  C   UNL     1       5.875   3.401  12.346  0.00  0.00    +0.000 A 
ATOM     23  C   UNL     1       5.191   3.579  13.560  0.00  0.00    +0.000 A 
ATOM     24  C   UNL     1       5.638   4.523  14.535  0.00  0.00    +0.000 A 
ENDBRANCH  13  15
ENDBRANCH  11  13
ENDBRANCH   4   7
BRANCH   1  29
ATOM     25  N   UNL     1      -0.069  13.128  19.944  0.00  0.00    +0.000 N 
ATOM     26  N   UNL     1      -0.989  13.541  20.856  0.00  0.00    +0.000 NA
ATOM     27  C   UNL     1      -2.134  12.948  20.477  0.00  0.00    +0.000 A 
ATOM     28  C   UNL     1      -1.894  12.010  19.438  0.00  0.00    +0.000 A 
ATOM     29  C   UNL     1      -0.554  12.108  19.161  0.00  0.00    +0.000 A 
BRANCH  25  34
ATOM     30  C   UNL     1       4.983  15.789  19.411  0.00  0.00    +0.000 C 
ATOM     31  C   UNL     1       3.668  15.085  19.565  0.00  0.00    +0.000 A 
ATOM     32  C   UNL     1       3.461  14.139  20.577  0.00  0.00    +0.000 A 
ATOM     33  C   UNL     1       2.223  13.503  20.721  0.00  0.00    +0.000 A 
ATOM     34  C   UNL     1       1.191  13.784  19.820  0.00  0.00    +0.000 A 
ATOM     35  C   UNL     1       1.389  14.746  18.818  0.00  0.00    +0.000 A 
ATOM     36  C   UNL     1       2.616  15.397  18.698  0.00  0.00    +0.000 A 
ENDBRANCH  25  34
BRANCH  27  37
ATOM     37  C   UNL     1      -3.475  13.253  21.140  0.00  0.00    +0.000 C 
ATOM     38  C   UNL     1      -3.586  12.653  22.557  0.00  0.00    +0.000 C 
ATOM     39  C   UNL     1      -3.675  14.781  21.257  0.00  0.00    +0.000 C 
ATOM     40  C   UNL     1      -4.623  12.677  20.287  0.00  0.00    +0.000 C 
ENDBRANCH  27  37
ENDBRANCH   1  29
TORSDOF 6
ENDMDL
MODEL 5
REMARK VINA RESULT:      -9.9      3.266      5.216
REMARK  Name = 
REMARK  10 active torsions:
REMARK  status: ('A' for Active; 'I' for Inactive)
REMARK    1  A    between atoms: C_1  and  C_2
REMARK    2  A    between atoms: C_5  and  N_6
REMARK    3  A    between atoms: C_8  and  C_9
REMARK    4  A    between atoms: C_9  and  C_10
REMARK    5  A    between atoms: C_9  and  C_11
REMARK    6  A    between atoms: C_9  and  C_12
REMARK    7  A    between atoms: C_14  and  N_15
REMARK    8  A    between atoms: N_18  and  C_19
REMARK    9  A    between atoms: C_23  and  N_24
REMARK   10  A    between atoms: N_24  and  C_25
REMARK                            x       y       z     vdW  Elec       q    Type
REMARK                         _______ _______ _______ _____ _____    ______ ____
ROOT
ATOM      1  N   UNL     1      -0.582  12.568  18.632  0.00  0.00    +0.000 N 
ATOM      2  C   UNL     1       0.256  11.608  19.304  0.00  0.00    +0.000 C 
ATOM      3  O   UNL     1       0.978  11.999  20.218  0.00  0.00    +0.000 OA
ATOM      4  N   UNL     1       0.091  10.353  18.812  0.00  0.00    +0.000 N 
ATOM      5  H   UNL     1      -1.425  12.266  18.165  0.00  0.00    +0.000 HD
ATOM      6  H   UNL     1      -0.147  10.279  17.843  0.00  0.00    +0.000 HD
ENDROOT
BRANCH   4   7
ATOM      7  C   UNL     1       0.829   9.260  19.373  0.00  0.00    +0.000 A 
ATOM      8  C   UNL     1       0.645   8.977  20.731  0.00  0.00    +0.000 A 
ATOM      9  C   UNL     1       1.225   7.817  21.266  0.00  0.00    +0.000 A 
ATOM     10  C   UNL     1       2.036   6.965  20.501  0.00  0.00    +0.000 A 
ATOM     11  C   UNL     1       2.313   7.252  19.168  0.00  0.00    +0.000 A 
ATOM     12  C   UNL     1       1.665   8.407  18.616  0.00  0.00    +0.000 A 
BRANCH  11  13
ATOM     13  N   UNL     1       2.817   6.288  18.223  0.00  0.00    +0.000 N 
ATOM     14  H   UNL     1       2.971   5.544  18.924  0.00  0.00    +0.000 HD
BRANCH  13  15
ATOM     15  C   UNL     1       4.084   6.036  17.334  0.00  0.00    +0.000 A 
ATOM     16  C   UNL     1       3.981   4.696  16.980  0.00  0.00    +0.000 A 
ATOM     17  C   UNL     1       4.313   3.848  18.018  0.00  0.00    +0.000 A 
ATOM     18  N   UNL     1       5.087   4.267  19.050  0.00  0.00    +0.000 NA
ATOM     19  C   UNL     1       5.794   5.404  18.833  0.00  0.00    +0.000 A 
ATOM     20  C   UNL     1       7.040   5.605  19.421  0.00  0.00    +0.000 A 
ATOM     21  C   UNL     1       8.008   6.417  18.813  0.00  0.00    +0.000 A 
ATOM     22  C   UNL     1       7.733   6.989  17.592  0.00  0.00    +0.000 A 
ATOM     23  C   UNL     1       6.420   6.931  17.095  0.00  0.00    +0.000 A 
ATOM     24  C   UNL     1       5.379   6.270  17.818  0.00  0.00    +0.000 A 
ENDBRANCH  13  15
ENDBRANCH  11  13
ENDBRANCH   4   7
BRANCH   1  29
ATOM     25  N   UNL     1      -1.068  14.605  19.996  0.00  0.00    +0.000 N 
ATOM     26  N   UNL     1      -0.834  15.942  19.909  0.00  0.00    +0.000 NA
ATOM     27  C   UNL     1       0.140  16.057  18.989  0.00  0.00    +0.000 A 
ATOM     28  C   UNL     1       0.385  14.809  18.358  0.00  0.00    +0.000 A 
ATOM     29  C   UNL     1      -0.444  13.914  18.985  0.00  0.00    +0.000 A 
BRANCH  25  34
ATOM     30  C   UNL     1      -4.076  12.390  24.347  0.00  0.00    +0.000 C 
ATOM     31  C   UNL     1      -3.275  12.971  23.220  0.00  0.00    +0.000 A 
ATOM     32  C   UNL     1      -1.965  13.425  23.414  0.00  0.00    +0.000 A 
ATOM     33  C   UNL     1      -1.222  13.947  22.350  0.00  0.00    +0.000 A 
ATOM     34  C   UNL     1      -1.808  14.056  21.084  0.00  0.00    +0.000 A 
ATOM     35  C   UNL     1      -3.113  13.583  20.882  0.00  0.00    +0.000 A 
ATOM     36  C   UNL     1      -3.837  13.038  21.941  0.00  0.00    +0.000 A 
ENDBRANCH  25  34
BRANCH  27  37
ATOM     37  C   UNL     1       0.823  17.388  18.679  0.00  0.00    +0.000 C 
ATOM     38  C   UNL     1       0.696  18.403  19.834  0.00  0.00    +0.000 C 
ATOM     39  C   UNL     1       2.329  17.162  18.412  0.00  0.00    +0.000 C 
ATOM     40  C   UNL     1       0.195  18.016  17.419  0.00  0.00    +0.000 C 
ENDBRANCH  27  37
ENDBRANCH   1  29
TORSDOF 6
ENDMDL
MODEL 6
REMARK VINA RESULT:      -9.9      2.136      2.943
REMARK  Name = 
REMARK  10 active torsions:
REMARK  status: ('A' for Active; 'I' for Inactive)
REMARK    1  A    between atoms: C_1  and  C_2
REMARK    2  A    between atoms: C_5  and  N_6
REMARK    3  A    between atoms: C_8  and  C_9
REMARK    4  A    between atoms: C_9  and  C_10
REMARK    5  A    between atoms: C_9  and  C_11
REMARK    6  A    between atoms: C_9  and  C_12
REMARK    7  A    between atoms: C_14  and  N_15
REMARK    8  A    between atoms: N_18  and  C_19
REMARK    9  A    between atoms: C_23  and  N_24
REMARK   10  A    between atoms: N_24  and  C_25
REMARK                            x       y       z     vdW  Elec       q    Type
REMARK                         _______ _______ _______ _____ _____    ______ ____
ROOT
ATOM      1  N   UNL     1      -0.443  11.553  20.178  0.00  0.00    +0.000 N 
ATOM      2  C   UNL     1      -0.204  10.141  20.339  0.00  0.00    +0.000 C 
ATOM      3  O   UNL     1      -1.131   9.429  20.716  0.00  0.00    +0.000 OA
ATOM      4  N   UNL     1       1.069   9.799  20.011  0.00  0.00    +0.000 N 
ATOM      5  H   UNL     1       0.127  12.094  19.545  0.00  0.00    +0.000 HD
ATOM      6  H   UNL     1       1.775  10.490  20.171  0.00  0.00    +0.000 HD
ENDROOT
BRANCH   4   7
ATOM      7  C   UNL     1       1.485   8.429  20.090  0.00  0.00    +0.000 A 
ATOM      8  C   UNL     1       0.990   7.657  21.146  0.00  0.00    +0.000 A 
ATOM      9  C   UNL     1       1.247   6.277  21.155  0.00  0.00    +0.000 A 
ATOM     10  C   UNL     1       2.039   5.658  20.176  0.00  0.00    +0.000 A 
ATOM     11  C   UNL     1       2.620   6.402  19.154  0.00  0.00    +0.000 A 
ATOM     12  C   UNL     1       2.299   7.799  19.121  0.00  0.00    +0.000 A 
BRANCH  11  13
ATOM     13  N   UNL     1       3.132   5.834  17.933  0.00  0.00    +0.000 N 
ATOM     14  H   UNL     1       3.181   4.866  18.295  0.00  0.00    +0.000 HD
BRANCH  13  15
ATOM     15  C   UNL     1       4.447   5.827  17.078  0.00  0.00    +0.000 A 
ATOM     16  C   UNL     1       4.572   4.503  16.671  0.00  0.00    +0.000 A 
ATOM     17  C   UNL     1       5.010   3.677  17.686  0.00  0.00    +0.000 A 
ATOM     18  N   UNL     1       5.678   4.171  18.758  0.00  0.00    +0.000 NA
ATOM     19  C   UNL     1       6.196   5.415  18.607  0.00  0.00    +0.000 A 
ATOM     20  C   UNL     1       7.378   5.789  19.243  0.00  0.00    +0.000 A 
ATOM     21  C   UNL     1       8.217   6.771  18.698  0.00  0.00    +0.000 A 
ATOM     22  C   UNL     1       7.885   7.343  17.492  0.00  0.00    +0.000 A 
ATOM     23  C   UNL     1       6.613   7.095  16.950  0.00  0.00    +0.000 A 
ATOM     24  C   UNL     1       5.674   6.246  17.613  0.00  0.00    +0.000 A 
ENDBRANCH  13  15
ENDBRANCH  11  13
ENDBRANCH   4   7
BRANCH   1  29
ATOM     25  N   UNL     1      -2.817  12.240  19.800  0.00  0.00    +0.000 N 
ATOM     26  N   UNL     1      -3.775  12.927  20.478  0.00  0.00    +0.000 NA
ATOM     27  C   UNL     1      -3.342  12.949  21.750  0.00  0.00    +0.000 A 
ATOM     28  C   UNL     1      -2.018  12.442  21.840  0.00  0.00    +0.000 A 
ATOM     29  C   UNL     1      -1.691  12.051  20.566  0.00  0.00    +0.000 A 
BRANCH  25  34
ATOM     30  C   UNL     1      -3.756  10.199  14.524  0.00  0.00    +0.000 C 
ATOM     31  C   UNL     1      -3.528  10.734  15.907  0.00  0.00    +0.000 A 
ATOM     32  C   UNL     1      -4.594  11.156  16.711  0.00  0.00    +0.000 A 
ATOM     33  C   UNL     1      -4.370  11.636  18.005  0.00  0.00    +0.000 A 
ATOM     34  C   UNL     1      -3.061  11.734  18.490  0.00  0.00    +0.000 A 
ATOM     35  C   UNL     1      -1.992  11.293  17.695  0.00  0.00    +0.000 A 
ATOM     36  C   UNL     1      -2.227  10.789  16.416  0.00  0.00    +0.000 A 
ENDBRANCH  25  34
BRANCH  27  37
ATOM     37  C   UNL     1      -4.189  13.497  22.896  0.00  0.00    +0.000 C 
ATOM     38  C   UNL     1      -3.853  14.964  23.234  0.00  0.00    +0.000 C 
ATOM     39  C   UNL     1      -5.689  13.429  22.528  0.00  0.00    +0.000 C 
ATOM     40  C   UNL     1      -3.962  12.651  24.166  0.00  0.00    +0.000 C 
ENDBRANCH  27  37
ENDBRANCH   1  29
TORSDOF 6
ENDMDL
MODEL 7
REMARK VINA RESULT:      -9.9      5.652      7.587
REMARK  Name = 
REMARK  10 active torsions:
REMARK  status: ('A' for Active; 'I' for Inactive)
REMARK    1  A    between atoms: C_1  and  C_2
REMARK    2  A    between atoms: C_5  and  N_6
REMARK    3  A    between atoms: C_8  and  C_9
REMARK    4  A    between atoms: C_9  and  C_10
REMARK    5  A    between atoms: C_9  and  C_11
REMARK    6  A    between atoms: C_9  and  C_12
REMARK    7  A    between atoms: C_14  and  N_15
REMARK    8  A    between atoms: N_18  and  C_19
REMARK    9  A    between atoms: C_23  and  N_24
REMARK   10  A    between atoms: N_24  and  C_25
REMARK                            x       y       z     vdW  Elec       q    Type
REMARK                         _______ _______ _______ _____ _____    ______ ____
ROOT
ATOM      1  N   UNL     1       1.496  12.819  18.180  0.00  0.00    +0.000 N 
ATOM      2  C   UNL     1       2.476  13.757  18.665  0.00  0.00    +0.000 C 
ATOM      3  O   UNL     1       2.437  14.086  19.848  0.00  0.00    +0.000 OA
ATOM      4  N   UNL     1       3.347  14.133  17.693  0.00  0.00    +0.000 N 
ATOM      5  H   UNL     1       1.695  12.251  17.370  0.00  0.00    +0.000 HD
ATOM      6  H   UNL     1       2.994  14.154  16.757  0.00  0.00    +0.000 HD
ENDROOT
BRANCH   4   7
ATOM      7  C   UNL     1       4.408  15.048  17.996  0.00  0.00    +0.000 A 
ATOM      8  C   UNL     1       4.073  16.243  18.642  0.00  0.00    +0.000 A 
ATOM      9  C   UNL     1       5.104  17.079  19.097  0.00  0.00    +0.000 A 
ATOM     10  C   UNL     1       6.458  16.789  18.869  0.00  0.00    +0.000 A 
ATOM     11  C   UNL     1       6.833  15.653  18.159  0.00  0.00    +0.000 A 
ATOM     12  C   UNL     1       5.774  14.775  17.753  0.00  0.00    +0.000 A 
BRANCH  11  13
ATOM     13  N   UNL     1       8.158  15.087  18.182  0.00  0.00    +0.000 N 
ATOM     14  H   UNL     1       7.921  14.273  17.589  0.00  0.00    +0.000 HD
BRANCH  13  15
ATOM     15  C   UNL     1       9.135  14.371  19.178  0.00  0.00    +0.000 A 
ATOM     16  C   UNL     1      10.397  14.762  18.745  0.00  0.00    +0.000 A 
ATOM     17  C   UNL     1      10.790  14.102  17.598  0.00  0.00    +0.000 A 
ATOM     18  N   UNL     1      10.238  12.914  17.244  0.00  0.00    +0.000 NA
ATOM     19  C   UNL     1       9.574  12.257  18.227  0.00  0.00    +0.000 A 
ATOM     20  C   UNL     1       9.540  10.865  18.271  0.00  0.00    +0.000 A 
ATOM     21  C   UNL     1       9.397  10.180  19.486  0.00  0.00    +0.000 A 
ATOM     22  C   UNL     1       9.334  10.898  20.658  0.00  0.00    +0.000 A 
ATOM     23  C   UNL     1       9.188  12.294  20.592  0.00  0.00    +0.000 A 
ATOM     24  C   UNL     1       9.130  12.978  19.338  0.00  0.00    +0.000 A 
ENDBRANCH  13  15
ENDBRANCH  11  13
ENDBRANCH   4   7
BRANCH   1  29
ATOM     25  N   UNL     1       0.136  11.148  19.448  0.00  0.00    +0.000 N 
ATOM     26  N   UNL     1      -1.022  11.140  20.160  0.00  0.00    +0.000 NA
ATOM     27  C   UNL     1      -1.264  12.435  20.429  0.00  0.00    +0.000 A 
ATOM     28  C   UNL     1      -0.361  13.273  19.723  0.00  0.00    +0.000 A 
ATOM     29  C   UNL     1       0.485  12.420  19.060  0.00  0.00    +0.000 A 
BRANCH  25  34
ATOM     30  C   UNL     1       3.155   6.347  18.596  0.00  0.00    +0.000 C 
ATOM     31  C   UNL     1       2.364   7.599  18.836  0.00  0.00    +0.000 A 
ATOM     32  C   UNL     1       1.840   7.900  20.100  0.00  0.00    +0.000 A 
ATOM     33  C   UNL     1       1.120   9.080  20.315  0.00  0.00    +0.000 A 
ATOM     34  C   UNL     1       0.885   9.952  19.246  0.00  0.00    +0.000 A 
ATOM     35  C   UNL     1       1.426   9.663  17.984  0.00  0.00    +0.000 A 
ATOM     36  C   UNL     1       2.167   8.499  17.784  0.00  0.00    +0.000 A 
ENDBRANCH  25  34
BRANCH  27  37
ATOM     37  C   UNL     1      -2.400  12.884  21.346  0.00  0.00    +0.000 C 
ATOM     38  C   UNL     1      -2.443  12.092  22.669  0.00  0.00    +0.000 C 
ATOM     39  C   UNL     1      -2.239  14.381  21.697  0.00  0.00    +0.000 C 
ATOM     40  C   UNL     1      -3.754  12.695  20.632  0.00  0.00    +0.000 C 
ENDBRANCH  27  37
ENDBRANCH   1  29
TORSDOF 6
ENDMDL
MODEL 8
REMARK VINA RESULT:      -9.8      2.405      3.895
REMARK  Name = 
REMARK  10 active torsions:
REMARK  status: ('A' for Active; 'I' for Inactive)
REMARK    1  A    between atoms: C_1  and  C_2
REMARK    2  A    between atoms: C_5  and  N_6
REMARK    3  A    between atoms: C_8  and  C_9
REMARK    4  A    between atoms: C_9  and  C_10
REMARK    5  A    between atoms: C_9  and  C_11
REMARK    6  A    between atoms: C_9  and  C_12
REMARK    7  A    between atoms: C_14  and  N_15
REMARK    8  A    between atoms: N_18  and  C_19
REMARK    9  A    between atoms: C_23  and  N_24
REMARK   10  A    between atoms: N_24  and  C_25
REMARK                            x       y       z     vdW  Elec       q    Type
REMARK                         _______ _______ _______ _____ _____    ______ ____
ROOT
ATOM      1  N   UNL     1       0.384  11.252  18.541  0.00  0.00    +0.000 N 
ATOM      2  C   UNL     1       1.112  10.087  18.976  0.00  0.00    +0.000 C 
ATOM      3  O   UNL     1       1.107   9.805  20.171  0.00  0.00    +0.000 OA
ATOM      4  N   UNL     1       1.702   9.438  17.938  0.00  0.00    +0.000 N 
ATOM      5  H   UNL     1       0.051  11.317  17.591  0.00  0.00    +0.000 HD
ATOM      6  H   UNL     1       1.993  10.002  17.164  0.00  0.00    +0.000 HD
ENDROOT
BRANCH   4   7
ATOM      7  C   UNL     1       2.455   8.242  18.176  0.00  0.00    +0.000 A 
ATOM      8  C   UNL     1       2.134   7.484  19.307  0.00  0.00    +0.000 A 
ATOM      9  C   UNL     1       2.738   6.228  19.476  0.00  0.00    +0.000 A 
ATOM     10  C   UNL     1       3.701   5.736  18.581  0.00  0.00    +0.000 A 
ATOM     11  C   UNL     1       4.110   6.492  17.487  0.00  0.00    +0.000 A 
ATOM     12  C   UNL     1       3.440   7.746  17.292  0.00  0.00    +0.000 A 
BRANCH  11  13
ATOM     13  N   UNL     1       4.799   5.951  16.343  0.00  0.00    +0.000 N 
ATOM     14  H   UNL     1       4.099   6.273  15.653  0.00  0.00    +0.000 HD
BRANCH  13  15
ATOM     15  C   UNL     1       5.136   4.562  15.699  0.00  0.00    +0.000 A 
ATOM     16  C   UNL     1       6.018   3.981  16.602  0.00  0.00    +0.000 A 
ATOM     17  C   UNL     1       7.284   4.527  16.531  0.00  0.00    +0.000 A 
ATOM     18  N   UNL     1       7.709   5.177  15.419  0.00  0.00    +0.000 NA
ATOM     19  C   UNL     1       6.990   4.948  14.291  0.00  0.00    +0.000 A 
ATOM     20  C   UNL     1       7.592   4.952  13.036  0.00  0.00    +0.000 A 
ATOM     21  C   UNL     1       7.072   4.192  11.978  0.00  0.00    +0.000 A 
ATOM     22  C   UNL     1       5.972   3.396  12.201  0.00  0.00    +0.000 A 
ATOM     23  C   UNL     1       5.268   3.534  13.409  0.00  0.00    +0.000 A 
ATOM     24  C   UNL     1       5.686   4.462  14.412  0.00  0.00    +0.000 A 
ENDBRANCH  13  15
ENDBRANCH  11  13
ENDBRANCH   4   7
BRANCH   1  29
ATOM     25  N   UNL     1       0.349  13.132  20.189  0.00  0.00    +0.000 N 
ATOM     26  N   UNL     1      -0.444  13.544  21.214  0.00  0.00    +0.000 NA
ATOM     27  C   UNL     1      -1.602  12.888  21.031  0.00  0.00    +0.000 A 
ATOM     28  C   UNL     1      -1.475  11.918  20.003  0.00  0.00    +0.000 A 
ATOM     29  C   UNL     1      -0.197  12.060  19.524  0.00  0.00    +0.000 A 
BRANCH  25  34
ATOM     30  C   UNL     1       5.170  15.948  18.876  0.00  0.00    +0.000 C 
ATOM     31  C   UNL     1       3.903  15.215  19.203  0.00  0.00    +0.000 A 
ATOM     32  C   UNL     1       2.850  15.131  18.283  0.00  0.00    +0.000 A 
ATOM     33  C   UNL     1       1.681  14.428  18.593  0.00  0.00    +0.000 A 
ATOM     34  C   UNL     1       1.543  13.835  19.853  0.00  0.00    +0.000 A 
ATOM     35  C   UNL     1       2.605  13.899  20.769  0.00  0.00    +0.000 A 
ATOM     36  C   UNL     1       3.778  14.578  20.442  0.00  0.00    +0.000 A 
ENDBRANCH  25  34
BRANCH  27  37
ATOM     37  C   UNL     1      -2.844  13.164  21.878  0.00  0.00    +0.000 C 
ATOM     38  C   UNL     1      -4.155  12.853  21.128  0.00  0.00    +0.000 C 
ATOM     39  C   UNL     1      -2.816  12.298  23.159  0.00  0.00    +0.000 C 
ATOM     40  C   UNL     1      -2.873  14.648  22.296  0.00  0.00    +0.000 C 
ENDBRANCH  27  37
ENDBRANCH   1  29
TORSDOF 6
ENDMDL
MODEL 9
REMARK VINA RESULT:      -9.8      2.649      3.700
REMARK  Name = 
REMARK  10 active torsions:
REMARK  status: ('A' for Active; 'I' for Inactive)
REMARK    1  A    between atoms: C_1  and  C_2
REMARK    2  A    between atoms: C_5  and  N_6
REMARK    3  A    between atoms: C_8  and  C_9
REMARK    4  A    between atoms: C_9  and  C_10
REMARK    5  A    between atoms: C_9  and  C_11
REMARK    6  A    between atoms: C_9  and  C_12
REMARK    7  A    between atoms: C_14  and  N_15
REMARK    8  A    between atoms: N_18  and  C_19
REMARK    9  A    between atoms: C_23  and  N_24
REMARK   10  A    between atoms: N_24  and  C_25
REMARK                            x       y       z     vdW  Elec       q    Type
REMARK                         _______ _______ _______ _____ _____    ______ ____
ROOT
ATOM      1  N   UNL     1       1.521  11.627  17.976  0.00  0.00    +0.000 N 
ATOM      2  C   UNL     1       1.529  10.479  18.847  0.00  0.00    +0.000 C 
ATOM      3  O   UNL     1       1.140  10.618  20.004  0.00  0.00    +0.000 OA
ATOM      4  N   UNL     1       1.968   9.361  18.213  0.00  0.00    +0.000 N 
ATOM      5  H   UNL     1       1.465  11.504  16.976  0.00  0.00    +0.000 HD
ATOM      6  H   UNL     1       2.641   9.493  17.484  0.00  0.00    +0.000 HD
ENDROOT
BRANCH   4   7
ATOM      7  C   UNL     1       2.025   8.114  18.917  0.00  0.00    +0.000 A 
ATOM      8  C   UNL     1       1.619   8.101  20.256  0.00  0.00    +0.000 A 
ATOM      9  C   UNL     1       1.508   6.869  20.919  0.00  0.00    +0.000 A 
ATOM     10  C   UNL     1       1.853   5.655  20.304  0.00  0.00    +0.000 A 
ATOM     11  C   UNL     1       2.339   5.630  19.001  0.00  0.00    +0.000 A 
ATOM     12  C   UNL     1       2.390   6.888  18.314  0.00  0.00    +0.000 A 
BRANCH  11  13
ATOM     13  N   UNL     1       2.377   4.449  18.177  0.00  0.00    +0.000 N 
ATOM     14  H   UNL     1       2.227   3.787  18.957  0.00  0.00    +0.000 HD
BRANCH  13  15
ATOM     15  C   UNL     1       3.405   3.602  17.349  0.00  0.00    +0.000 A 
ATOM     16  C   UNL     1       3.512   2.415  18.066  0.00  0.00    +0.000 A 
ATOM     17  C   UNL     1       4.271   2.556  19.211  0.00  0.00    +0.000 A 
ATOM     18  N   UNL     1       5.167   3.565  19.343  0.00  0.00    +0.000 NA
ATOM     19  C   UNL     1       5.531   4.184  18.192  0.00  0.00    +0.000 A 
ATOM     20  C   UNL     1       6.810   4.709  18.025  0.00  0.00    +0.000 A 
ATOM     21  C   UNL     1       7.393   4.814  16.755  0.00  0.00    +0.000 A 
ATOM     22  C   UNL     1       6.703   4.349  15.659  0.00  0.00    +0.000 A 
ATOM     23  C   UNL     1       5.353   3.990  15.810  0.00  0.00    +0.000 A 
ATOM     24  C   UNL     1       4.697   4.075  17.076  0.00  0.00    +0.000 A 
ENDBRANCH  13  15
ENDBRANCH  11  13
ENDBRANCH   4   7
BRANCH   1  29
ATOM     25  N   UNL     1      -0.078  13.407  18.699  0.00  0.00    +0.000 N 
ATOM     26  N   UNL     1      -0.010  14.708  19.090  0.00  0.00    +0.000 NA
ATOM     27  C   UNL     1       1.282  14.901  19.406  0.00  0.00    +0.000 A 
ATOM     28  C   UNL     1       2.065  13.777  19.032  0.00  0.00    +0.000 A 
ATOM     29  C   UNL     1       1.173  12.863  18.530  0.00  0.00    +0.000 A 
BRANCH  25  34
ATOM     30  C   UNL     1      -5.105  10.692  18.208  0.00  0.00    +0.000 C 
ATOM     31  C   UNL     1      -3.794  11.407  18.353  0.00  0.00    +0.000 A 
ATOM     32  C   UNL     1      -3.485  12.137  19.507  0.00  0.00    +0.000 A 
ATOM     33  C   UNL     1      -2.252  12.784  19.638  0.00  0.00    +0.000 A 
ATOM     34  C   UNL     1      -1.330  12.736  18.587  0.00  0.00    +0.000 A 
ATOM     35  C   UNL     1      -1.628  11.988  17.438  0.00  0.00    +0.000 A 
ATOM     36  C   UNL     1      -2.848  11.322  17.326  0.00  0.00    +0.000 A 
ENDBRANCH  25  34
BRANCH  27  37
ATOM     37  C   UNL     1       1.787  16.195  20.041  0.00  0.00    +0.000 C 
ATOM     38  C   UNL     1       2.019  17.314  19.005  0.00  0.00    +0.000 C 
ATOM     39  C   UNL     1       0.762  16.714  21.076  0.00  0.00    +0.000 C 
ATOM     40  C   UNL     1       3.121  15.934  20.769  0.00  0.00    +0.000 C 
ENDBRANCH  27  37
ENDBRANCH   1  29
TORSDOF 6
ENDMDL
