MODEL 1
REMARK VINA RESULT:      -5.8      0.000      0.000
REMARK  Name = 
REMARK  4 active torsions:
REMARK  status: ('A' for Active; 'I' for Inactive)
REMARK    1  A    between atoms: C_1  and  C_2
REMARK    2  A    between atoms: C_2  and  O_3
REMARK    3  A    between atoms: C_2  and  C_4
REMARK    4  A    between atoms: C_4  and  C_5
REMARK                            x       y       z     vdW  Elec       q    Type
REMARK                         _______ _______ _______ _____ _____    ______ ____
ROOT
ATOM      1  C   UNL     1       6.677   5.404  18.082  0.00  0.00    +0.000 C 
ATOM      2  C   UNL     1       7.471   4.474  17.147  0.00  0.00    +0.000 C 
ATOM      3  C   UNL     1       6.448   6.759  17.376  0.00  0.00    +0.000 C 
ATOM      4  C   UNL     1       7.650   7.566  17.775  0.00  0.00    +0.000 C 
ATOM      5  O   UNL     1       8.014   8.610  17.266  0.00  0.00    +0.000 OA
ATOM      6  N   UNL     1       8.231   6.966  18.846  0.00  0.00    +0.000 N 
ATOM      7  C   UNL     1       7.591   5.827  19.218  0.00  0.00    +0.000 C 
ATOM      8  O   UNL     1       7.776   5.242  20.271  0.00  0.00    +0.000 OA
ATOM      9  H   UNL     1       8.950   7.412  19.395  0.00  0.00    +0.000 HD
ENDROOT
BRANCH   1  11
ATOM     10  C   UNL     1       4.250   4.636  17.511  0.00  0.00    +0.000 C 
ATOM     11  C   UNL     1       5.360   4.760  18.554  0.00  0.00    +0.000 C 
BRANCH  11  12
ATOM     12  O   UNL     1       5.610   3.471  19.118  0.00  0.00    +0.000 OA
ATOM     13  H   UNL     1       5.771   3.585  20.073  0.00  0.00    +0.000 HD
ENDBRANCH  11  12
ENDBRANCH   1  11
TORSDOF 2
ENDMDL
MODEL 2
REMARK VINA RESULT:      -5.7      2.533      4.027
REMARK  Name = 
REMARK  4 active torsions:
REMARK  status: ('A' for Active; 'I' for Inactive)
REMARK    1  A    between atoms: C_1  and  C_2
REMARK    2  A    between atoms: C_2  and  O_3
REMARK    3  A    between atoms: C_2  and  C_4
REMARK    4  A    between atoms: C_4  and  C_5
REMARK                            x       y       z     vdW  Elec       q    Type
REMARK                         _______ _______ _______ _____ _____    ______ ____
ROOT
ATOM      1  C   UNL     1       5.985   4.753  16.300  0.00  0.00    +0.000 C 
ATOM      2  C   UNL     1       5.615   6.248  16.324  0.00  0.00    +0.000 C 
ATOM      3  C   UNL     1       4.723   3.913  16.592  0.00  0.00    +0.000 C 
ATOM      4  C   UNL     1       4.734   3.778  18.088  0.00  0.00    +0.000 C 
ATOM      5  O   UNL     1       3.808   3.398  18.781  0.00  0.00    +0.000 OA
ATOM      6  N   UNL     1       5.978   4.091  18.536  0.00  0.00    +0.000 N 
ATOM      7  C   UNL     1       6.819   4.452  17.532  0.00  0.00    +0.000 C 
ATOM      8  O   UNL     1       8.028   4.554  17.646  0.00  0.00    +0.000 OA
ATOM      9  H   UNL     1       6.276   3.910  19.482  0.00  0.00    +0.000 HD
ENDROOT
BRANCH   1  11
ATOM     10  C   UNL     1       5.739   4.069  13.794  0.00  0.00    +0.000 C 
ATOM     11  C   UNL     1       6.664   4.349  14.978  0.00  0.00    +0.000 C 
BRANCH  11  12
ATOM     12  O   UNL     1       7.624   5.334  14.591  0.00  0.00    +0.000 OA
ATOM     13  H   UNL     1       8.502   4.907  14.568  0.00  0.00    +0.000 HD
ENDBRANCH  11  12
ENDBRANCH   1  11
TORSDOF 2
ENDMDL
MODEL 3
REMARK VINA RESULT:      -5.5      2.316      3.624
REMARK  Name = 
REMARK  4 active torsions:
REMARK  status: ('A' for Active; 'I' for Inactive)
REMARK    1  A    between atoms: C_1  and  C_2
REMARK    2  A    between atoms: C_2  and  O_3
REMARK    3  A    between atoms: C_2  and  C_4
REMARK    4  A    between atoms: C_4  and  C_5
REMARK                            x       y       z     vdW  Elec       q    Type
REMARK                         _______ _______ _______ _____ _____    ______ ____
ROOT
ATOM      1  C   UNL     1       6.240   4.676  16.384  0.00  0.00    +0.000 C 
ATOM      2  C   UNL     1       4.988   3.796  16.554  0.00  0.00    +0.000 C 
ATOM      3  C   UNL     1       7.189   4.445  17.581  0.00  0.00    +0.000 C 
ATOM      4  C   UNL     1       6.740   5.469  18.583  0.00  0.00    +0.000 C 
ATOM      5  O   UNL     1       7.043   5.501  19.762  0.00  0.00    +0.000 OA
ATOM      6  N   UNL     1       5.986   6.397  17.937  0.00  0.00    +0.000 N 
ATOM      7  C   UNL     1       5.838   6.122  16.615  0.00  0.00    +0.000 C 
ATOM      8  O   UNL     1       5.408   6.908  15.789  0.00  0.00    +0.000 OA
ATOM      9  H   UNL     1       5.716   7.270  18.364  0.00  0.00    +0.000 HD
ENDROOT
BRANCH   1  11
ATOM     10  C   UNL     1       6.038   4.006  13.871  0.00  0.00    +0.000 C 
ATOM     11  C   UNL     1       6.935   4.435  15.032  0.00  0.00    +0.000 C 
BRANCH  11  12
ATOM     12  O   UNL     1       7.677   5.591  14.640  0.00  0.00    +0.000 OA
ATOM     13  H   UNL     1       7.786   6.161  15.424  0.00  0.00    +0.000 HD
ENDBRANCH  11  12
ENDBRANCH   1  11
TORSDOF 2
ENDMDL
MODEL 4
REMARK VINA RESULT:      -5.5      2.223      3.304
REMARK  Name = 
REMARK  4 active torsions:
REMARK  status: ('A' for Active; 'I' for Inactive)
REMARK    1  A    between atoms: C_1  and  C_2
REMARK    2  A    between atoms: C_2  and  O_3
REMARK    3  A    between atoms: C_2  and  C_4
REMARK    4  A    between atoms: C_4  and  C_5
REMARK                            x       y       z     vdW  Elec       q    Type
REMARK                         _______ _______ _______ _____ _____    ______ ____
ROOT
ATOM      1  C   UNL     1       6.741   5.458  16.834  0.00  0.00    +0.000 C 
ATOM      2  C   UNL     1       7.279   6.900  16.888  0.00  0.00    +0.000 C 
ATOM      3  C   UNL     1       5.276   5.444  17.322  0.00  0.00    +0.000 C 
ATOM      4  C   UNL     1       5.405   5.224  18.802  0.00  0.00    +0.000 C 
ATOM      5  O   UNL     1       4.526   5.377  19.630  0.00  0.00    +0.000 OA
ATOM      6  N   UNL     1       6.656   4.760  19.057  0.00  0.00    +0.000 N 
ATOM      7  C   UNL     1       7.416   4.660  17.936  0.00  0.00    +0.000 C 
ATOM      8  O   UNL     1       8.476   4.064  17.870  0.00  0.00    +0.000 OA
ATOM      9  H   UNL     1       6.923   4.380  19.953  0.00  0.00    +0.000 HD
ENDROOT
BRANCH   1  11
ATOM     10  C   UNL     1       5.611   4.606  14.643  0.00  0.00    +0.000 C 
ATOM     11  C   UNL     1       6.898   4.837  15.434  0.00  0.00    +0.000 C 
BRANCH  11  12
ATOM     12  O   UNL     1       7.795   5.616  14.641  0.00  0.00    +0.000 OA
ATOM     13  H   UNL     1       7.386   6.490  14.493  0.00  0.00    +0.000 HD
ENDBRANCH  11  12
ENDBRANCH   1  11
TORSDOF 2
ENDMDL
MODEL 5
REMARK VINA RESULT:      -5.4      3.899      5.537
REMARK  Name = 
REMARK  4 active torsions:
REMARK  status: ('A' for Active; 'I' for Inactive)
REMARK    1  A    between atoms: C_1  and  C_2
REMARK    2  A    between atoms: C_2  and  O_3
REMARK    3  A    between atoms: C_2  and  C_4
REMARK    4  A    between atoms: C_4  and  C_5
REMARK                            x       y       z     vdW  Elec       q    Type
REMARK                         _______ _______ _______ _____ _____    ______ ____
ROOT
ATOM      1  C   UNL     1       2.951   3.629  19.030  0.00  0.00    +0.000 C 
ATOM      2  C   UNL     1       1.685   3.888  18.192  0.00  0.00    +0.000 C 
ATOM      3  C   UNL     1       2.648   2.539  20.082  0.00  0.00    +0.000 C 
ATOM      4  C   UNL     1       2.159   3.324  21.265  0.00  0.00    +0.000 C 
ATOM      5  O   UNL     1       1.585   2.872  22.239  0.00  0.00    +0.000 OA
ATOM      6  N   UNL     1       2.523   4.622  21.096  0.00  0.00    +0.000 N 
ATOM      7  C   UNL     1       3.180   4.833  19.926  0.00  0.00    +0.000 C 
ATOM      8  O   UNL     1       3.800   5.846  19.654  0.00  0.00    +0.000 OA
ATOM      9  H   UNL     1       2.456   5.306  21.835  0.00  0.00    +0.000 HD
ENDROOT
BRANCH   1  11
ATOM     10  C   UNL     1       4.266   3.995  16.807  0.00  0.00    +0.000 C 
ATOM     11  C   UNL     1       4.162   3.272  18.150  0.00  0.00    +0.000 C 
BRANCH  11  12
ATOM     12  O   UNL     1       5.378   3.465  18.874  0.00  0.00    +0.000 OA
ATOM     13  H   UNL     1       5.617   4.409  18.819  0.00  0.00    +0.000 HD
ENDBRANCH  11  12
ENDBRANCH   1  11
TORSDOF 2
ENDMDL
MODEL 6
REMARK VINA RESULT:      -5.4      2.322      2.631
REMARK  Name = 
REMARK  4 active torsions:
REMARK  status: ('A' for Active; 'I' for Inactive)
REMARK    1  A    between atoms: C_1  and  C_2
REMARK    2  A    between atoms: C_2  and  O_3
REMARK    3  A    between atoms: C_2  and  C_4
REMARK    4  A    between atoms: C_4  and  C_5
REMARK                            x       y       z     vdW  Elec       q    Type
REMARK                         _______ _______ _______ _____ _____    ______ ____
ROOT
ATOM      1  C   UNL     1       5.314   5.025  17.208  0.00  0.00    +0.000 C 
ATOM      2  C   UNL     1       4.580   3.702  16.923  0.00  0.00    +0.000 C 
ATOM      3  C   UNL     1       5.613   5.739  15.871  0.00  0.00    +0.000 C 
ATOM      4  C   UNL     1       6.961   5.201  15.485  0.00  0.00    +0.000 C 
ATOM      5  O   UNL     1       7.487   5.302  14.391  0.00  0.00    +0.000 OA
ATOM      6  N   UNL     1       7.527   4.637  16.583  0.00  0.00    +0.000 N 
ATOM      7  C   UNL     1       6.721   4.695  17.675  0.00  0.00    +0.000 C 
ATOM      8  O   UNL     1       7.084   4.469  18.816  0.00  0.00    +0.000 OA
ATOM      9  H   UNL     1       8.497   4.362  16.614  0.00  0.00    +0.000 HD
ENDROOT
BRANCH   1  11
ATOM     10  C   UNL     1       3.055   6.154  17.864  0.00  0.00    +0.000 C 
ATOM     11  C   UNL     1       4.531   5.920  18.186  0.00  0.00    +0.000 C 
BRANCH  11  12
ATOM     12  O   UNL     1       4.638   5.414  19.518  0.00  0.00    +0.000 OA
ATOM     13  H   UNL     1       5.166   4.594  19.489  0.00  0.00    +0.000 HD
ENDBRANCH  11  12
ENDBRANCH   1  11
TORSDOF 2
ENDMDL
MODEL 7
REMARK VINA RESULT:      -5.4      3.570      5.098
REMARK  Name = 
REMARK  4 active torsions:
REMARK  status: ('A' for Active; 'I' for Inactive)
REMARK    1  A    between atoms: C_1  and  C_2
REMARK    2  A    between atoms: C_2  and  O_3
REMARK    3  A    between atoms: C_2  and  C_4
REMARK    4  A    between atoms: C_4  and  C_5
REMARK                            x       y       z     vdW  Elec       q    Type
REMARK                         _______ _______ _______ _____ _____    ______ ____
ROOT
ATOM      1  C   UNL     1       2.513   3.354  19.193  0.00  0.00    +0.000 C 
ATOM      2  C   UNL     1       1.791   3.881  17.939  0.00  0.00    +0.000 C 
ATOM      3  C   UNL     1       3.293   4.512  19.854  0.00  0.00    +0.000 C 
ATOM      4  C   UNL     1       4.638   4.450  19.188  0.00  0.00    +0.000 C 
ATOM      5  O   UNL     1       5.496   5.313  19.222  0.00  0.00    +0.000 OA
ATOM      6  N   UNL     1       4.763   3.236  18.591  0.00  0.00    +0.000 N 
ATOM      7  C   UNL     1       3.657   2.462  18.741  0.00  0.00    +0.000 C 
ATOM      8  O   UNL     1       3.609   1.269  18.501  0.00  0.00    +0.000 OA
ATOM      9  H   UNL     1       5.641   2.897  18.228  0.00  0.00    +0.000 HD
ENDROOT
BRANCH   1  11
ATOM     10  C   UNL     1       1.965   2.635  21.640  0.00  0.00    +0.000 C 
ATOM     11  C   UNL     1       1.543   2.668  20.172  0.00  0.00    +0.000 C 
BRANCH  11  12
ATOM     12  O   UNL     1       0.244   3.255  20.078  0.00  0.00    +0.000 OA
ATOM     13  H   UNL     1      -0.047   3.492  20.979  0.00  0.00    +0.000 HD
ENDBRANCH  11  12
ENDBRANCH   1  11
TORSDOF 2
ENDMDL
MODEL 8
REMARK VINA RESULT:      -5.3      2.263      4.021
REMARK  Name = 
REMARK  4 active torsions:
REMARK  status: ('A' for Active; 'I' for Inactive)
REMARK    1  A    between atoms: C_1  and  C_2
REMARK    2  A    between atoms: C_2  and  O_3
REMARK    3  A    between atoms: C_2  and  C_4
REMARK    4  A    between atoms: C_4  and  C_5
REMARK                            x       y       z     vdW  Elec       q    Type
REMARK                         _______ _______ _______ _____ _____    ______ ____
ROOT
ATOM      1  C   UNL     1       5.498   5.279  17.490  0.00  0.00    +0.000 C 
ATOM      2  C   UNL     1       4.528   6.475  17.543  0.00  0.00    +0.000 C 
ATOM      3  C   UNL     1       4.825   4.115  16.728  0.00  0.00    +0.000 C 
ATOM      4  C   UNL     1       4.119   3.353  17.813  0.00  0.00    +0.000 C 
ATOM      5  O   UNL     1       3.268   2.497  17.651  0.00  0.00    +0.000 OA
ATOM      6  N   UNL     1       4.637   3.734  19.010  0.00  0.00    +0.000 N 
ATOM      7  C   UNL     1       5.597   4.687  18.885  0.00  0.00    +0.000 C 
ATOM      8  O   UNL     1       6.360   5.021  19.773  0.00  0.00    +0.000 OA
ATOM      9  H   UNL     1       4.444   3.240  19.867  0.00  0.00    +0.000 HD
ENDROOT
BRANCH   1  11
ATOM     10  C   UNL     1       7.431   7.020  17.302  0.00  0.00    +0.000 C 
ATOM     11  C   UNL     1       6.858   5.667  16.883  0.00  0.00    +0.000 C 
BRANCH  11  12
ATOM     12  O   UNL     1       7.829   4.652  17.147  0.00  0.00    +0.000 OA
ATOM     13  H   UNL     1       7.600   4.229  17.996  0.00  0.00    +0.000 HD
ENDBRANCH  11  12
ENDBRANCH   1  11
TORSDOF 2
ENDMDL
MODEL 9
REMARK VINA RESULT:      -5.3      3.354      4.633
REMARK  Name = 
REMARK  4 active torsions:
REMARK  status: ('A' for Active; 'I' for Inactive)
REMARK    1  A    between atoms: C_1  and  C_2
REMARK    2  A    between atoms: C_2  and  O_3
REMARK    3  A    between atoms: C_2  and  C_4
REMARK    4  A    between atoms: C_4  and  C_5
REMARK                            x       y       z     vdW  Elec       q    Type
REMARK                         _______ _______ _______ _____ _____    ______ ____
ROOT
ATOM      1  C   UNL     1       2.989   2.933  19.244  0.00  0.00    +0.000 C 
ATOM      2  C   UNL     1       2.734   2.111  17.967  0.00  0.00    +0.000 C 
ATOM      3  C   UNL     1       3.051   4.432  18.878  0.00  0.00    +0.000 C 
ATOM      4  C   UNL     1       4.505   4.656  18.576  0.00  0.00    +0.000 C 
ATOM      5  O   UNL     1       4.981   5.628  18.018  0.00  0.00    +0.000 OA
ATOM      6  N   UNL     1       5.213   3.616  19.090  0.00  0.00    +0.000 N 
ATOM      7  C   UNL     1       4.420   2.688  19.687  0.00  0.00    +0.000 C 
ATOM      8  O   UNL     1       4.825   1.795  20.410  0.00  0.00    +0.000 OA
ATOM      9  H   UNL     1       6.219   3.627  19.163  0.00  0.00    +0.000 HD
ENDROOT
BRANCH   1  11
ATOM     10  C   UNL     1       2.108   3.392  21.657  0.00  0.00    +0.000 C 
ATOM     11  C   UNL     1       1.944   2.640  20.336  0.00  0.00    +0.000 C 
BRANCH  11  12
ATOM     12  O   UNL     1       0.624   2.866  19.836  0.00  0.00    +0.000 OA
ATOM     13  H   UNL     1       0.033   3.011  20.599  0.00  0.00    +0.000 HD
ENDBRANCH  11  12
ENDBRANCH   1  11
TORSDOF 2
ENDMDL
