MODEL 1
REMARK VINA RESULT:      -6.7      0.000      0.000
REMARK  Name = 
REMARK  8 active torsions:
REMARK  status: ('A' for Active; 'I' for Inactive)
REMARK    1  A    between atoms: C_1  and  N_2
REMARK    2  A    between atoms: N_2  and  C_3
REMARK    3  A    between atoms: N_2  and  C_4
REMARK    4  A    between atoms: C_7  and  C_8
REMARK    5  A    between atoms: C_11  and  S_12
REMARK    6  A    between atoms: S_12  and  C_13
REMARK    7  A    between atoms: C_13  and  C_14
REMARK    8  A    between atoms: N_19  and  C_20
REMARK                            x       y       z     vdW  Elec       q    Type
REMARK                         _______ _______ _______ _____ _____    ______ ____
ROOT
ATOM      1  C   UNL     1       3.327   7.042  18.027  0.00  0.00    +0.000 A 
ATOM      2  N   UNL     1       4.545   7.408  17.662  0.00  0.00    +0.000 NA
ATOM      3  N   UNL     1       5.187   6.322  17.122  0.00  0.00    +0.000 NA
ATOM      4  C   UNL     1       4.344   5.319  17.110  0.00  0.00    +0.000 A 
ATOM      5  N   UNL     1       3.168   5.701  17.699  0.00  0.00    +0.000 N 
ATOM      6  C   UNL     1       1.986   4.914  17.918  0.00  0.00    +0.000 C 
ENDROOT
BRANCH   1  10
ATOM      7  C   UNL     1       0.419   9.695  19.860  0.00  0.00    +0.000 A 
ATOM      8  C   UNL     1       1.062   8.669  20.572  0.00  0.00    +0.000 A 
ATOM      9  C   UNL     1       1.990   7.803  19.966  0.00  0.00    +0.000 A 
ATOM     10  C   UNL     1       2.320   7.934  18.615  0.00  0.00    +0.000 A 
ATOM     11  C   UNL     1       1.656   8.920  17.886  0.00  0.00    +0.000 A 
ATOM     12  C   UNL     1       0.751   9.794  18.503  0.00  0.00    +0.000 A 
BRANCH   7  14
ATOM     13  C   UNL     1      -1.333  11.425  19.637  0.00  0.00    +0.000 C 
ATOM     14  N   UNL     1      -0.484  10.572  20.455  0.00  0.00    +0.000 N 
ATOM     15  C   UNL     1      -0.342  10.919  21.865  0.00  0.00    +0.000 C 
ENDBRANCH   7  14
ENDBRANCH   1  10
BRANCH   4  16
ATOM     16  S   UNL     1       4.734   3.733  16.539  0.00  0.00    +0.000 S 
BRANCH  16  17
ATOM     17  C   UNL     1       6.340   3.928  15.690  0.00  0.00    +0.000 C 
BRANCH  17  18
ATOM     18  C   UNL     1       6.372   4.584  14.308  0.00  0.00    +0.000 C 
ATOM     19  C   UNL     1       6.301   3.642  13.119  0.00  0.00    +0.000 C 
ATOM     20  C   UNL     1       7.024   4.424  12.050  0.00  0.00    +0.000 C 
ATOM     21  C   UNL     1       8.091   5.145  12.843  0.00  0.00    +0.000 C 
ATOM     22  O   UNL     1       7.530   5.419  14.138  0.00  0.00    +0.000 OA
ENDBRANCH  17  18
ENDBRANCH  16  17
ENDBRANCH   4  16
TORSDOF 5
ENDMDL
MODEL 2
REMARK VINA RESULT:      -6.6      1.912      2.787
REMARK  Name = 
REMARK  8 active torsions:
REMARK  status: ('A' for Active; 'I' for Inactive)
REMARK    1  A    between atoms: C_1  and  N_2
REMARK    2  A    between atoms: N_2  and  C_3
REMARK    3  A    between atoms: N_2  and  C_4
REMARK    4  A    between atoms: C_7  and  C_8
REMARK    5  A    between atoms: C_11  and  S_12
REMARK    6  A    between atoms: S_12  and  C_13
REMARK    7  A    between atoms: C_13  and  C_14
REMARK    8  A    between atoms: N_19  and  C_20
REMARK                            x       y       z     vdW  Elec       q    Type
REMARK                         _______ _______ _______ _____ _____    ______ ____
ROOT
ATOM      1  C   UNL     1       2.680   7.494  18.579  0.00  0.00    +0.000 A 
ATOM      2  N   UNL     1       3.426   7.921  17.574  0.00  0.00    +0.000 NA
ATOM      3  N   UNL     1       4.090   6.848  17.033  0.00  0.00    +0.000 NA
ATOM      4  C   UNL     1       3.707   5.771  17.674  0.00  0.00    +0.000 A 
ATOM      5  N   UNL     1       2.847   6.118  18.681  0.00  0.00    +0.000 N 
ATOM      6  C   UNL     1       2.207   5.259  19.639  0.00  0.00    +0.000 C 
ENDROOT
BRANCH   1  10
ATOM      7  C   UNL     1      -0.015  10.001  20.885  0.00  0.00    +0.000 A 
ATOM      8  C   UNL     1       0.342  10.293  19.558  0.00  0.00    +0.000 A 
ATOM      9  C   UNL     1       1.229   9.485  18.824  0.00  0.00    +0.000 A 
ATOM     10  C   UNL     1       1.794   8.339  19.389  0.00  0.00    +0.000 A 
ATOM     11  C   UNL     1       1.484   8.062  20.720  0.00  0.00    +0.000 A 
ATOM     12  C   UNL     1       0.580   8.858  21.436  0.00  0.00    +0.000 A 
BRANCH   7  14
ATOM     13  C   UNL     1      -1.519  11.958  21.014  0.00  0.00    +0.000 C 
ATOM     14  N   UNL     1      -0.908  10.781  21.613  0.00  0.00    +0.000 N 
ATOM     15  C   UNL     1      -0.963  10.661  23.066  0.00  0.00    +0.000 C 
ENDBRANCH   7  14
ENDBRANCH   1  10
BRANCH   4  16
ATOM     16  S   UNL     1       4.311   4.184  17.345  0.00  0.00    +0.000 S 
BRANCH  16  17
ATOM     17  C   UNL     1       5.819   4.458  16.351  0.00  0.00    +0.000 C 
BRANCH  17  18
ATOM     18  C   UNL     1       7.055   5.052  17.030  0.00  0.00    +0.000 C 
ATOM     19  C   UNL     1       7.002   5.157  18.545  0.00  0.00    +0.000 C 
ATOM     20  C   UNL     1       7.921   6.322  18.815  0.00  0.00    +0.000 C 
ATOM     21  C   UNL     1       7.668   7.218  17.624  0.00  0.00    +0.000 C 
ATOM     22  O   UNL     1       7.377   6.355  16.512  0.00  0.00    +0.000 OA
ENDBRANCH  17  18
ENDBRANCH  16  17
ENDBRANCH   4  16
TORSDOF 5
ENDMDL
MODEL 3
REMARK VINA RESULT:      -6.6      1.634      2.356
REMARK  Name = 
REMARK  8 active torsions:
REMARK  status: ('A' for Active; 'I' for Inactive)
REMARK    1  A    between atoms: C_1  and  N_2
REMARK    2  A    between atoms: N_2  and  C_3
REMARK    3  A    between atoms: N_2  and  C_4
REMARK    4  A    between atoms: C_7  and  C_8
REMARK    5  A    between atoms: C_11  and  S_12
REMARK    6  A    between atoms: S_12  and  C_13
REMARK    7  A    between atoms: C_13  and  C_14
REMARK    8  A    between atoms: N_19  and  C_20
REMARK                            x       y       z     vdW  Elec       q    Type
REMARK                         _______ _______ _______ _____ _____    ______ ____
ROOT
ATOM      1  C   UNL     1       3.832   5.861  17.590  0.00  0.00    +0.000 A 
ATOM      2  N   UNL     1       3.488   4.615  17.309  0.00  0.00    +0.000 NA
ATOM      3  N   UNL     1       4.537   4.001  16.672  0.00  0.00    +0.000 NA
ATOM      4  C   UNL     1       5.529   4.854  16.614  0.00  0.00    +0.000 A 
ATOM      5  N   UNL     1       5.135   6.053  17.145  0.00  0.00    +0.000 N 
ATOM      6  C   UNL     1       5.894   7.268  17.262  0.00  0.00    +0.000 C 
ENDROOT
BRANCH   1  10
ATOM      7  C   UNL     1       1.405   8.712  19.789  0.00  0.00    +0.000 A 
ATOM      8  C   UNL     1       1.831   7.493  20.344  0.00  0.00    +0.000 A 
ATOM      9  C   UNL     1       2.602   6.568  19.618  0.00  0.00    +0.000 A 
ATOM     10  C   UNL     1       2.988   6.828  18.302  0.00  0.00    +0.000 A 
ATOM     11  C   UNL     1       2.535   8.013  17.724  0.00  0.00    +0.000 A 
ATOM     12  C   UNL     1       1.787   8.941  18.461  0.00  0.00    +0.000 A 
BRANCH   7  14
ATOM     13  C   UNL     1      -0.171   9.224  21.624  0.00  0.00    +0.000 C 
ATOM     14  N   UNL     1       0.659   9.644  20.504  0.00  0.00    +0.000 N 
ATOM     15  C   UNL     1       0.404  10.963  19.935  0.00  0.00    +0.000 C 
ENDBRANCH   7  14
ENDBRANCH   1  10
BRANCH   4  16
ATOM     16  S   UNL     1       7.053   4.518  15.867  0.00  0.00    +0.000 S 
BRANCH  16  17
ATOM     17  C   UNL     1       6.730   4.659  14.074  0.00  0.00    +0.000 C 
BRANCH  17  18
ATOM     18  C   UNL     1       6.069   3.485  13.347  0.00  0.00    +0.000 C 
ATOM     19  C   UNL     1       6.756   3.013  12.077  0.00  0.00    +0.000 C 
ATOM     20  C   UNL     1       5.606   2.431  11.292  0.00  0.00    +0.000 C 
ATOM     21  C   UNL     1       4.461   3.344  11.670  0.00  0.00    +0.000 C 
ATOM     22  O   UNL     1       4.695   3.760  13.026  0.00  0.00    +0.000 OA
ENDBRANCH  17  18
ENDBRANCH  16  17
ENDBRANCH   4  16
TORSDOF 5
ENDMDL
MODEL 4
REMARK VINA RESULT:      -6.6      4.830      8.367
REMARK  Name = 
REMARK  8 active torsions:
REMARK  status: ('A' for Active; 'I' for Inactive)
REMARK    1  A    between atoms: C_1  and  N_2
REMARK    2  A    between atoms: N_2  and  C_3
REMARK    3  A    between atoms: N_2  and  C_4
REMARK    4  A    between atoms: C_7  and  C_8
REMARK    5  A    between atoms: C_11  and  S_12
REMARK    6  A    between atoms: S_12  and  C_13
REMARK    7  A    between atoms: C_13  and  C_14
REMARK    8  A    between atoms: N_19  and  C_20
REMARK                            x       y       z     vdW  Elec       q    Type
REMARK                         _______ _______ _______ _____ _____    ______ ____
ROOT
ATOM      1  C   UNL     1       2.224   7.885  18.541  0.00  0.00    +0.000 A 
ATOM      2  N   UNL     1       2.389   8.567  17.420  0.00  0.00    +0.000 NA
ATOM      3  N   UNL     1       1.937   9.849  17.614  0.00  0.00    +0.000 NA
ATOM      4  C   UNL     1       1.550   9.956  18.861  0.00  0.00    +0.000 A 
ATOM      5  N   UNL     1       1.674   8.743  19.485  0.00  0.00    +0.000 N 
ATOM      6  C   UNL     1       1.343   8.403  20.842  0.00  0.00    +0.000 C 
ENDROOT
BRANCH   1  10
ATOM      7  C   UNL     1       3.353   3.720  19.026  0.00  0.00    +0.000 A 
ATOM      8  C   UNL     1       2.110   4.111  18.501  0.00  0.00    +0.000 A 
ATOM      9  C   UNL     1       1.746   5.463  18.364  0.00  0.00    +0.000 A 
ATOM     10  C   UNL     1       2.619   6.485  18.741  0.00  0.00    +0.000 A 
ATOM     11  C   UNL     1       3.838   6.111  19.306  0.00  0.00    +0.000 A 
ATOM     12  C   UNL     1       4.203   4.763  19.417  0.00  0.00    +0.000 A 
BRANCH   7  14
ATOM     13  C   UNL     1       4.571   1.954  20.256  0.00  0.00    +0.000 C 
ATOM     14  N   UNL     1       3.732   2.386  19.147  0.00  0.00    +0.000 N 
ATOM     15  C   UNL     1       3.618   1.490  18.001  0.00  0.00    +0.000 C 
ENDBRANCH   7  14
ENDBRANCH   1  10
BRANCH   4  16
ATOM     16  S   UNL     1       0.878  11.395  19.546  0.00  0.00    +0.000 S 
BRANCH  16  17
ATOM     17  C   UNL     1      -0.499  11.840  18.431  0.00  0.00    +0.000 C 
BRANCH  17  18
ATOM     18  C   UNL     1      -1.741  10.946  18.396  0.00  0.00    +0.000 C 
ATOM     19  C   UNL     1      -1.836   9.978  17.229  0.00  0.00    +0.000 C 
ATOM     20  C   UNL     1      -3.328   9.804  17.082  0.00  0.00    +0.000 C 
ATOM     21  C   UNL     1      -3.850  11.177  17.440  0.00  0.00    +0.000 C 
ATOM     22  O   UNL     1      -2.955  11.716  18.427  0.00  0.00    +0.000 OA
ENDBRANCH  17  18
ENDBRANCH  16  17
ENDBRANCH   4  16
TORSDOF 5
ENDMDL
MODEL 5
REMARK VINA RESULT:      -6.6      4.890      8.401
REMARK  Name = 
REMARK  8 active torsions:
REMARK  status: ('A' for Active; 'I' for Inactive)
REMARK    1  A    between atoms: C_1  and  N_2
REMARK    2  A    between atoms: N_2  and  C_3
REMARK    3  A    between atoms: N_2  and  C_4
REMARK    4  A    between atoms: C_7  and  C_8
REMARK    5  A    between atoms: C_11  and  S_12
REMARK    6  A    between atoms: S_12  and  C_13
REMARK    7  A    between atoms: C_13  and  C_14
REMARK    8  A    between atoms: N_19  and  C_20
REMARK                            x       y       z     vdW  Elec       q    Type
REMARK                         _______ _______ _______ _____ _____    ______ ____
ROOT
ATOM      1  C   UNL     1       1.716   7.756  20.152  0.00  0.00    +0.000 A 
ATOM      2  N   UNL     1       1.258   8.223  21.302  0.00  0.00    +0.000 NA
ATOM      3  N   UNL     1       0.822   9.511  21.111  0.00  0.00    +0.000 NA
ATOM      4  C   UNL     1       0.966   9.802  19.843  0.00  0.00    +0.000 A 
ATOM      5  N   UNL     1       1.556   8.751  19.194  0.00  0.00    +0.000 N 
ATOM      6  C   UNL     1       1.918   8.651  17.807  0.00  0.00    +0.000 C 
ENDROOT
BRANCH   1  10
ATOM      7  C   UNL     1       3.369   3.785  19.557  0.00  0.00    +0.000 A 
ATOM      8  C   UNL     1       3.979   4.943  19.047  0.00  0.00    +0.000 A 
ATOM      9  C   UNL     1       3.427   6.224  19.229  0.00  0.00    +0.000 A 
ATOM     10  C   UNL     1       2.239   6.401  19.941  0.00  0.00    +0.000 A 
ATOM     11  C   UNL     1       1.599   5.256  20.414  0.00  0.00    +0.000 A 
ATOM     12  C   UNL     1       2.167   3.986  20.249  0.00  0.00    +0.000 A 
BRANCH   7  14
ATOM     13  C   UNL     1       3.434   1.626  18.353  0.00  0.00    +0.000 C 
ATOM     14  N   UNL     1       3.916   2.515  19.400  0.00  0.00    +0.000 N 
ATOM     15  C   UNL     1       4.696   1.920  20.481  0.00  0.00    +0.000 C 
ENDBRANCH   7  14
ENDBRANCH   1  10
BRANCH   4  16
ATOM     16  S   UNL     1       0.569  11.338  19.151  0.00  0.00    +0.000 S 
BRANCH  16  17
ATOM     17  C   UNL     1      -1.231  11.510  19.406  0.00  0.00    +0.000 C 
BRANCH  17  18
ATOM     18  C   UNL     1      -2.184  10.699  18.524  0.00  0.00    +0.000 C 
ATOM     19  C   UNL     1      -1.562  10.019  17.316  0.00  0.00    +0.000 C 
ATOM     20  C   UNL     1      -2.727   9.945  16.359  0.00  0.00    +0.000 C 
ATOM     21  C   UNL     1      -3.474  11.224  16.660  0.00  0.00    +0.000 C 
ATOM     22  O   UNL     1      -3.290  11.492  18.060  0.00  0.00    +0.000 OA
ENDBRANCH  17  18
ENDBRANCH  16  17
ENDBRANCH   4  16
TORSDOF 5
ENDMDL
MODEL 6
REMARK VINA RESULT:      -6.5      1.091      1.548
REMARK  Name = 
REMARK  8 active torsions:
REMARK  status: ('A' for Active; 'I' for Inactive)
REMARK    1  A    between atoms: C_1  and  N_2
REMARK    2  A    between atoms: N_2  and  C_3
REMARK    3  A    between atoms: N_2  and  C_4
REMARK    4  A    between atoms: C_7  and  C_8
REMARK    5  A    between atoms: C_11  and  S_12
REMARK    6  A    between atoms: S_12  and  C_13
REMARK    7  A    between atoms: C_13  and  C_14
REMARK    8  A    between atoms: N_19  and  C_20
REMARK                            x       y       z     vdW  Elec       q    Type
REMARK                         _______ _______ _______ _____ _____    ______ ____
ROOT
ATOM      1  C   UNL     1       3.459   6.165  18.256  0.00  0.00    +0.000 A 
ATOM      2  N   UNL     1       3.169   4.901  18.518  0.00  0.00    +0.000 NA
ATOM      3  N   UNL     1       4.213   4.115  18.099  0.00  0.00    +0.000 NA
ATOM      4  C   UNL     1       5.151   4.902  17.634  0.00  0.00    +0.000 A 
ATOM      5  N   UNL     1       4.721   6.201  17.674  0.00  0.00    +0.000 N 
ATOM      6  C   UNL     1       5.416   7.382  17.242  0.00  0.00    +0.000 C 
ENDROOT
BRANCH   1  10
ATOM      7  C   UNL     1       0.995   9.575  19.332  0.00  0.00    +0.000 A 
ATOM      8  C   UNL     1       1.359   8.582  20.257  0.00  0.00    +0.000 A 
ATOM      9  C   UNL     1       2.143   7.471  19.895  0.00  0.00    +0.000 A 
ATOM     10  C   UNL     1       2.605   7.312  18.587  0.00  0.00    +0.000 A 
ATOM     11  C   UNL     1       2.213   8.266  17.649  0.00  0.00    +0.000 A 
ATOM     12  C   UNL     1       1.453   9.382  18.022  0.00  0.00    +0.000 A 
BRANCH   7  14
ATOM     13  C   UNL     1       0.506  11.985  19.079  0.00  0.00    +0.000 C 
ATOM     14  N   UNL     1       0.237  10.689  19.683  0.00  0.00    +0.000 N 
ATOM     15  C   UNL     1      -0.567  10.668  20.900  0.00  0.00    +0.000 C 
ENDBRANCH   7  14
ENDBRANCH   1  10
BRANCH   4  16
ATOM     16  S   UNL     1       6.645   4.339  16.968  0.00  0.00    +0.000 S 
BRANCH  16  17
ATOM     17  C   UNL     1       6.192   3.631  15.346  0.00  0.00    +0.000 C 
BRANCH  17  18
ATOM     18  C   UNL     1       6.352   4.493  14.092  0.00  0.00    +0.000 C 
ATOM     19  C   UNL     1       6.458   3.745  12.774  0.00  0.00    +0.000 C 
ATOM     20  C   UNL     1       7.264   4.701  11.930  0.00  0.00    +0.000 C 
ATOM     21  C   UNL     1       8.201   5.317  12.943  0.00  0.00    +0.000 C 
ATOM     22  O   UNL     1       7.485   5.373  14.188  0.00  0.00    +0.000 OA
ENDBRANCH  17  18
ENDBRANCH  16  17
ENDBRANCH   4  16
TORSDOF 5
ENDMDL
MODEL 7
REMARK VINA RESULT:      -6.5      3.896      5.339
REMARK  Name = 
REMARK  8 active torsions:
REMARK  status: ('A' for Active; 'I' for Inactive)
REMARK    1  A    between atoms: C_1  and  N_2
REMARK    2  A    between atoms: N_2  and  C_3
REMARK    3  A    between atoms: N_2  and  C_4
REMARK    4  A    between atoms: C_7  and  C_8
REMARK    5  A    between atoms: C_11  and  S_12
REMARK    6  A    between atoms: S_12  and  C_13
REMARK    7  A    between atoms: C_13  and  C_14
REMARK    8  A    between atoms: N_19  and  C_20
REMARK                            x       y       z     vdW  Elec       q    Type
REMARK                         _______ _______ _______ _____ _____    ______ ____
ROOT
ATOM      1  C   UNL     1       1.372   9.384  18.644  0.00  0.00    +0.000 A 
ATOM      2  N   UNL     1       1.937   9.322  17.450  0.00  0.00    +0.000 NA
ATOM      3  N   UNL     1       2.730   8.203  17.396  0.00  0.00    +0.000 NA
ATOM      4  C   UNL     1       2.605   7.565  18.533  0.00  0.00    +0.000 A 
ATOM      5  N   UNL     1       1.791   8.277  19.372  0.00  0.00    +0.000 N 
ATOM      6  C   UNL     1       1.403   7.958  20.719  0.00  0.00    +0.000 C 
ENDROOT
BRANCH   1  10
ATOM      7  C   UNL     1      -1.506  12.367  19.939  0.00  0.00    +0.000 A 
ATOM      8  C   UNL     1      -1.833  11.342  19.036  0.00  0.00    +0.000 A 
ATOM      9  C   UNL     1      -0.889  10.390  18.609  0.00  0.00    +0.000 A 
ATOM     10  C   UNL     1       0.426  10.420  19.076  0.00  0.00    +0.000 A 
ATOM     11  C   UNL     1       0.776  11.460  19.937  0.00  0.00    +0.000 A 
ATOM     12  C   UNL     1      -0.175  12.390  20.377  0.00  0.00    +0.000 A 
BRANCH   7  14
ATOM     13  C   UNL     1      -1.997  14.553  20.984  0.00  0.00    +0.000 C 
ATOM     14  N   UNL     1      -2.436  13.301  20.385  0.00  0.00    +0.000 N 
ATOM     15  C   UNL     1      -3.823  12.902  20.603  0.00  0.00    +0.000 C 
ENDBRANCH   7  14
ENDBRANCH   1  10
BRANCH   4  16
ATOM     16  S   UNL     1       3.451   6.106  18.923  0.00  0.00    +0.000 S 
BRANCH  16  17
ATOM     17  C   UNL     1       2.424   4.772  18.214  0.00  0.00    +0.000 C 
BRANCH  17  18
ATOM     18  C   UNL     1       1.908   3.665  19.137  0.00  0.00    +0.000 C 
ATOM     19  C   UNL     1       1.062   4.117  20.315  0.00  0.00    +0.000 C 
ATOM     20  C   UNL     1       1.311   3.022  21.323  0.00  0.00    +0.000 C 
ATOM     21  C   UNL     1       2.755   2.660  21.057  0.00  0.00    +0.000 C 
ATOM     22  O   UNL     1       2.978   2.854  19.651  0.00  0.00    +0.000 OA
ENDBRANCH  17  18
ENDBRANCH  16  17
ENDBRANCH   4  16
TORSDOF 5
ENDMDL
MODEL 8
REMARK VINA RESULT:      -6.4      0.984      1.790
REMARK  Name = 
REMARK  8 active torsions:
REMARK  status: ('A' for Active; 'I' for Inactive)
REMARK    1  A    between atoms: C_1  and  N_2
REMARK    2  A    between atoms: N_2  and  C_3
REMARK    3  A    between atoms: N_2  and  C_4
REMARK    4  A    between atoms: C_7  and  C_8
REMARK    5  A    between atoms: C_11  and  S_12
REMARK    6  A    between atoms: S_12  and  C_13
REMARK    7  A    between atoms: C_13  and  C_14
REMARK    8  A    between atoms: N_19  and  C_20
REMARK                            x       y       z     vdW  Elec       q    Type
REMARK                         _______ _______ _______ _____ _____    ______ ____
ROOT
ATOM      1  C   UNL     1       3.336   6.163  18.200  0.00  0.00    +0.000 A 
ATOM      2  N   UNL     1       2.953   4.899  18.285  0.00  0.00    +0.000 NA
ATOM      3  N   UNL     1       3.964   4.100  17.812  0.00  0.00    +0.000 NA
ATOM      4  C   UNL     1       4.973   4.872  17.492  0.00  0.00    +0.000 A 
ATOM      5  N   UNL     1       4.625   6.183  17.681  0.00  0.00    +0.000 N 
ATOM      6  C   UNL     1       5.417   7.357  17.435  0.00  0.00    +0.000 C 
ENDROOT
BRANCH   1  10
ATOM      7  C   UNL     1       0.919   9.561  19.409  0.00  0.00    +0.000 A 
ATOM      8  C   UNL     1       1.391   9.397  18.097  0.00  0.00    +0.000 A 
ATOM      9  C   UNL     1       2.189   8.302  17.718  0.00  0.00    +0.000 A 
ATOM     10  C   UNL     1       2.542   7.315  18.641  0.00  0.00    +0.000 A 
ATOM     11  C   UNL     1       2.117   7.489  19.958  0.00  0.00    +0.000 A 
ATOM     12  C   UNL     1       1.304   8.570  20.322  0.00  0.00    +0.000 A 
BRANCH   7  14
ATOM     13  C   UNL     1      -0.157  11.719  18.864  0.00  0.00    +0.000 C 
ATOM     14  N   UNL     1       0.112  10.629  19.791  0.00  0.00    +0.000 N 
ATOM     15  C   UNL     1      -0.167  10.863  21.204  0.00  0.00    +0.000 C 
ENDBRANCH   7  14
ENDBRANCH   1  10
BRANCH   4  16
ATOM     16  S   UNL     1       6.460   4.294  16.822  0.00  0.00    +0.000 S 
BRANCH  16  17
ATOM     17  C   UNL     1       5.992   3.568  15.212  0.00  0.00    +0.000 C 
BRANCH  17  18
ATOM     18  C   UNL     1       6.190   4.397  13.941  0.00  0.00    +0.000 C 
ATOM     19  C   UNL     1       6.437   3.614  12.663  0.00  0.00    +0.000 C 
ATOM     20  C   UNL     1       7.241   4.592  11.843  0.00  0.00    +0.000 C 
ATOM     21  C   UNL     1       8.063   5.299  12.896  0.00  0.00    +0.000 C 
ATOM     22  O   UNL     1       7.256   5.350  14.085  0.00  0.00    +0.000 OA
ENDBRANCH  17  18
ENDBRANCH  16  17
ENDBRANCH   4  16
TORSDOF 5
ENDMDL
MODEL 9
REMARK VINA RESULT:      -6.4      4.684      8.453
REMARK  Name = 
REMARK  8 active torsions:
REMARK  status: ('A' for Active; 'I' for Inactive)
REMARK    1  A    between atoms: C_1  and  N_2
REMARK    2  A    between atoms: N_2  and  C_3
REMARK    3  A    between atoms: N_2  and  C_4
REMARK    4  A    between atoms: C_7  and  C_8
REMARK    5  A    between atoms: C_11  and  S_12
REMARK    6  A    between atoms: S_12  and  C_13
REMARK    7  A    between atoms: C_13  and  C_14
REMARK    8  A    between atoms: N_19  and  C_20
REMARK                            x       y       z     vdW  Elec       q    Type
REMARK                         _______ _______ _______ _____ _____    ______ ____
ROOT
ATOM      1  C   UNL     1       1.613   8.161  20.347  0.00  0.00    +0.000 A 
ATOM      2  N   UNL     1       1.336   8.637  21.550  0.00  0.00    +0.000 NA
ATOM      3  N   UNL     1       0.882   9.926  21.420  0.00  0.00    +0.000 NA
ATOM      4  C   UNL     1       0.835  10.210  20.142  0.00  0.00    +0.000 A 
ATOM      5  N   UNL     1       1.315   9.152  19.418  0.00  0.00    +0.000 N 
ATOM      6  C   UNL     1       1.464   9.042  17.993  0.00  0.00    +0.000 C 
ENDROOT
BRANCH   1  10
ATOM      7  C   UNL     1       2.918   4.106  19.506  0.00  0.00    +0.000 A 
ATOM      8  C   UNL     1       1.854   4.393  20.377  0.00  0.00    +0.000 A 
ATOM      9  C   UNL     1       1.449   5.711  20.658  0.00  0.00    +0.000 A 
ATOM     10  C   UNL     1       2.091   6.802  20.068  0.00  0.00    +0.000 A 
ATOM     11  C   UNL     1       3.178   6.532  19.237  0.00  0.00    +0.000 A 
ATOM     12  C   UNL     1       3.560   5.217  18.944  0.00  0.00    +0.000 A 
BRANCH   7  14
ATOM     13  C   UNL     1       4.401   2.175  19.940  0.00  0.00    +0.000 C 
ATOM     14  N   UNL     1       3.313   2.806  19.206  0.00  0.00    +0.000 N 
ATOM     15  C   UNL     1       2.917   2.198  17.939  0.00  0.00    +0.000 C 
ENDBRANCH   7  14
ENDBRANCH   1  10
BRANCH   4  16
ATOM     16  S   UNL     1       0.346  11.744  19.509  0.00  0.00    +0.000 S 
BRANCH  16  17
ATOM     17  C   UNL     1      -1.474  11.640  19.394  0.00  0.00    +0.000 C 
BRANCH  17  18
ATOM     18  C   UNL     1      -2.126  11.582  18.010  0.00  0.00    +0.000 C 
ATOM     19  C   UNL     1      -3.644  11.558  17.986  0.00  0.00    +0.000 C 
ATOM     20  C   UNL     1      -3.929  10.830  16.696  0.00  0.00    +0.000 C 
ATOM     21  C   UNL     1      -2.794   9.833  16.629  0.00  0.00    +0.000 C 
ATOM     22  O   UNL     1      -1.657  10.460  17.244  0.00  0.00    +0.000 OA
ENDBRANCH  17  18
ENDBRANCH  16  17
ENDBRANCH   4  16
TORSDOF 5
ENDMDL
