MODEL 1
REMARK VINA RESULT:      -7.4      0.000      0.000
REMARK  Name = 
REMARK  3 active torsions:
REMARK  status: ('A' for Active; 'I' for Inactive)
REMARK    1  A    between atoms: C_1  and  C_2
REMARK    2  A    between atoms: C_6  and  C_7
REMARK    3  A    between atoms: C_10  and  C_11
REMARK                            x       y       z     vdW  Elec       q    Type
REMARK                         _______ _______ _______ _____ _____    ______ ____
ROOT
ATOM      1  C   UNL     1       6.751   4.471  16.106  0.00  0.00    +0.000 A 
ATOM      2  N   UNL     1       7.796   4.509  16.948  0.00  0.00    +0.000 NA
ATOM      3  O   UNL     1       7.205   4.460  18.206  0.00  0.00    +0.000 OA
ATOM      4  C   UNL     1       5.855   4.400  17.999  0.00  0.00    +0.000 A 
ATOM      5  N   UNL     1       5.522   4.418  16.733  0.00  0.00    +0.000 NA
ENDROOT
BRANCH   1  11
ATOM      6  C   UNL     1       5.279   2.642  11.716  0.00  0.00    +0.000 C 
ATOM      7  C   UNL     1       6.152   3.574  12.500  0.00  0.00    +0.000 A 
ATOM      8  C   UNL     1       7.067   4.417  11.864  0.00  0.00    +0.000 A 
ATOM      9  C   UNL     1       7.879   5.275  12.608  0.00  0.00    +0.000 A 
ATOM     10  C   UNL     1       7.777   5.303  13.999  0.00  0.00    +0.000 A 
ATOM     11  C   UNL     1       6.866   4.468  14.655  0.00  0.00    +0.000 A 
ATOM     12  C   UNL     1       6.060   3.604  13.897  0.00  0.00    +0.000 A 
ENDBRANCH   1  11
BRANCH   4  13
ATOM     13  C   UNL     1       4.989   4.300  19.204  0.00  0.00    +0.000 C 
ATOM     14  C   UNL     1       3.987   3.161  19.102  0.00  0.00    +0.000 C 
ATOM     15  C   UNL     1       2.923   3.550  20.109  0.00  0.00    +0.000 C 
ATOM     16  C   UNL     1       2.952   5.071  20.136  0.00  0.00    +0.000 C 
ATOM     17  N   UNL     1       4.135   5.483  19.387  0.00  0.00    +0.000 NA
ATOM     18  H   UNL     1       4.645   6.230  19.856  0.00  0.00    +0.000 HD
ENDBRANCH   4  13
TORSDOF 2
ENDMDL
MODEL 2
REMARK VINA RESULT:      -7.1      1.543      1.646
REMARK  Name = 
REMARK  3 active torsions:
REMARK  status: ('A' for Active; 'I' for Inactive)
REMARK    1  A    between atoms: C_1  and  C_2
REMARK    2  A    between atoms: C_6  and  C_7
REMARK    3  A    between atoms: C_10  and  C_11
REMARK                            x       y       z     vdW  Elec       q    Type
REMARK                         _______ _______ _______ _____ _____    ______ ____
ROOT
ATOM      1  C   UNL     1       5.153   5.022  15.929  0.00  0.00    +0.000 A 
ATOM      2  N   UNL     1       5.133   6.239  16.494  0.00  0.00    +0.000 NA
ATOM      3  O   UNL     1       4.412   6.044  17.667  0.00  0.00    +0.000 OA
ATOM      4  C   UNL     1       4.063   4.723  17.693  0.00  0.00    +0.000 A 
ATOM      5  N   UNL     1       4.479   4.055  16.647  0.00  0.00    +0.000 NA
ENDROOT
BRANCH   1  11
ATOM      6  C   UNL     1       5.163   2.601  11.579  0.00  0.00    +0.000 C 
ATOM      7  C   UNL     1       5.842   3.524  12.545  0.00  0.00    +0.000 A 
ATOM      8  C   UNL     1       7.099   4.068  12.268  0.00  0.00    +0.000 A 
ATOM      9  C   UNL     1       7.721   4.920  13.181  0.00  0.00    +0.000 A 
ATOM     10  C   UNL     1       7.087   5.243  14.382  0.00  0.00    +0.000 A 
ATOM     11  C   UNL     1       5.828   4.710  14.678  0.00  0.00    +0.000 A 
ATOM     12  C   UNL     1       5.214   3.848  13.755  0.00  0.00    +0.000 A 
ENDBRANCH   1  11
BRANCH   4  13
ATOM     13  C   UNL     1       3.308   4.245  18.882  0.00  0.00    +0.000 C 
ATOM     14  C   UNL     1       1.829   4.050  18.587  0.00  0.00    +0.000 C 
ATOM     15  C   UNL     1       1.197   4.088  19.964  0.00  0.00    +0.000 C 
ATOM     16  C   UNL     1       2.108   4.991  20.783  0.00  0.00    +0.000 C 
ATOM     17  N   UNL     1       3.305   5.222  19.981  0.00  0.00    +0.000 NA
ATOM     18  H   UNL     1       4.157   5.149  20.534  0.00  0.00    +0.000 HD
ENDBRANCH   4  13
TORSDOF 2
ENDMDL
MODEL 3
REMARK VINA RESULT:      -7.1      1.254      6.707
REMARK  Name = 
REMARK  3 active torsions:
REMARK  status: ('A' for Active; 'I' for Inactive)
REMARK    1  A    between atoms: C_1  and  C_2
REMARK    2  A    between atoms: C_6  and  C_7
REMARK    3  A    between atoms: C_10  and  C_11
REMARK                            x       y       z     vdW  Elec       q    Type
REMARK                         _______ _______ _______ _____ _____    ______ ____
ROOT
ATOM      1  C   UNL     1       5.213   4.284  17.954  0.00  0.00    +0.000 A 
ATOM      2  N   UNL     1       6.540   4.334  18.142  0.00  0.00    +0.000 NA
ATOM      3  O   UNL     1       7.042   4.595  16.872  0.00  0.00    +0.000 OA
ATOM      4  C   UNL     1       5.963   4.674  16.036  0.00  0.00    +0.000 A 
ATOM      5  N   UNL     1       4.820   4.478  16.644  0.00  0.00    +0.000 NA
ENDROOT
BRANCH   1  11
ATOM      6  C   UNL     1       1.536   6.057  20.804  0.00  0.00    +0.000 C 
ATOM      7  C   UNL     1       2.440   4.926  20.418  0.00  0.00    +0.000 A 
ATOM      8  C   UNL     1       2.371   3.688  21.063  0.00  0.00    +0.000 A 
ATOM      9  C   UNL     1       3.225   2.647  20.697  0.00  0.00    +0.000 A 
ATOM     10  C   UNL     1       4.156   2.833  19.674  0.00  0.00    +0.000 A 
ATOM     11  C   UNL     1       4.241   4.063  19.015  0.00  0.00    +0.000 A 
ATOM     12  C   UNL     1       3.382   5.106  19.396  0.00  0.00    +0.000 A 
ENDBRANCH   1  11
BRANCH   4  13
ATOM     13  C   UNL     1       6.233   4.988  14.609  0.00  0.00    +0.000 C 
ATOM     14  C   UNL     1       6.113   3.764  13.715  0.00  0.00    +0.000 C 
ATOM     15  C   UNL     1       6.905   4.159  12.484  0.00  0.00    +0.000 C 
ATOM     16  C   UNL     1       7.966   5.121  12.998  0.00  0.00    +0.000 C 
ATOM     17  N   UNL     1       7.615   5.437  14.379  0.00  0.00    +0.000 NA
ATOM     18  H   UNL     1       7.712   6.431  14.582  0.00  0.00    +0.000 HD
ENDBRANCH   4  13
TORSDOF 2
ENDMDL
MODEL 4
REMARK VINA RESULT:      -7.1      1.894      6.591
REMARK  Name = 
REMARK  3 active torsions:
REMARK  status: ('A' for Active; 'I' for Inactive)
REMARK    1  A    between atoms: C_1  and  C_2
REMARK    2  A    between atoms: C_6  and  C_7
REMARK    3  A    between atoms: C_10  and  C_11
REMARK                            x       y       z     vdW  Elec       q    Type
REMARK                         _______ _______ _______ _____ _____    ______ ____
ROOT
ATOM      1  C   UNL     1       4.383   5.199  16.963  0.00  0.00    +0.000 A 
ATOM      2  N   UNL     1       4.850   6.396  16.576  0.00  0.00    +0.000 NA
ATOM      3  O   UNL     1       5.723   6.087  15.539  0.00  0.00    +0.000 OA
ATOM      4  C   UNL     1       5.700   4.727  15.403  0.00  0.00    +0.000 A 
ATOM      5  N   UNL     1       4.907   4.133  16.259  0.00  0.00    +0.000 NA
ENDROOT
BRANCH   1  11
ATOM      6  C   UNL     1       0.681   2.486  18.892  0.00  0.00    +0.000 C 
ATOM      7  C   UNL     1       1.582   3.681  18.968  0.00  0.00    +0.000 A 
ATOM      8  C   UNL     1       1.480   4.600  20.016  0.00  0.00    +0.000 A 
ATOM      9  C   UNL     1       2.322   5.713  20.069  0.00  0.00    +0.000 A 
ATOM     10  C   UNL     1       3.280   5.913  19.075  0.00  0.00    +0.000 A 
ATOM     11  C   UNL     1       3.399   5.004  18.019  0.00  0.00    +0.000 A 
ATOM     12  C   UNL     1       2.543   3.893  17.971  0.00  0.00    +0.000 A 
ENDBRANCH   1  11
BRANCH   4  13
ATOM     13  C   UNL     1       6.532   4.140  14.320  0.00  0.00    +0.000 C 
ATOM     14  C   UNL     1       7.181   5.203  13.449  0.00  0.00    +0.000 C 
ATOM     15  C   UNL     1       7.509   4.450  12.175  0.00  0.00    +0.000 C 
ATOM     16  C   UNL     1       6.448   3.364  12.083  0.00  0.00    +0.000 C 
ATOM     17  N   UNL     1       5.739   3.357  13.359  0.00  0.00    +0.000 NA
ATOM     18  H   UNL     1       5.580   2.412  13.704  0.00  0.00    +0.000 HD
ENDBRANCH   4  13
TORSDOF 2
ENDMDL
MODEL 5
REMARK VINA RESULT:      -7.0      3.337      6.349
REMARK  Name = 
REMARK  3 active torsions:
REMARK  status: ('A' for Active; 'I' for Inactive)
REMARK    1  A    between atoms: C_1  and  C_2
REMARK    2  A    between atoms: C_6  and  C_7
REMARK    3  A    between atoms: C_10  and  C_11
REMARK                            x       y       z     vdW  Elec       q    Type
REMARK                         _______ _______ _______ _____ _____    ______ ____
ROOT
ATOM      1  C   UNL     1       4.357   4.201  17.778  0.00  0.00    +0.000 A 
ATOM      2  N   UNL     1       4.933   3.590  16.731  0.00  0.00    +0.000 NA
ATOM      3  O   UNL     1       6.067   4.357  16.487  0.00  0.00    +0.000 OA
ATOM      4  C   UNL     1       6.062   5.362  17.413  0.00  0.00    +0.000 A 
ATOM      5  N   UNL     1       5.031   5.322  18.219  0.00  0.00    +0.000 NA
ENDROOT
BRANCH   1  11
ATOM      6  C   UNL     1       2.045   2.662  21.910  0.00  0.00    +0.000 C 
ATOM      7  C   UNL     1       1.998   2.984  20.447  0.00  0.00    +0.000 A 
ATOM      8  C   UNL     1       0.820   2.839  19.710  0.00  0.00    +0.000 A 
ATOM      9  C   UNL     1       0.793   3.136  18.346  0.00  0.00    +0.000 A 
ATOM     10  C   UNL     1       1.947   3.588  17.706  0.00  0.00    +0.000 A 
ATOM     11  C   UNL     1       3.137   3.742  18.426  0.00  0.00    +0.000 A 
ATOM     12  C   UNL     1       3.154   3.434  19.796  0.00  0.00    +0.000 A 
ENDBRANCH   1  11
BRANCH   4  13
ATOM     13  C   UNL     1       7.207   6.310  17.390  0.00  0.00    +0.000 C 
ATOM     14  C   UNL     1       7.832   6.497  18.763  0.00  0.00    +0.000 C 
ATOM     15  C   UNL     1       8.567   7.815  18.629  0.00  0.00    +0.000 C 
ATOM     16  C   UNL     1       7.767   8.603  17.602  0.00  0.00    +0.000 C 
ATOM     17  N   UNL     1       6.805   7.675  17.016  0.00  0.00    +0.000 NA
ATOM     18  H   UNL     1       6.746   7.772  16.004  0.00  0.00    +0.000 HD
ENDBRANCH   4  13
TORSDOF 2
ENDMDL
MODEL 6
REMARK VINA RESULT:      -7.0      1.366      6.703
REMARK  Name = 
REMARK  3 active torsions:
REMARK  status: ('A' for Active; 'I' for Inactive)
REMARK    1  A    between atoms: C_1  and  C_2
REMARK    2  A    between atoms: C_6  and  C_7
REMARK    3  A    between atoms: C_10  and  C_11
REMARK                            x       y       z     vdW  Elec       q    Type
REMARK                         _______ _______ _______ _____ _____    ______ ____
ROOT
ATOM      1  C   UNL     1       4.780   4.793  17.874  0.00  0.00    +0.000 A 
ATOM      2  N   UNL     1       6.038   4.381  18.094  0.00  0.00    +0.000 NA
ATOM      3  O   UNL     1       6.628   4.446  16.837  0.00  0.00    +0.000 OA
ATOM      4  C   UNL     1       5.663   4.890  15.977  0.00  0.00    +0.000 A 
ATOM      5  N   UNL     1       4.509   5.104  16.557  0.00  0.00    +0.000 NA
ENDROOT
BRANCH   1  11
ATOM      6  C   UNL     1       2.117   2.707  21.528  0.00  0.00    +0.000 C 
ATOM      7  C   UNL     1       2.457   3.910  20.702  0.00  0.00    +0.000 A 
ATOM      8  C   UNL     1       1.814   5.134  20.905  0.00  0.00    +0.000 A 
ATOM      9  C   UNL     1       2.135   6.245  20.123  0.00  0.00    +0.000 A 
ATOM     10  C   UNL     1       3.111   6.142  19.131  0.00  0.00    +0.000 A 
ATOM     11  C   UNL     1       3.767   4.927  18.912  0.00  0.00    +0.000 A 
ATOM     12  C   UNL     1       3.431   3.814  19.700  0.00  0.00    +0.000 A 
ENDBRANCH   1  11
BRANCH   4  13
ATOM     13  C   UNL     1       6.058   5.084  14.557  0.00  0.00    +0.000 C 
ATOM     14  C   UNL     1       5.935   3.806  13.743  0.00  0.00    +0.000 C 
ATOM     15  C   UNL     1       6.839   4.067  12.555  0.00  0.00    +0.000 C 
ATOM     16  C   UNL     1       7.912   5.007  13.084  0.00  0.00    +0.000 C 
ATOM     17  N   UNL     1       7.477   5.441  14.408  0.00  0.00    +0.000 NA
ATOM     18  H   UNL     1       7.617   6.440  14.549  0.00  0.00    +0.000 HD
ENDBRANCH   4  13
TORSDOF 2
ENDMDL
MODEL 7
REMARK VINA RESULT:      -6.9      1.443      1.830
REMARK  Name = 
REMARK  3 active torsions:
REMARK  status: ('A' for Active; 'I' for Inactive)
REMARK    1  A    between atoms: C_1  and  C_2
REMARK    2  A    between atoms: C_6  and  C_7
REMARK    3  A    between atoms: C_10  and  C_11
REMARK                            x       y       z     vdW  Elec       q    Type
REMARK                         _______ _______ _______ _____ _____    ______ ____
ROOT
ATOM      1  C   UNL     1       5.224   4.285  16.586  0.00  0.00    +0.000 A 
ATOM      2  N   UNL     1       5.751   4.884  17.665  0.00  0.00    +0.000 NA
ATOM      3  O   UNL     1       4.874   4.544  18.689  0.00  0.00    +0.000 OA
ATOM      4  C   UNL     1       3.897   3.772  18.125  0.00  0.00    +0.000 A 
ATOM      5  N   UNL     1       4.055   3.594  16.837  0.00  0.00    +0.000 NA
ENDROOT
BRANCH   1  11
ATOM      6  C   UNL     1       4.953   3.074  11.764  0.00  0.00    +0.000 C 
ATOM      7  C   UNL     1       5.689   3.733  12.892  0.00  0.00    +0.000 A 
ATOM      8  C   UNL     1       6.919   4.364  12.684  0.00  0.00    +0.000 A 
ATOM      9  C   UNL     1       7.596   4.967  13.746  0.00  0.00    +0.000 A 
ATOM     10  C   UNL     1       7.044   4.950  15.027  0.00  0.00    +0.000 A 
ATOM     11  C   UNL     1       5.813   4.325  15.255  0.00  0.00    +0.000 A 
ATOM     12  C   UNL     1       5.144   3.716  14.182  0.00  0.00    +0.000 A 
ENDBRANCH   1  11
BRANCH   4  13
ATOM     13  C   UNL     1       2.844   3.242  19.030  0.00  0.00    +0.000 C 
ATOM     14  C   UNL     1       1.758   4.266  19.316  0.00  0.00    +0.000 C 
ATOM     15  C   UNL     1       1.127   3.750  20.594  0.00  0.00    +0.000 C 
ATOM     16  C   UNL     1       2.252   3.020  21.314  0.00  0.00    +0.000 C 
ATOM     17  N   UNL     1       3.360   2.917  20.369  0.00  0.00    +0.000 NA
ATOM     18  H   UNL     1       3.788   1.993  20.380  0.00  0.00    +0.000 HD
ENDBRANCH   4  13
TORSDOF 2
ENDMDL
MODEL 8
REMARK VINA RESULT:      -6.9      1.568      6.737
REMARK  Name = 
REMARK  3 active torsions:
REMARK  status: ('A' for Active; 'I' for Inactive)
REMARK    1  A    between atoms: C_1  and  C_2
REMARK    2  A    between atoms: C_6  and  C_7
REMARK    3  A    between atoms: C_10  and  C_11
REMARK                            x       y       z     vdW  Elec       q    Type
REMARK                         _______ _______ _______ _____ _____    ______ ____
ROOT
ATOM      1  C   UNL     1       4.403   3.957  17.509  0.00  0.00    +0.000 A 
ATOM      2  N   UNL     1       5.593   4.312  18.017  0.00  0.00    +0.000 NA
ATOM      3  O   UNL     1       6.318   4.714  16.901  0.00  0.00    +0.000 OA
ATOM      4  C   UNL     1       5.492   4.559  15.823  0.00  0.00    +0.000 A 
ATOM      5  N   UNL     1       4.312   4.086  16.138  0.00  0.00    +0.000 NA
ENDROOT
BRANCH   1  11
ATOM      6  C   UNL     1       2.274   3.416  21.977  0.00  0.00    +0.000 C 
ATOM      7  C   UNL     1       2.230   3.217  20.493  0.00  0.00    +0.000 A 
ATOM      8  C   UNL     1       1.145   2.586  19.878  0.00  0.00    +0.000 A 
ATOM      9  C   UNL     1       1.121   2.401  18.494  0.00  0.00    +0.000 A 
ATOM     10  C   UNL     1       2.183   2.853  17.710  0.00  0.00    +0.000 A 
ATOM     11  C   UNL     1       3.278   3.488  18.306  0.00  0.00    +0.000 A 
ATOM     12  C   UNL     1       3.294   3.663  19.699  0.00  0.00    +0.000 A 
ENDBRANCH   1  11
BRANCH   4  13
ATOM     13  C   UNL     1       6.026   4.963  14.496  0.00  0.00    +0.000 C 
ATOM     14  C   UNL     1       6.021   3.816  13.498  0.00  0.00    +0.000 C 
ATOM     15  C   UNL     1       7.035   4.258  12.462  0.00  0.00    +0.000 C 
ATOM     16  C   UNL     1       8.023   5.122  13.232  0.00  0.00    +0.000 C 
ATOM     17  N   UNL     1       7.443   5.354  14.551  0.00  0.00    +0.000 NA
ATOM     18  H   UNL     1       7.541   6.323  14.848  0.00  0.00    +0.000 HD
ENDBRANCH   4  13
TORSDOF 2
ENDMDL
MODEL 9
REMARK VINA RESULT:      -6.8      2.238      6.512
REMARK  Name = 
REMARK  3 active torsions:
REMARK  status: ('A' for Active; 'I' for Inactive)
REMARK    1  A    between atoms: C_1  and  C_2
REMARK    2  A    between atoms: C_6  and  C_7
REMARK    3  A    between atoms: C_10  and  C_11
REMARK                            x       y       z     vdW  Elec       q    Type
REMARK                         _______ _______ _______ _____ _____    ______ ____
ROOT
ATOM      1  C   UNL     1       5.505   5.803  17.047  0.00  0.00    +0.000 A 
ATOM      2  N   UNL     1       6.786   6.130  17.277  0.00  0.00    +0.000 NA
ATOM      3  O   UNL     1       7.471   5.539  16.222  0.00  0.00    +0.000 OA
ATOM      4  C   UNL     1       6.532   4.907  15.455  0.00  0.00    +0.000 A 
ATOM      5  N   UNL     1       5.314   5.025  15.922  0.00  0.00    +0.000 NA
ENDROOT
BRANCH   1  11
ATOM      6  C   UNL     1       1.782   9.001  17.880  0.00  0.00    +0.000 C 
ATOM      7  C   UNL     1       2.563   7.791  18.295  0.00  0.00    +0.000 A 
ATOM      8  C   UNL     1       2.242   7.085  19.457  0.00  0.00    +0.000 A 
ATOM      9  C   UNL     1       2.983   5.964  19.835  0.00  0.00    +0.000 A 
ATOM     10  C   UNL     1       4.051   5.534  19.046  0.00  0.00    +0.000 A 
ATOM     11  C   UNL     1       4.387   6.226  17.878  0.00  0.00    +0.000 A 
ATOM     12  C   UNL     1       3.640   7.356  17.512  0.00  0.00    +0.000 A 
ENDBRANCH   1  11
BRANCH   4  13
ATOM     13  C   UNL     1       7.011   4.221  14.226  0.00  0.00    +0.000 C 
ATOM     14  C   UNL     1       7.440   5.201  13.146  0.00  0.00    +0.000 C 
ATOM     15  C   UNL     1       7.375   4.369  11.881  0.00  0.00    +0.000 C 
ATOM     16  C   UNL     1       6.286   3.341  12.149  0.00  0.00    +0.000 C 
ATOM     17  N   UNL     1       5.954   3.437  13.567  0.00  0.00    +0.000 NA
ATOM     18  H   UNL     1       5.857   2.521  14.001  0.00  0.00    +0.000 HD
ENDBRANCH   4  13
TORSDOF 2
ENDMDL
