MODEL 1
REMARK VINA RESULT:      -7.6      0.000      0.000
REMARK  Name = 
REMARK  11 active torsions:
REMARK  status: ('A' for Active; 'I' for Inactive)
REMARK    1  A    between atoms: C_1  and  N_2
REMARK    2  A    between atoms: N_2  and  C_3
REMARK    3  A    between atoms: N_2  and  C_4
REMARK    4  A    between atoms: C_4  and  C_5
REMARK    5  A    between atoms: C_5  and  N_6
REMARK    6  A    between atoms: N_6  and  C_7
REMARK    7  A    between atoms: N_6  and  C_8
REMARK    8  A    between atoms: C_11  and  C_12
REMARK    9  A    between atoms: C_14  and  C_15
REMARK   10  A    between atoms: C_15  and  N_16
REMARK   11  A    between atoms: N_19  and  C_20
REMARK                            x       y       z     vdW  Elec       q    Type
REMARK                         _______ _______ _______ _____ _____    ______ ____
ROOT
ATOM      1  C   UNL     1       3.867   3.978  17.754  0.00  0.00    +0.000 A 
ATOM      2  C   UNL     1       5.228   3.794  17.430  0.00  0.00    +0.000 A 
ATOM      3  C   UNL     1       6.124   4.867  17.286  0.00  0.00    +0.000 A 
ATOM      4  C   UNL     1       5.689   6.179  17.427  0.00  0.00    +0.000 A 
ATOM      5  C   UNL     1       4.324   6.420  17.696  0.00  0.00    +0.000 A 
ATOM      6  C   UNL     1       3.460   5.323  17.866  0.00  0.00    +0.000 A 
ENDROOT
BRANCH   1   7
ATOM      7  N   UNL     1       2.985   2.915  17.942  0.00  0.00    +0.000 N 
ATOM      8  C   UNL     1       3.514   1.560  18.022  0.00  0.00    +0.000 C 
BRANCH   7   9
ATOM      9  C   UNL     1       1.550   3.193  18.244  0.00  0.00    +0.000 C 
BRANCH   9  10
ATOM     10  C   UNL     1       0.953   2.397  19.439  0.00  0.00    +0.000 C 
BRANCH  10  12
ATOM     11  C   UNL     1       2.151   2.498  21.526  0.00  0.00    +0.000 C 
ATOM     12  N   UNL     1       1.008   3.038  20.775  0.00  0.00    +0.000 NA
ATOM     13  C   UNL     1       1.136   4.494  20.689  0.00  0.00    +0.000 C 
ENDBRANCH  10  12
ENDBRANCH   9  10
ENDBRANCH   7   9
ENDBRANCH   1   7
BRANCH   4  14
ATOM     14  C   UNL     1       6.649   7.250  17.297  0.00  0.00    +0.000 C 
ATOM     15  N   UNL     1       7.400   8.136  17.189  0.00  0.00    +0.000 NA
ENDBRANCH   4  14
BRANCH   5  16
ATOM     16  C   UNL     1       3.727   7.818  17.708  0.00  0.00    +0.000 C 
BRANCH  16  17
ATOM     17  N   UNL     1       2.326   7.823  18.112  0.00  0.00    +0.000 NA
ATOM     18  C   UNL     1       2.024   7.428  19.493  0.00  0.00    +0.000 C 
ATOM     19  C   UNL     1       1.789   8.522  20.558  0.00  0.00    +0.000 C 
ATOM     20  N   UNL     1       0.975   9.641  20.061  0.00  0.00    +0.000 N 
ATOM     21  C   UNL     1       1.337  10.144  18.725  0.00  0.00    +0.000 C 
ATOM     22  C   UNL     1       1.583   9.015  17.694  0.00  0.00    +0.000 C 
BRANCH  20  23
ATOM     23  C   UNL     1       0.171  10.372  20.934  0.00  0.00    +0.000 A 
ATOM     24  C   UNL     1       0.010  10.027  22.291  0.00  0.00    +0.000 A 
ATOM     25  C   UNL     1      -0.969  10.618  23.108  0.00  0.00    +0.000 A 
ATOM     26  C   UNL     1      -1.801  11.596  22.585  0.00  0.00    +0.000 A 
ATOM     27 CL   UNL     1      -3.084  12.240  23.531  0.00  0.00    +0.000 Cl
ATOM     28  C   UNL     1      -1.610  12.035  21.285  0.00  0.00    +0.000 A 
ATOM     29  C   UNL     1      -0.624  11.440  20.484  0.00  0.00    +0.000 A 
ENDBRANCH  20  23
ENDBRANCH  16  17
ENDBRANCH   5  16
TORSDOF 8
ENDMDL
MODEL 2
REMARK VINA RESULT:      -7.1      0.405      1.147
REMARK  Name = 
REMARK  11 active torsions:
REMARK  status: ('A' for Active; 'I' for Inactive)
REMARK    1  A    between atoms: C_1  and  N_2
REMARK    2  A    between atoms: N_2  and  C_3
REMARK    3  A    between atoms: N_2  and  C_4
REMARK    4  A    between atoms: C_4  and  C_5
REMARK    5  A    between atoms: C_5  and  N_6
REMARK    6  A    between atoms: N_6  and  C_7
REMARK    7  A    between atoms: N_6  and  C_8
REMARK    8  A    between atoms: C_11  and  C_12
REMARK    9  A    between atoms: C_14  and  C_15
REMARK   10  A    between atoms: C_15  and  N_16
REMARK   11  A    between atoms: N_19  and  C_20
REMARK                            x       y       z     vdW  Elec       q    Type
REMARK                         _______ _______ _______ _____ _____    ______ ____
ROOT
ATOM      1  C   UNL     1       3.970   3.853  17.628  0.00  0.00    +0.000 A 
ATOM      2  C   UNL     1       5.312   3.713  17.216  0.00  0.00    +0.000 A 
ATOM      3  C   UNL     1       6.179   4.810  17.074  0.00  0.00    +0.000 A 
ATOM      4  C   UNL     1       5.730   6.105  17.307  0.00  0.00    +0.000 A 
ATOM      5  C   UNL     1       4.380   6.304  17.668  0.00  0.00    +0.000 A 
ATOM      6  C   UNL     1       3.547   5.183  17.833  0.00  0.00    +0.000 A 
ENDROOT
BRANCH   1   7
ATOM      7  N   UNL     1       3.119   2.765  17.814  0.00  0.00    +0.000 N 
ATOM      8  C   UNL     1       3.691   1.467  18.145  0.00  0.00    +0.000 C 
BRANCH   7   9
ATOM      9  C   UNL     1       1.643   2.982  17.855  0.00  0.00    +0.000 C 
BRANCH   9  10
ATOM     10  C   UNL     1       0.984   2.818  19.255  0.00  0.00    +0.000 C 
BRANCH  10  12
ATOM     11  C   UNL     1       1.368   4.626  20.799  0.00  0.00    +0.000 C 
ATOM     12  N   UNL     1       1.772   3.261  20.431  0.00  0.00    +0.000 NA
ATOM     13  C   UNL     1       1.592   2.380  21.586  0.00  0.00    +0.000 C 
ENDBRANCH  10  12
ENDBRANCH   9  10
ENDBRANCH   7   9
ENDBRANCH   1   7
BRANCH   4  14
ATOM     14  C   UNL     1       6.663   7.200  17.176  0.00  0.00    +0.000 C 
ATOM     15  N   UNL     1       7.391   8.106  17.078  0.00  0.00    +0.000 NA
ENDBRANCH   4  14
BRANCH   5  16
ATOM     16  C   UNL     1       3.761   7.687  17.787  0.00  0.00    +0.000 C 
BRANCH  16  17
ATOM     17  N   UNL     1       2.355   7.638  18.168  0.00  0.00    +0.000 NA
ATOM     18  C   UNL     1       2.049   7.341  19.573  0.00  0.00    +0.000 C 
ATOM     19  C   UNL     1       1.726   8.502  20.539  0.00  0.00    +0.000 C 
ATOM     20  N   UNL     1       0.855   9.523  19.937  0.00  0.00    +0.000 N 
ATOM     21  C   UNL     1       1.214   9.936  18.570  0.00  0.00    +0.000 C 
ATOM     22  C   UNL     1       1.549   8.743  17.641  0.00  0.00    +0.000 C 
BRANCH  20  23
ATOM     23  C   UNL     1      -0.009  10.272  20.734  0.00  0.00    +0.000 A 
ATOM     24  C   UNL     1      -0.611  11.467  20.291  0.00  0.00    +0.000 A 
ATOM     25  C   UNL     1      -1.291  12.336  21.160  0.00  0.00    +0.000 A 
ATOM     26  C   UNL     1      -1.407  12.012  22.504  0.00  0.00    +0.000 A 
ATOM     27 CL   UNL     1      -2.125  13.119  23.606  0.00  0.00    +0.000 Cl
ATOM     28  C   UNL     1      -0.917  10.798  22.961  0.00  0.00    +0.000 A 
ATOM     29  C   UNL     1      -0.246   9.938  22.079  0.00  0.00    +0.000 A 
ENDBRANCH  20  23
ENDBRANCH  16  17
ENDBRANCH   5  16
TORSDOF 8
ENDMDL
MODEL 3
REMARK VINA RESULT:      -6.9      2.148      4.654
REMARK  Name = 
REMARK  11 active torsions:
REMARK  status: ('A' for Active; 'I' for Inactive)
REMARK    1  A    between atoms: C_1  and  N_2
REMARK    2  A    between atoms: N_2  and  C_3
REMARK    3  A    between atoms: N_2  and  C_4
REMARK    4  A    between atoms: C_4  and  C_5
REMARK    5  A    between atoms: C_5  and  N_6
REMARK    6  A    between atoms: N_6  and  C_7
REMARK    7  A    between atoms: N_6  and  C_8
REMARK    8  A    between atoms: C_11  and  C_12
REMARK    9  A    between atoms: C_14  and  C_15
REMARK   10  A    between atoms: C_15  and  N_16
REMARK   11  A    between atoms: N_19  and  C_20
REMARK                            x       y       z     vdW  Elec       q    Type
REMARK                         _______ _______ _______ _____ _____    ______ ____
ROOT
ATOM      1  C   UNL     1       5.259   4.722  17.516  0.00  0.00    +0.000 A 
ATOM      2  C   UNL     1       5.078   3.653  18.419  0.00  0.00    +0.000 A 
ATOM      3  C   UNL     1       3.880   3.453  19.126  0.00  0.00    +0.000 A 
ATOM      4  C   UNL     1       2.816   4.337  18.985  0.00  0.00    +0.000 A 
ATOM      5  C   UNL     1       2.966   5.455  18.136  0.00  0.00    +0.000 A 
ATOM      6  C   UNL     1       4.165   5.608  17.418  0.00  0.00    +0.000 A 
ENDROOT
BRANCH   1   7
ATOM      7  N   UNL     1       6.428   4.899  16.779  0.00  0.00    +0.000 N 
ATOM      8  C   UNL     1       7.706   4.548  17.382  0.00  0.00    +0.000 C 
BRANCH   7   9
ATOM      9  C   UNL     1       6.340   5.265  15.335  0.00  0.00    +0.000 C 
BRANCH   9  10
ATOM     10  C   UNL     1       6.128   4.074  14.357  0.00  0.00    +0.000 C 
BRANCH  10  12
ATOM     11  C   UNL     1       7.701   5.029  12.803  0.00  0.00    +0.000 C 
ATOM     12  N   UNL     1       6.421   4.314  12.924  0.00  0.00    +0.000 NA
ATOM     13  C   UNL     1       6.493   3.070  12.154  0.00  0.00    +0.000 C 
ENDBRANCH  10  12
ENDBRANCH   9  10
ENDBRANCH   7   9
ENDBRANCH   1   7
BRANCH   4  14
ATOM     14  C   UNL     1       1.594   4.077  19.710  0.00  0.00    +0.000 C 
ATOM     15  N   UNL     1       0.590   3.876  20.268  0.00  0.00    +0.000 NA
ENDBRANCH   4  14
BRANCH   5  16
ATOM     16  C   UNL     1       1.922   6.556  18.042  0.00  0.00    +0.000 C 
BRANCH  16  17
ATOM     17  N   UNL     1       2.282   7.733  18.822  0.00  0.00    +0.000 NA
ATOM     18  C   UNL     1       1.871   9.040  18.294  0.00  0.00    +0.000 C 
ATOM     19  C   UNL     1       0.596   9.713  18.848  0.00  0.00    +0.000 C 
ATOM     20  N   UNL     1       0.469   9.587  20.307  0.00  0.00    +0.000 N 
ATOM     21  C   UNL     1       0.752   8.250  20.856  0.00  0.00    +0.000 C 
ATOM     22  C   UNL     1       2.028   7.605  20.260  0.00  0.00    +0.000 C 
BRANCH  20  23
ATOM     23  C   UNL     1      -0.201  10.562  21.044  0.00  0.00    +0.000 A 
ATOM     24  C   UNL     1      -0.404  10.461  22.435  0.00  0.00    +0.000 A 
ATOM     25  C   UNL     1      -1.270  11.319  23.135  0.00  0.00    +0.000 A 
ATOM     26  C   UNL     1      -1.941  12.324  22.453  0.00  0.00    +0.000 A 
ATOM     27 CL   UNL     1      -3.097  13.302  23.267  0.00  0.00    +0.000 Cl
ATOM     28  C   UNL     1      -1.692  12.520  21.104  0.00  0.00    +0.000 A 
ATOM     29  C   UNL     1      -0.819  11.660  20.421  0.00  0.00    +0.000 A 
ENDBRANCH  20  23
ENDBRANCH  16  17
ENDBRANCH   5  16
TORSDOF 8
ENDMDL
MODEL 4
REMARK VINA RESULT:      -6.9      1.750      4.553
REMARK  Name = 
REMARK  11 active torsions:
REMARK  status: ('A' for Active; 'I' for Inactive)
REMARK    1  A    between atoms: C_1  and  N_2
REMARK    2  A    between atoms: N_2  and  C_3
REMARK    3  A    between atoms: N_2  and  C_4
REMARK    4  A    between atoms: C_4  and  C_5
REMARK    5  A    between atoms: C_5  and  N_6
REMARK    6  A    between atoms: N_6  and  C_7
REMARK    7  A    between atoms: N_6  and  C_8
REMARK    8  A    between atoms: C_11  and  C_12
REMARK    9  A    between atoms: C_14  and  C_15
REMARK   10  A    between atoms: C_15  and  N_16
REMARK   11  A    between atoms: N_19  and  C_20
REMARK                            x       y       z     vdW  Elec       q    Type
REMARK                         _______ _______ _______ _____ _____    ______ ____
ROOT
ATOM      1  C   UNL     1       5.533   5.210  18.389  0.00  0.00    +0.000 A 
ATOM      2  C   UNL     1       5.269   3.837  18.577  0.00  0.00    +0.000 A 
ATOM      3  C   UNL     1       3.965   3.311  18.584  0.00  0.00    +0.000 A 
ATOM      4  C   UNL     1       2.863   4.143  18.437  0.00  0.00    +0.000 A 
ATOM      5  C   UNL     1       3.071   5.533  18.301  0.00  0.00    +0.000 A 
ATOM      6  C   UNL     1       4.388   6.024  18.265  0.00  0.00    +0.000 A 
ENDROOT
BRANCH   1   7
ATOM      7  N   UNL     1       6.825   5.730  18.336  0.00  0.00    +0.000 N 
ATOM      8  C   UNL     1       7.655   5.690  19.531  0.00  0.00    +0.000 C 
BRANCH   7   9
ATOM      9  C   UNL     1       7.398   6.145  17.022  0.00  0.00    +0.000 C 
BRANCH   9  10
ATOM     10  C   UNL     1       7.397   5.049  15.917  0.00  0.00    +0.000 C 
BRANCH  10  12
ATOM     11  C   UNL     1       7.320   4.940  13.512  0.00  0.00    +0.000 C 
ATOM     12  N   UNL     1       6.559   5.297  14.719  0.00  0.00    +0.000 NA
ATOM     13  C   UNL     1       5.312   4.530  14.743  0.00  0.00    +0.000 C 
ENDBRANCH  10  12
ENDBRANCH   9  10
ENDBRANCH   7   9
ENDBRANCH   1   7
BRANCH   4  14
ATOM     14  C   UNL     1       1.543   3.556  18.423  0.00  0.00    +0.000 C 
ATOM     15  N   UNL     1       0.481   3.076  18.444  0.00  0.00    +0.000 NA
ENDBRANCH   4  14
BRANCH   5  16
ATOM     16  C   UNL     1       1.927   6.534  18.295  0.00  0.00    +0.000 C 
BRANCH  16  17
ATOM     17  N   UNL     1       2.268   7.776  18.977  0.00  0.00    +0.000 NA
ATOM     18  C   UNL     1       1.815   9.029  18.360  0.00  0.00    +0.000 C 
ATOM     19  C   UNL     1       0.532   9.709  18.885  0.00  0.00    +0.000 C 
ATOM     20  N   UNL     1       0.433   9.691  20.352  0.00  0.00    +0.000 N 
ATOM     21  C   UNL     1       0.760   8.407  20.994  0.00  0.00    +0.000 C 
ATOM     22  C   UNL     1       2.042   7.750  20.425  0.00  0.00    +0.000 C 
BRANCH  20  23
ATOM     23  C   UNL     1      -0.250  10.703  21.026  0.00  0.00    +0.000 A 
ATOM     24  C   UNL     1      -0.356  12.015  20.524  0.00  0.00    +0.000 A 
ATOM     25  C   UNL     1      -0.839  13.082  21.301  0.00  0.00    +0.000 A 
ATOM     26  C   UNL     1      -1.256  12.851  22.603  0.00  0.00    +0.000 A 
ATOM     27 CL   UNL     1      -1.732  14.161  23.609  0.00  0.00    +0.000 Cl
ATOM     28  C   UNL     1      -1.263  11.557  23.101  0.00  0.00    +0.000 A 
ATOM     29  C   UNL     1      -0.783  10.502  22.311  0.00  0.00    +0.000 A 
ENDBRANCH  20  23
ENDBRANCH  16  17
ENDBRANCH   5  16
TORSDOF 8
ENDMDL
MODEL 5
REMARK VINA RESULT:      -6.9      2.159      4.704
REMARK  Name = 
REMARK  11 active torsions:
REMARK  status: ('A' for Active; 'I' for Inactive)
REMARK    1  A    between atoms: C_1  and  N_2
REMARK    2  A    between atoms: N_2  and  C_3
REMARK    3  A    between atoms: N_2  and  C_4
REMARK    4  A    between atoms: C_4  and  C_5
REMARK    5  A    between atoms: C_5  and  N_6
REMARK    6  A    between atoms: N_6  and  C_7
REMARK    7  A    between atoms: N_6  and  C_8
REMARK    8  A    between atoms: C_11  and  C_12
REMARK    9  A    between atoms: C_14  and  C_15
REMARK   10  A    between atoms: C_15  and  N_16
REMARK   11  A    between atoms: N_19  and  C_20
REMARK                            x       y       z     vdW  Elec       q    Type
REMARK                         _______ _______ _______ _____ _____    ______ ____
ROOT
ATOM      1  C   UNL     1       5.450   5.286  17.465  0.00  0.00    +0.000 A 
ATOM      2  C   UNL     1       5.436   4.193  18.357  0.00  0.00    +0.000 A 
ATOM      3  C   UNL     1       4.301   3.842  19.107  0.00  0.00    +0.000 A 
ATOM      4  C   UNL     1       3.134   4.593  19.023  0.00  0.00    +0.000 A 
ATOM      5  C   UNL     1       3.113   5.730  18.186  0.00  0.00    +0.000 A 
ATOM      6  C   UNL     1       4.255   6.034  17.424  0.00  0.00    +0.000 A 
ENDROOT
BRANCH   1   7
ATOM      7  N   UNL     1       6.558   5.610  16.684  0.00  0.00    +0.000 N 
ATOM      8  C   UNL     1       7.365   6.768  17.046  0.00  0.00    +0.000 C 
BRANCH   7   9
ATOM      9  C   UNL     1       7.006   4.672  15.614  0.00  0.00    +0.000 C 
BRANCH   9  10
ATOM     10  C   UNL     1       6.054   4.554  14.389  0.00  0.00    +0.000 C 
BRANCH  10  12
ATOM     11  C   UNL     1       5.439   3.362  12.389  0.00  0.00    +0.000 C 
ATOM     12  N   UNL     1       6.571   3.843  13.195  0.00  0.00    +0.000 NA
ATOM     13  C   UNL     1       7.423   4.695  12.364  0.00  0.00    +0.000 C 
ENDBRANCH  10  12
ENDBRANCH   9  10
ENDBRANCH   7   9
ENDBRANCH   1   7
BRANCH   4  14
ATOM     14  C   UNL     1       1.983   4.180  19.791  0.00  0.00    +0.000 C 
ATOM     15  N   UNL     1       1.071   3.849  20.440  0.00  0.00    +0.000 NA
ENDBRANCH   4  14
BRANCH   5  16
ATOM     16  C   UNL     1       1.942   6.698  18.151  0.00  0.00    +0.000 C 
BRANCH  16  17
ATOM     17  N   UNL     1       2.265   7.986  18.752  0.00  0.00    +0.000 NA
ATOM     18  C   UNL     1       1.925   9.190  17.985  0.00  0.00    +0.000 C 
ATOM     19  C   UNL     1       0.625   9.956  18.315  0.00  0.00    +0.000 C 
ATOM     20  N   UNL     1       0.382  10.076  19.760  0.00  0.00    +0.000 N 
ATOM     21  C   UNL     1       0.593   8.847  20.543  0.00  0.00    +0.000 C 
ATOM     22  C   UNL     1       1.897   8.101  20.167  0.00  0.00    +0.000 C 
BRANCH  20  23
ATOM     23  C   UNL     1      -0.323  11.166  20.269  0.00  0.00    +0.000 A 
ATOM     24  C   UNL     1       0.040  11.816  21.466  0.00  0.00    +0.000 A 
ATOM     25  C   UNL     1      -0.793  12.756  22.096  0.00  0.00    +0.000 A 
ATOM     26  C   UNL     1      -2.011  13.088  21.522  0.00  0.00    +0.000 A 
ATOM     27 CL   UNL     1      -3.098  14.140  22.338  0.00  0.00    +0.000 Cl
ATOM     28  C   UNL     1      -2.360  12.547  20.294  0.00  0.00    +0.000 A 
ATOM     29  C   UNL     1      -1.515  11.615  19.675  0.00  0.00    +0.000 A 
ENDBRANCH  20  23
ENDBRANCH  16  17
ENDBRANCH   5  16
TORSDOF 8
ENDMDL
MODEL 6
REMARK VINA RESULT:      -6.9      2.186      4.588
REMARK  Name = 
REMARK  11 active torsions:
REMARK  status: ('A' for Active; 'I' for Inactive)
REMARK    1  A    between atoms: C_1  and  N_2
REMARK    2  A    between atoms: N_2  and  C_3
REMARK    3  A    between atoms: N_2  and  C_4
REMARK    4  A    between atoms: C_4  and  C_5
REMARK    5  A    between atoms: C_5  and  N_6
REMARK    6  A    between atoms: N_6  and  C_7
REMARK    7  A    between atoms: N_6  and  C_8
REMARK    8  A    between atoms: C_11  and  C_12
REMARK    9  A    between atoms: C_14  and  C_15
REMARK   10  A    between atoms: C_15  and  N_16
REMARK   11  A    between atoms: N_19  and  C_20
REMARK                            x       y       z     vdW  Elec       q    Type
REMARK                         _______ _______ _______ _____ _____    ______ ____
ROOT
ATOM      1  C   UNL     1       4.765   4.136  16.736  0.00  0.00    +0.000 A 
ATOM      2  C   UNL     1       4.780   2.943  17.489  0.00  0.00    +0.000 A 
ATOM      3  C   UNL     1       3.813   2.652  18.466  0.00  0.00    +0.000 A 
ATOM      4  C   UNL     1       2.802   3.560  18.758  0.00  0.00    +0.000 A 
ATOM      5  C   UNL     1       2.775   4.794  18.072  0.00  0.00    +0.000 A 
ATOM      6  C   UNL     1       3.738   5.041  17.078  0.00  0.00    +0.000 A 
ENDROOT
BRANCH   1   7
ATOM      7  N   UNL     1       5.694   4.410  15.735  0.00  0.00    +0.000 N 
ATOM      8  C   UNL     1       5.323   4.192  14.344  0.00  0.00    +0.000 C 
BRANCH   7   9
ATOM      9  C   UNL     1       6.975   5.091  16.085  0.00  0.00    +0.000 C 
BRANCH   9  10
ATOM     10  C   UNL     1       7.620   4.649  17.430  0.00  0.00    +0.000 C 
BRANCH  10  12
ATOM     11  C   UNL     1       7.596   7.004  17.934  0.00  0.00    +0.000 C 
ATOM     12  N   UNL     1       7.679   5.656  18.517  0.00  0.00    +0.000 NA
ATOM     13  C   UNL     1       6.599   5.488  19.491  0.00  0.00    +0.000 C 
ENDBRANCH  10  12
ENDBRANCH   9  10
ENDBRANCH   7   9
ENDBRANCH   1   7
BRANCH   4  14
ATOM     14  C   UNL     1       1.814   3.207  19.751  0.00  0.00    +0.000 C 
ATOM     15  N   UNL     1       1.028   2.892  20.552  0.00  0.00    +0.000 NA
ENDBRANCH   4  14
BRANCH   5  16
ATOM     16  C   UNL     1       1.808   5.909  18.435  0.00  0.00    +0.000 C 
BRANCH  16  17
ATOM     17  N   UNL     1       2.493   7.133  18.832  0.00  0.00    +0.000 NA
ATOM     18  C   UNL     1       2.729   8.140  17.791  0.00  0.00    +0.000 C 
ATOM     19  C   UNL     1       1.767   9.342  17.669  0.00  0.00    +0.000 C 
ATOM     20  N   UNL     1       1.385   9.905  18.973  0.00  0.00    +0.000 N 
ATOM     21  C   UNL     1       1.019   8.921  20.005  0.00  0.00    +0.000 C 
ATOM     22  C   UNL     1       1.998   7.723  20.080  0.00  0.00    +0.000 C 
BRANCH  20  23
ATOM     23  C   UNL     1       1.065  11.256  19.092  0.00  0.00    +0.000 A 
ATOM     24  C   UNL     1      -0.204  11.705  19.509  0.00  0.00    +0.000 A 
ATOM     25  C   UNL     1      -0.599  13.050  19.409  0.00  0.00    +0.000 A 
ATOM     26  C   UNL     1       0.287  13.990  18.907  0.00  0.00    +0.000 A 
ATOM     27 CL   UNL     1      -0.218  15.615  18.661  0.00  0.00    +0.000 Cl
ATOM     28  C   UNL     1       1.579  13.608  18.580  0.00  0.00    +0.000 A 
ATOM     29  C   UNL     1       1.960  12.263  18.692  0.00  0.00    +0.000 A 
ENDBRANCH  20  23
ENDBRANCH  16  17
ENDBRANCH   5  16
TORSDOF 8
ENDMDL
MODEL 7
REMARK VINA RESULT:      -6.8      2.196      4.834
REMARK  Name = 
REMARK  11 active torsions:
REMARK  status: ('A' for Active; 'I' for Inactive)
REMARK    1  A    between atoms: C_1  and  N_2
REMARK    2  A    between atoms: N_2  and  C_3
REMARK    3  A    between atoms: N_2  and  C_4
REMARK    4  A    between atoms: C_4  and  C_5
REMARK    5  A    between atoms: C_5  and  N_6
REMARK    6  A    between atoms: N_6  and  C_7
REMARK    7  A    between atoms: N_6  and  C_8
REMARK    8  A    between atoms: C_11  and  C_12
REMARK    9  A    between atoms: C_14  and  C_15
REMARK   10  A    between atoms: C_15  and  N_16
REMARK   11  A    between atoms: N_19  and  C_20
REMARK                            x       y       z     vdW  Elec       q    Type
REMARK                         _______ _______ _______ _____ _____    ______ ____
ROOT
ATOM      1  C   UNL     1       5.458   5.138  17.904  0.00  0.00    +0.000 A 
ATOM      2  C   UNL     1       5.480   4.030  18.777  0.00  0.00    +0.000 A 
ATOM      3  C   UNL     1       4.359   3.635  19.527  0.00  0.00    +0.000 A 
ATOM      4  C   UNL     1       3.172   4.354  19.462  0.00  0.00    +0.000 A 
ATOM      5  C   UNL     1       3.114   5.504  18.646  0.00  0.00    +0.000 A 
ATOM      6  C   UNL     1       4.243   5.854  17.883  0.00  0.00    +0.000 A 
ENDROOT
BRANCH   1   7
ATOM      7  N   UNL     1       6.552   5.507  17.124  0.00  0.00    +0.000 N 
ATOM      8  C   UNL     1       7.197   6.790  17.368  0.00  0.00    +0.000 C 
BRANCH   7   9
ATOM      9  C   UNL     1       7.156   4.516  16.186  0.00  0.00    +0.000 C 
BRANCH   9  10
ATOM     10  C   UNL     1       6.189   3.934  15.116  0.00  0.00    +0.000 C 
BRANCH  10  12
ATOM     11  C   UNL     1       7.601   5.119  13.566  0.00  0.00    +0.000 C 
ATOM     12  N   UNL     1       6.285   4.489  13.744  0.00  0.00    +0.000 NA
ATOM     13  C   UNL     1       6.101   3.464  12.715  0.00  0.00    +0.000 C 
ENDBRANCH  10  12
ENDBRANCH   9  10
ENDBRANCH   7   9
ENDBRANCH   1   7
BRANCH   4  14
ATOM     14  C   UNL     1       2.037   3.896  20.230  0.00  0.00    +0.000 C 
ATOM     15  N   UNL     1       1.102   3.549  20.835  0.00  0.00    +0.000 NA
ENDBRANCH   4  14
BRANCH   5  16
ATOM     16  C   UNL     1       1.917   6.440  18.635  0.00  0.00    +0.000 C 
BRANCH  16  17
ATOM     17  N   UNL     1       2.268   7.801  19.017  0.00  0.00    +0.000 NA
ATOM     18  C   UNL     1       2.115   8.847  17.999  0.00  0.00    +0.000 C 
ATOM     19  C   UNL     1       0.850   9.733  18.009  0.00  0.00    +0.000 C 
ATOM     20  N   UNL     1       0.452  10.149  19.362  0.00  0.00    +0.000 N 
ATOM     21  C   UNL     1       0.474   9.089  20.383  0.00  0.00    +0.000 C 
ATOM     22  C   UNL     1       1.750   8.213  20.325  0.00  0.00    +0.000 C 
BRANCH  20  23
ATOM     23  C   UNL     1      -0.218  11.355  19.561  0.00  0.00    +0.000 A 
ATOM     24  C   UNL     1       0.000  12.490  18.755  0.00  0.00    +0.000 A 
ATOM     25  C   UNL     1      -0.496  13.761  19.092  0.00  0.00    +0.000 A 
ATOM     26  C   UNL     1      -1.252  13.920  20.244  0.00  0.00    +0.000 A 
ATOM     27 CL   UNL     1      -1.762  15.485  20.738  0.00  0.00    +0.000 Cl
ATOM     28  C   UNL     1      -1.574  12.811  21.010  0.00  0.00    +0.000 A 
ATOM     29  C   UNL     1      -1.077  11.548  20.657  0.00  0.00    +0.000 A 
ENDBRANCH  20  23
ENDBRANCH  16  17
ENDBRANCH   5  16
TORSDOF 8
ENDMDL
MODEL 8
REMARK VINA RESULT:      -6.8      2.049      4.691
REMARK  Name = 
REMARK  11 active torsions:
REMARK  status: ('A' for Active; 'I' for Inactive)
REMARK    1  A    between atoms: C_1  and  N_2
REMARK    2  A    between atoms: N_2  and  C_3
REMARK    3  A    between atoms: N_2  and  C_4
REMARK    4  A    between atoms: C_4  and  C_5
REMARK    5  A    between atoms: C_5  and  N_6
REMARK    6  A    between atoms: N_6  and  C_7
REMARK    7  A    between atoms: N_6  and  C_8
REMARK    8  A    between atoms: C_11  and  C_12
REMARK    9  A    between atoms: C_14  and  C_15
REMARK   10  A    between atoms: C_15  and  N_16
REMARK   11  A    between atoms: N_19  and  C_20
REMARK                            x       y       z     vdW  Elec       q    Type
REMARK                         _______ _______ _______ _____ _____    ______ ____
ROOT
ATOM      1  C   UNL     1       5.611   5.023  18.801  0.00  0.00    +0.000 A 
ATOM      2  C   UNL     1       5.416   3.636  18.967  0.00  0.00    +0.000 A 
ATOM      3  C   UNL     1       4.138   3.053  19.032  0.00  0.00    +0.000 A 
ATOM      4  C   UNL     1       2.995   3.840  18.966  0.00  0.00    +0.000 A 
ATOM      5  C   UNL     1       3.136   5.240  18.855  0.00  0.00    +0.000 A 
ATOM      6  C   UNL     1       4.427   5.789  18.761  0.00  0.00    +0.000 A 
ENDROOT
BRANCH   1   7
ATOM      7  N   UNL     1       6.875   5.600  18.691  0.00  0.00    +0.000 N 
ATOM      8  C   UNL     1       7.744   5.631  19.859  0.00  0.00    +0.000 C 
BRANCH   7   9
ATOM      9  C   UNL     1       7.385   6.005  17.349  0.00  0.00    +0.000 C 
BRANCH   9  10
ATOM     10  C   UNL     1       7.234   4.938  16.228  0.00  0.00    +0.000 C 
BRANCH  10  12
ATOM     11  C   UNL     1       6.440   4.208  14.074  0.00  0.00    +0.000 C 
ATOM     12  N   UNL     1       6.588   5.369  14.965  0.00  0.00    +0.000 NA
ATOM     13  C   UNL     1       5.272   5.971  15.189  0.00  0.00    +0.000 C 
ENDBRANCH  10  12
ENDBRANCH   9  10
ENDBRANCH   7   9
ENDBRANCH   1   7
BRANCH   4  14
ATOM     14  C   UNL     1       1.702   3.196  19.008  0.00  0.00    +0.000 C 
ATOM     15  N   UNL     1       0.663   2.668  19.011  0.00  0.00    +0.000 NA
ENDBRANCH   4  14
BRANCH   5  16
ATOM     16  C   UNL     1       1.952   6.190  18.937  0.00  0.00    +0.000 C 
BRANCH  16  17
ATOM     17  N   UNL     1       2.355   7.561  19.223  0.00  0.00    +0.000 NA
ATOM     18  C   UNL     1       2.305   8.522  18.114  0.00  0.00    +0.000 C 
ATOM     19  C   UNL     1       1.088   9.465  17.985  0.00  0.00    +0.000 C 
ATOM     20  N   UNL     1       0.649  10.014  19.277  0.00  0.00    +0.000 N 
ATOM     21  C   UNL     1       0.568   9.045  20.382  0.00  0.00    +0.000 C 
ATOM     22  C   UNL     1       1.798   8.107  20.463  0.00  0.00    +0.000 C 
BRANCH  20  23
ATOM     23  C   UNL     1       0.034  11.263  19.340  0.00  0.00    +0.000 A 
ATOM     24  C   UNL     1       0.623  12.430  18.815  0.00  0.00    +0.000 A 
ATOM     25  C   UNL     1       0.117  13.715  19.079  0.00  0.00    +0.000 A 
ATOM     26  C   UNL     1      -1.018  13.858  19.863  0.00  0.00    +0.000 A 
ATOM     27 CL   UNL     1      -1.579  15.423  20.300  0.00  0.00    +0.000 Cl
ATOM     28  C   UNL     1      -1.686  12.730  20.315  0.00  0.00    +0.000 A 
ATOM     29  C   UNL     1      -1.172  11.455  20.037  0.00  0.00    +0.000 A 
ENDBRANCH  20  23
ENDBRANCH  16  17
ENDBRANCH   5  16
TORSDOF 8
ENDMDL
MODEL 9
REMARK VINA RESULT:      -6.8      2.090      3.808
REMARK  Name = 
REMARK  11 active torsions:
REMARK  status: ('A' for Active; 'I' for Inactive)
REMARK    1  A    between atoms: C_1  and  N_2
REMARK    2  A    between atoms: N_2  and  C_3
REMARK    3  A    between atoms: N_2  and  C_4
REMARK    4  A    between atoms: C_4  and  C_5
REMARK    5  A    between atoms: C_5  and  N_6
REMARK    6  A    between atoms: N_6  and  C_7
REMARK    7  A    between atoms: N_6  and  C_8
REMARK    8  A    between atoms: C_11  and  C_12
REMARK    9  A    between atoms: C_14  and  C_15
REMARK   10  A    between atoms: C_15  and  N_16
REMARK   11  A    between atoms: N_19  and  C_20
REMARK                            x       y       z     vdW  Elec       q    Type
REMARK                         _______ _______ _______ _____ _____    ______ ____
ROOT
ATOM      1  C   UNL     1       1.856   5.083  19.616  0.00  0.00    +0.000 A 
ATOM      2  C   UNL     1       2.016   5.357  18.242  0.00  0.00    +0.000 A 
ATOM      3  C   UNL     1       2.134   6.665  17.740  0.00  0.00    +0.000 A 
ATOM      4  C   UNL     1       2.063   7.761  18.591  0.00  0.00    +0.000 A 
ATOM      5  C   UNL     1       1.848   7.543  19.969  0.00  0.00    +0.000 A 
ATOM      6  C   UNL     1       1.767   6.221  20.443  0.00  0.00    +0.000 A 
ENDROOT
BRANCH   1   7
ATOM      7  N   UNL     1       1.785   3.787  20.124  0.00  0.00    +0.000 N 
ATOM      8  C   UNL     1       0.741   2.893  19.642  0.00  0.00    +0.000 C 
BRANCH   7   9
ATOM      9  C   UNL     1       2.878   3.279  21.005  0.00  0.00    +0.000 C 
BRANCH   9  10
ATOM     10  C   UNL     1       3.754   2.147  20.395  0.00  0.00    +0.000 C 
BRANCH  10  12
ATOM     11  C   UNL     1       4.016   2.309  18.006  0.00  0.00    +0.000 C 
ATOM     12  N   UNL     1       4.681   2.523  19.300  0.00  0.00    +0.000 NA
ATOM     13  C   UNL     1       5.114   3.919  19.391  0.00  0.00    +0.000 C 
ENDBRANCH  10  12
ENDBRANCH   9  10
ENDBRANCH   7   9
ENDBRANCH   1   7
BRANCH   4  14
ATOM     14  C   UNL     1       2.216   9.086  18.035  0.00  0.00    +0.000 C 
ATOM     15  N   UNL     1       2.309  10.153  17.574  0.00  0.00    +0.000 NA
ENDBRANCH   4  14
BRANCH   5  16
ATOM     16  C   UNL     1       1.599   8.678  20.948  0.00  0.00    +0.000 C 
BRANCH  16  17
ATOM     17  N   UNL     1       0.188   9.033  21.044  0.00  0.00    +0.000 NA
ATOM     18  C   UNL     1      -0.454   8.886  22.355  0.00  0.00    +0.000 C 
ATOM     19  C   UNL     1      -0.623  10.127  23.258  0.00  0.00    +0.000 C 
ATOM     20  N   UNL     1      -1.043  11.324  22.514  0.00  0.00    +0.000 N 
ATOM     21  C   UNL     1      -0.326  11.569  21.252  0.00  0.00    +0.000 C 
ATOM     22  C   UNL     1      -0.162  10.295  20.386  0.00  0.00    +0.000 C 
BRANCH  20  23
ATOM     23  C   UNL     1      -1.803  12.312  23.138  0.00  0.00    +0.000 A 
ATOM     24  C   UNL     1      -3.163  12.136  23.463  0.00  0.00    +0.000 A 
ATOM     25  C   UNL     1      -3.983  13.200  23.876  0.00  0.00    +0.000 A 
ATOM     26  C   UNL     1      -3.448  14.473  23.998  0.00  0.00    +0.000 A 
ATOM     27 CL   UNL     1      -4.461  15.808  24.381  0.00  0.00    +0.000 Cl
ATOM     28  C   UNL     1      -2.092  14.669  23.786  0.00  0.00    +0.000 A 
ATOM     29  C   UNL     1      -1.285  13.596  23.381  0.00  0.00    +0.000 A 
ENDBRANCH  20  23
ENDBRANCH  16  17
ENDBRANCH   5  16
TORSDOF 8
ENDMDL
