MODEL 1
REMARK VINA RESULT:      -8.0      0.000      0.000
REMARK  Name = 
REMARK  9 active torsions:
REMARK  status: ('A' for Active; 'I' for Inactive)
REMARK    1  A    between atoms: C_1  and  O_2
REMARK    2  A    between atoms: O_2  and  C_3
REMARK    3  A    between atoms: C_6  and  S_7
REMARK    4  A    between atoms: S_7  and  N_10
REMARK    5  A    between atoms: N_10  and  C_11
REMARK    6  A    between atoms: C_11  and  C_12
REMARK    7  A    between atoms: C_12  and  C_13
REMARK    8  A    between atoms: C_23  and  O_24
REMARK    9  A    between atoms: O_24  and  C_25
REMARK                            x       y       z     vdW  Elec       q    Type
REMARK                         _______ _______ _______ _____ _____    ______ ____
ROOT
ATOM      1  N   UNL     1       7.200   7.610  17.165  0.00  0.00    +0.000 NA
ATOM      2  H   UNL     1       6.344   8.120  16.949  0.00  0.00    +0.000 HD
ENDROOT
BRANCH   1   3
ATOM      3  S   UNL     1       7.100   5.948  17.027  0.00  0.00    +0.000 S 
ATOM      4  O   UNL     1       8.072   5.383  17.949  0.00  0.00    +0.000 OA
ATOM      5  O   UNL     1       7.120   5.625  15.597  0.00  0.00    +0.000 OA
BRANCH   3   9
ATOM      6  C   UNL     1       2.924   4.804  18.472  0.00  0.00    +0.000 A 
ATOM      7  C   UNL     1       3.169   6.105  17.986  0.00  0.00    +0.000 A 
ATOM      8  C   UNL     1       4.453   6.486  17.560  0.00  0.00    +0.000 A 
ATOM      9  C   UNL     1       5.498   5.576  17.658  0.00  0.00    +0.000 A 
ATOM     10  C   UNL     1       5.278   4.316  18.233  0.00  0.00    +0.000 A 
ATOM     11  C   UNL     1       3.992   3.917  18.633  0.00  0.00    +0.000 A 
BRANCH   6  13
ATOM     12  C   UNL     1       1.315   4.443  20.193  0.00  0.00    +0.000 C 
ATOM     13  O   UNL     1       1.648   4.418  18.805  0.00  0.00    +0.000 OA
ENDBRANCH   6  13
BRANCH  11  14
ATOM     14  O   UNL     1       3.981   2.637  19.128  0.00  0.00    +0.000 OA
ATOM     15  C   UNL     1       3.458   1.588  18.329  0.00  0.00    +0.000 C 
ENDBRANCH  11  14
ENDBRANCH   3   9
ENDBRANCH   1   3
BRANCH   1  16
ATOM     16  C   UNL     1       8.158   8.196  18.102  0.00  0.00    +0.000 C 
BRANCH  16  17
ATOM     17  C   UNL     1       8.347   9.684  17.893  0.00  0.00    +0.000 C 
BRANCH  17  18
ATOM     18  C   UNL     1       9.255  10.510  18.764  0.00  0.00    +0.000 A 
ATOM     19  C   UNL     1       9.230  10.371  20.145  0.00  0.00    +0.000 A 
ATOM     20  N   UNL     1       9.458  11.640  20.588  0.00  0.00    +0.000 N 
ATOM     21  C   UNL     1      10.434  12.162  19.790  0.00  0.00    +0.000 A 
ATOM     22  C   UNL     1      11.381  13.156  20.063  0.00  0.00    +0.000 A 
ATOM     23  C   UNL     1      12.256  13.476  19.030  0.00  0.00    +0.000 A 
ATOM     24  C   UNL     1      12.097  12.912  17.766  0.00  0.00    +0.000 A 
ATOM     25  C   UNL     1      11.072  11.978  17.491  0.00  0.00    +0.000 A 
ATOM     26  C   UNL     1      10.266  11.521  18.552  0.00  0.00    +0.000 A 
ATOM     27  H   UNL     1       9.004  12.102  21.364  0.00  0.00    +0.000 HD
ENDBRANCH  17  18
ENDBRANCH  16  17
ENDBRANCH   1  16
TORSDOF 7
ENDMDL
MODEL 2
REMARK VINA RESULT:      -7.9      4.692      7.547
REMARK  Name = 
REMARK  9 active torsions:
REMARK  status: ('A' for Active; 'I' for Inactive)
REMARK    1  A    between atoms: C_1  and  O_2
REMARK    2  A    between atoms: O_2  and  C_3
REMARK    3  A    between atoms: C_6  and  S_7
REMARK    4  A    between atoms: S_7  and  N_10
REMARK    5  A    between atoms: N_10  and  C_11
REMARK    6  A    between atoms: C_11  and  C_12
REMARK    7  A    between atoms: C_12  and  C_13
REMARK    8  A    between atoms: C_23  and  O_24
REMARK    9  A    between atoms: O_24  and  C_25
REMARK                            x       y       z     vdW  Elec       q    Type
REMARK                         _______ _______ _______ _____ _____    ______ ____
ROOT
ATOM      1  N   UNL     1       2.913   5.107  20.475  0.00  0.00    +0.000 NA
ATOM      2  H   UNL     1       3.829   5.307  20.876  0.00  0.00    +0.000 HD
ENDROOT
BRANCH   1   3
ATOM      3  S   UNL     1       2.828   3.736  19.526  0.00  0.00    +0.000 S 
ATOM      4  O   UNL     1       1.576   3.802  18.789  0.00  0.00    +0.000 OA
ATOM      5  O   UNL     1       3.156   2.590  20.380  0.00  0.00    +0.000 OA
BRANCH   3   9
ATOM      6  C   UNL     1       6.228   4.555  16.593  0.00  0.00    +0.000 A 
ATOM      7  C   UNL     1       4.951   4.203  16.109  0.00  0.00    +0.000 A 
ATOM      8  C   UNL     1       3.897   3.922  16.995  0.00  0.00    +0.000 A 
ATOM      9  C   UNL     1       4.134   3.954  18.364  0.00  0.00    +0.000 A 
ATOM     10  C   UNL     1       5.426   4.206  18.845  0.00  0.00    +0.000 A 
ATOM     11  C   UNL     1       6.479   4.518  17.967  0.00  0.00    +0.000 A 
BRANCH   6  13
ATOM     12  C   UNL     1       6.940   4.756  14.327  0.00  0.00    +0.000 C 
ATOM     13  O   UNL     1       7.226   4.910  15.718  0.00  0.00    +0.000 OA
ENDBRANCH   6  13
BRANCH  11  14
ATOM     14  O   UNL     1       7.649   4.774  18.637  0.00  0.00    +0.000 OA
ATOM     15  C   UNL     1       7.899   6.084  19.119  0.00  0.00    +0.000 C 
ENDBRANCH  11  14
ENDBRANCH   3   9
ENDBRANCH   1   3
BRANCH   1  16
ATOM     16  C   UNL     1       1.994   6.216  20.217  0.00  0.00    +0.000 C 
BRANCH  16  17
ATOM     17  C   UNL     1       2.502   7.161  19.148  0.00  0.00    +0.000 C 
BRANCH  17  18
ATOM     18  C   UNL     1       1.838   8.480  18.858  0.00  0.00    +0.000 A 
ATOM     19  C   UNL     1       1.928   9.056  17.598  0.00  0.00    +0.000 A 
ATOM     20  N   UNL     1       1.988  10.390  17.871  0.00  0.00    +0.000 N 
ATOM     21  C   UNL     1       1.085  10.626  18.867  0.00  0.00    +0.000 A 
ATOM     22  C   UNL     1       0.377  11.792  19.178  0.00  0.00    +0.000 A 
ATOM     23  C   UNL     1      -0.484  11.719  20.269  0.00  0.00    +0.000 A 
ATOM     24  C   UNL     1      -0.526  10.576  21.063  0.00  0.00    +0.000 A 
ATOM     25  C   UNL     1       0.270   9.443  20.780  0.00  0.00    +0.000 A 
ATOM     26  C   UNL     1       1.038   9.429  19.599  0.00  0.00    +0.000 A 
ATOM     27  H   UNL     1       2.577  11.076  17.417  0.00  0.00    +0.000 HD
ENDBRANCH  17  18
ENDBRANCH  16  17
ENDBRANCH   1  16
TORSDOF 7
ENDMDL
MODEL 3
REMARK VINA RESULT:      -7.6      1.150      2.072
REMARK  Name = 
REMARK  9 active torsions:
REMARK  status: ('A' for Active; 'I' for Inactive)
REMARK    1  A    between atoms: C_1  and  O_2
REMARK    2  A    between atoms: O_2  and  C_3
REMARK    3  A    between atoms: C_6  and  S_7
REMARK    4  A    between atoms: S_7  and  N_10
REMARK    5  A    between atoms: N_10  and  C_11
REMARK    6  A    between atoms: C_11  and  C_12
REMARK    7  A    between atoms: C_12  and  C_13
REMARK    8  A    between atoms: C_23  and  O_24
REMARK    9  A    between atoms: O_24  and  C_25
REMARK                            x       y       z     vdW  Elec       q    Type
REMARK                         _______ _______ _______ _____ _____    ______ ____
ROOT
ATOM      1  N   UNL     1       6.978   8.055  17.667  0.00  0.00    +0.000 NA
ATOM      2  H   UNL     1       6.217   8.303  18.298  0.00  0.00    +0.000 HD
ENDROOT
BRANCH   1   3
ATOM      3  S   UNL     1       7.136   6.424  17.342  0.00  0.00    +0.000 S 
ATOM      4  O   UNL     1       7.851   5.832  18.462  0.00  0.00    +0.000 OA
ATOM      5  O   UNL     1       7.627   6.296  15.966  0.00  0.00    +0.000 OA
BRANCH   3   9
ATOM      6  C   UNL     1       2.857   4.892  17.756  0.00  0.00    +0.000 A 
ATOM      7  C   UNL     1       3.851   4.061  17.197  0.00  0.00    +0.000 A 
ATOM      8  C   UNL     1       5.169   4.522  17.037  0.00  0.00    +0.000 A 
ATOM      9  C   UNL     1       5.480   5.827  17.400  0.00  0.00    +0.000 A 
ATOM     10  C   UNL     1       4.472   6.685  17.862  0.00  0.00    +0.000 A 
ATOM     11  C   UNL     1       3.159   6.223  18.053  0.00  0.00    +0.000 A 
BRANCH   6  13
ATOM     12  C   UNL     1       1.382   3.740  19.233  0.00  0.00    +0.000 C 
ATOM     13  O   UNL     1       1.594   4.401  17.984  0.00  0.00    +0.000 OA
ENDBRANCH   6  13
BRANCH  11  14
ATOM     14  O   UNL     1       2.337   7.202  18.551  0.00  0.00    +0.000 OA
ATOM     15  C   UNL     1       2.114   8.376  17.787  0.00  0.00    +0.000 C 
ENDBRANCH  11  14
ENDBRANCH   3   9
ENDBRANCH   1   3
BRANCH   1  16
ATOM     16  C   UNL     1       8.157   8.917  17.601  0.00  0.00    +0.000 C 
BRANCH  16  17
ATOM     17  C   UNL     1       8.803   9.129  18.955  0.00  0.00    +0.000 C 
BRANCH  17  18
ATOM     18  C   UNL     1       9.403  10.448  19.363  0.00  0.00    +0.000 A 
ATOM     19  C   UNL     1       9.308  10.894  20.675  0.00  0.00    +0.000 A 
ATOM     20  N   UNL     1       9.173  12.242  20.534  0.00  0.00    +0.000 N 
ATOM     21  C   UNL     1      10.044  12.622  19.554  0.00  0.00    +0.000 A 
ATOM     22  C   UNL     1      10.684  13.849  19.349  0.00  0.00    +0.000 A 
ATOM     23  C   UNL     1      11.526  13.928  18.244  0.00  0.00    +0.000 A 
ATOM     24  C   UNL     1      11.613  12.871  17.341  0.00  0.00    +0.000 A 
ATOM     25  C   UNL     1      10.882  11.675  17.523  0.00  0.00    +0.000 A 
ATOM     26  C   UNL     1      10.138  11.506  18.708  0.00  0.00    +0.000 A 
ATOM     27  H   UNL     1       8.558  12.849  21.061  0.00  0.00    +0.000 HD
ENDBRANCH  17  18
ENDBRANCH  16  17
ENDBRANCH   1  16
TORSDOF 7
ENDMDL
MODEL 4
REMARK VINA RESULT:      -7.6      5.272      8.242
REMARK  Name = 
REMARK  9 active torsions:
REMARK  status: ('A' for Active; 'I' for Inactive)
REMARK    1  A    between atoms: C_1  and  O_2
REMARK    2  A    between atoms: O_2  and  C_3
REMARK    3  A    between atoms: C_6  and  S_7
REMARK    4  A    between atoms: S_7  and  N_10
REMARK    5  A    between atoms: N_10  and  C_11
REMARK    6  A    between atoms: C_11  and  C_12
REMARK    7  A    between atoms: C_12  and  C_13
REMARK    8  A    between atoms: C_23  and  O_24
REMARK    9  A    between atoms: O_24  and  C_25
REMARK                            x       y       z     vdW  Elec       q    Type
REMARK                         _______ _______ _______ _____ _____    ______ ____
ROOT
ATOM      1  N   UNL     1       5.707   6.715  17.934  0.00  0.00    +0.000 NA
ATOM      2  H   UNL     1       6.324   7.488  18.183  0.00  0.00    +0.000 HD
ENDROOT
BRANCH   1   3
ATOM      3  S   UNL     1       6.392   5.194  18.026  0.00  0.00    +0.000 S 
ATOM      4  O   UNL     1       5.464   4.350  18.761  0.00  0.00    +0.000 OA
ATOM      5  O   UNL     1       7.782   5.364  18.459  0.00  0.00    +0.000 OA
BRANCH   3   9
ATOM      6  C   UNL     1       6.343   4.005  13.619  0.00  0.00    +0.000 A 
ATOM      7  C   UNL     1       5.387   3.465  14.505  0.00  0.00    +0.000 A 
ATOM      8  C   UNL     1       5.400   3.798  15.870  0.00  0.00    +0.000 A 
ATOM      9  C   UNL     1       6.394   4.639  16.354  0.00  0.00    +0.000 A 
ATOM     10  C   UNL     1       7.403   5.098  15.495  0.00  0.00    +0.000 A 
ATOM     11  C   UNL     1       7.381   4.794  14.123  0.00  0.00    +0.000 A 
BRANCH   6  13
ATOM     12  C   UNL     1       5.169   2.937  11.841  0.00  0.00    +0.000 C 
ATOM     13  O   UNL     1       6.268   3.739  12.274  0.00  0.00    +0.000 OA
ENDBRANCH   6  13
BRANCH  11  14
ATOM     14  O   UNL     1       8.428   5.372  13.451  0.00  0.00    +0.000 OA
ATOM     15  C   UNL     1       8.171   6.107  12.266  0.00  0.00    +0.000 C 
ENDBRANCH  11  14
ENDBRANCH   3   9
ENDBRANCH   1   3
BRANCH   1  16
ATOM     16  C   UNL     1       4.612   6.953  16.995  0.00  0.00    +0.000 C 
BRANCH  16  17
ATOM     17  C   UNL     1       3.358   7.462  17.674  0.00  0.00    +0.000 C 
BRANCH  17  18
ATOM     18  C   UNL     1       2.598   6.641  18.681  0.00  0.00    +0.000 A 
ATOM     19  C   UNL     1       2.178   7.202  19.880  0.00  0.00    +0.000 A 
ATOM     20  N   UNL     1       2.302   6.172  20.763  0.00  0.00    +0.000 N 
ATOM     21  C   UNL     1       1.847   5.054  20.126  0.00  0.00    +0.000 A 
ATOM     22  C   UNL     1       1.282   3.887  20.654  0.00  0.00    +0.000 A 
ATOM     23  C   UNL     1       0.912   2.910  19.736  0.00  0.00    +0.000 A 
ATOM     24  C   UNL     1       1.211   3.059  18.383  0.00  0.00    +0.000 A 
ATOM     25  C   UNL     1       1.867   4.209  17.888  0.00  0.00    +0.000 A 
ATOM     26  C   UNL     1       2.120   5.279  18.768  0.00  0.00    +0.000 A 
ATOM     27  H   UNL     1       2.651   6.225  21.711  0.00  0.00    +0.000 HD
ENDBRANCH  17  18
ENDBRANCH  16  17
ENDBRANCH   1  16
TORSDOF 7
ENDMDL
MODEL 5
REMARK VINA RESULT:      -7.6      4.440      8.072
REMARK  Name = 
REMARK  9 active torsions:
REMARK  status: ('A' for Active; 'I' for Inactive)
REMARK    1  A    between atoms: C_1  and  O_2
REMARK    2  A    between atoms: O_2  and  C_3
REMARK    3  A    between atoms: C_6  and  S_7
REMARK    4  A    between atoms: S_7  and  N_10
REMARK    5  A    between atoms: N_10  and  C_11
REMARK    6  A    between atoms: C_11  and  C_12
REMARK    7  A    between atoms: C_12  and  C_13
REMARK    8  A    between atoms: C_23  and  O_24
REMARK    9  A    between atoms: O_24  and  C_25
REMARK                            x       y       z     vdW  Elec       q    Type
REMARK                         _______ _______ _______ _____ _____    ______ ____
ROOT
ATOM      1  N   UNL     1       3.234   5.794  20.125  0.00  0.00    +0.000 NA
ATOM      2  H   UNL     1       4.103   6.007  20.613  0.00  0.00    +0.000 HD
ENDROOT
BRANCH   1   3
ATOM      3  S   UNL     1       3.227   4.362  19.264  0.00  0.00    +0.000 S 
ATOM      4  O   UNL     1       1.967   4.304  18.540  0.00  0.00    +0.000 OA
ATOM      5  O   UNL     1       3.633   3.295  20.183  0.00  0.00    +0.000 OA
BRANCH   3   9
ATOM      6  C   UNL     1       6.479   5.204  16.173  0.00  0.00    +0.000 A 
ATOM      7  C   UNL     1       5.407   4.346  15.851  0.00  0.00    +0.000 A 
ATOM      8  C   UNL     1       4.409   4.053  16.796  0.00  0.00    +0.000 A 
ATOM      9  C   UNL     1       4.507   4.588  18.074  0.00  0.00    +0.000 A 
ATOM     10  C   UNL     1       5.623   5.360  18.427  0.00  0.00    +0.000 A 
ATOM     11  C   UNL     1       6.609   5.683  17.479  0.00  0.00    +0.000 A 
BRANCH   6  13
ATOM     12  C   UNL     1       7.278   4.902  13.947  0.00  0.00    +0.000 C 
ATOM     13  O   UNL     1       7.401   5.549  15.215  0.00  0.00    +0.000 OA
ENDBRANCH   6  13
BRANCH  11  14
ATOM     14  O   UNL     1       7.591   6.481  18.010  0.00  0.00    +0.000 OA
ATOM     15  C   UNL     1       7.665   7.843  17.619  0.00  0.00    +0.000 C 
ENDBRANCH  11  14
ENDBRANCH   3   9
ENDBRANCH   1   3
BRANCH   1  16
ATOM     16  C   UNL     1       2.373   6.894  19.692  0.00  0.00    +0.000 C 
BRANCH  16  17
ATOM     17  C   UNL     1       1.676   7.582  20.849  0.00  0.00    +0.000 C 
BRANCH  17  18
ATOM     18  C   UNL     1       1.001   8.918  20.702  0.00  0.00    +0.000 A 
ATOM     19  C   UNL     1       1.008   9.585  19.483  0.00  0.00    +0.000 A 
ATOM     20  N   UNL     1       1.093  10.895  19.849  0.00  0.00    +0.000 N 
ATOM     21  C   UNL     1       0.259  11.057  20.917  0.00  0.00    +0.000 A 
ATOM     22  C   UNL     1      -0.421  12.197  21.360  0.00  0.00    +0.000 A 
ATOM     23  C   UNL     1      -1.207  12.044  22.498  0.00  0.00    +0.000 A 
ATOM     24  C   UNL     1      -1.202  10.846  23.207  0.00  0.00    +0.000 A 
ATOM     25  C   UNL     1      -0.431   9.737  22.789  0.00  0.00    +0.000 A 
ATOM     26  C   UNL     1       0.256   9.810  21.562  0.00  0.00    +0.000 A 
ATOM     27  H   UNL     1       1.653  11.613  19.408  0.00  0.00    +0.000 HD
ENDBRANCH  17  18
ENDBRANCH  16  17
ENDBRANCH   1  16
TORSDOF 7
ENDMDL
MODEL 6
REMARK VINA RESULT:      -7.6      4.795      7.675
REMARK  Name = 
REMARK  9 active torsions:
REMARK  status: ('A' for Active; 'I' for Inactive)
REMARK    1  A    between atoms: C_1  and  O_2
REMARK    2  A    between atoms: O_2  and  C_3
REMARK    3  A    between atoms: C_6  and  S_7
REMARK    4  A    between atoms: S_7  and  N_10
REMARK    5  A    between atoms: N_10  and  C_11
REMARK    6  A    between atoms: C_11  and  C_12
REMARK    7  A    between atoms: C_12  and  C_13
REMARK    8  A    between atoms: C_23  and  O_24
REMARK    9  A    between atoms: O_24  and  C_25
REMARK                            x       y       z     vdW  Elec       q    Type
REMARK                         _______ _______ _______ _____ _____    ______ ____
ROOT
ATOM      1  N   UNL     1       2.526   5.875  20.076  0.00  0.00    +0.000 NA
ATOM      2  H   UNL     1       2.449   5.988  21.086  0.00  0.00    +0.000 HD
ENDROOT
BRANCH   1   3
ATOM      3  S   UNL     1       2.576   4.296  19.533  0.00  0.00    +0.000 S 
ATOM      4  O   UNL     1       1.377   4.079  18.739  0.00  0.00    +0.000 OA
ATOM      5  O   UNL     1       2.899   3.447  20.683  0.00  0.00    +0.000 OA
BRANCH   3   9
ATOM      6  C   UNL     1       6.177   4.510  16.735  0.00  0.00    +0.000 A 
ATOM      7  C   UNL     1       4.885   4.303  16.206  0.00  0.00    +0.000 A 
ATOM      8  C   UNL     1       3.767   4.209  17.052  0.00  0.00    +0.000 A 
ATOM      9  C   UNL     1       3.947   4.282  18.427  0.00  0.00    +0.000 A 
ATOM     10  C   UNL     1       5.240   4.387  18.959  0.00  0.00    +0.000 A 
ATOM     11  C   UNL     1       6.361   4.512  18.121  0.00  0.00    +0.000 A 
BRANCH   6  13
ATOM     12  C   UNL     1       6.961   4.753  14.497  0.00  0.00    +0.000 C 
ATOM     13  O   UNL     1       7.249   4.685  15.895  0.00  0.00    +0.000 OA
ENDBRANCH   6  13
BRANCH  11  14
ATOM     14  O   UNL     1       7.525   4.647  18.834  0.00  0.00    +0.000 OA
ATOM     15  C   UNL     1       7.954   5.942  19.224  0.00  0.00    +0.000 C 
ENDBRANCH  11  14
ENDBRANCH   3   9
ENDBRANCH   1   3
BRANCH   1  16
ATOM     16  C   UNL     1       3.176   6.925  19.291  0.00  0.00    +0.000 C 
BRANCH  16  17
ATOM     17  C   UNL     1       2.196   7.729  18.463  0.00  0.00    +0.000 C 
BRANCH  17  18
ATOM     18  C   UNL     1       1.436   8.899  19.026  0.00  0.00    +0.000 A 
ATOM     19  C   UNL     1       1.156  10.008  18.237  0.00  0.00    +0.000 A 
ATOM     20  N   UNL     1       1.247  11.044  19.117  0.00  0.00    +0.000 N 
ATOM     21  C   UNL     1       0.646  10.631  20.271  0.00  0.00    +0.000 A 
ATOM     22  C   UNL     1       0.014  11.379  21.271  0.00  0.00    +0.000 A 
ATOM     23  C   UNL     1      -0.510  10.660  22.341  0.00  0.00    +0.000 A 
ATOM     24  C   UNL     1      -0.295   9.287  22.446  0.00  0.00    +0.000 A 
ATOM     25  C   UNL     1       0.429   8.570  21.466  0.00  0.00    +0.000 A 
ATOM     26  C   UNL     1       0.841   9.241  20.298  0.00  0.00    +0.000 A 
ATOM     27  H   UNL     1       1.665  11.950  18.947  0.00  0.00    +0.000 HD
ENDBRANCH  17  18
ENDBRANCH  16  17
ENDBRANCH   1  16
TORSDOF 7
ENDMDL
MODEL 7
REMARK VINA RESULT:      -7.6      1.122      2.074
REMARK  Name = 
REMARK  9 active torsions:
REMARK  status: ('A' for Active; 'I' for Inactive)
REMARK    1  A    between atoms: C_1  and  O_2
REMARK    2  A    between atoms: O_2  and  C_3
REMARK    3  A    between atoms: C_6  and  S_7
REMARK    4  A    between atoms: S_7  and  N_10
REMARK    5  A    between atoms: N_10  and  C_11
REMARK    6  A    between atoms: C_11  and  C_12
REMARK    7  A    between atoms: C_12  and  C_13
REMARK    8  A    between atoms: C_23  and  O_24
REMARK    9  A    between atoms: O_24  and  C_25
REMARK                            x       y       z     vdW  Elec       q    Type
REMARK                         _______ _______ _______ _____ _____    ______ ____
ROOT
ATOM      1  N   UNL     1       6.766   7.738  17.209  0.00  0.00    +0.000 NA
ATOM      2  H   UNL     1       5.936   8.269  17.471  0.00  0.00    +0.000 HD
ENDROOT
BRANCH   1   3
ATOM      3  S   UNL     1       6.496   6.139  16.805  0.00  0.00    +0.000 S 
ATOM      4  O   UNL     1       7.677   5.392  17.207  0.00  0.00    +0.000 OA
ATOM      5  O   UNL     1       6.005   6.113  15.423  0.00  0.00    +0.000 OA
BRANCH   3   9
ATOM      6  C   UNL     1       3.148   5.097  19.726  0.00  0.00    +0.000 A 
ATOM      7  C   UNL     1       4.219   4.200  19.534  0.00  0.00    +0.000 A 
ATOM      8  C   UNL     1       5.247   4.489  18.620  0.00  0.00    +0.000 A 
ATOM      9  C   UNL     1       5.181   5.658  17.872  0.00  0.00    +0.000 A 
ATOM     10  C   UNL     1       4.067   6.502  17.989  0.00  0.00    +0.000 A 
ATOM     11  C   UNL     1       3.050   6.236  18.922  0.00  0.00    +0.000 A 
BRANCH   6  13
ATOM     12  C   UNL     1       1.054   4.093  20.264  0.00  0.00    +0.000 C 
ATOM     13  O   UNL     1       2.195   4.842  20.682  0.00  0.00    +0.000 OA
ENDBRANCH   6  13
BRANCH  11  14
ATOM     14  O   UNL     1       2.076   7.202  18.911  0.00  0.00    +0.000 OA
ATOM     15  C   UNL     1       2.291   8.396  18.176  0.00  0.00    +0.000 C 
ENDBRANCH  11  14
ENDBRANCH   3   9
ENDBRANCH   1   3
BRANCH   1  16
ATOM     16  C   UNL     1       8.063   8.129  17.760  0.00  0.00    +0.000 C 
BRANCH  16  17
ATOM     17  C   UNL     1       8.331   9.614  17.628  0.00  0.00    +0.000 C 
BRANCH  17  18
ATOM     18  C   UNL     1       9.188  10.368  18.608  0.00  0.00    +0.000 A 
ATOM     19  C   UNL     1       9.107  10.103  19.970  0.00  0.00    +0.000 A 
ATOM     20  N   UNL     1       9.297  11.328  20.535  0.00  0.00    +0.000 N 
ATOM     21  C   UNL     1      10.298  11.932  19.830  0.00  0.00    +0.000 A 
ATOM     22  C   UNL     1      11.218  12.908  20.233  0.00  0.00    +0.000 A 
ATOM     23  C   UNL     1      12.130  13.331  19.272  0.00  0.00    +0.000 A 
ATOM     24  C   UNL     1      12.034  12.883  17.957  0.00  0.00    +0.000 A 
ATOM     25  C   UNL     1      11.035  11.966  17.554  0.00  0.00    +0.000 A 
ATOM     26  C   UNL     1      10.192  11.405  18.533  0.00  0.00    +0.000 A 
ATOM     27  H   UNL     1       8.804  11.713  21.330  0.00  0.00    +0.000 HD
ENDBRANCH  17  18
ENDBRANCH  16  17
ENDBRANCH   1  16
TORSDOF 7
ENDMDL
MODEL 8
REMARK VINA RESULT:      -7.6      3.850      7.197
REMARK  Name = 
REMARK  9 active torsions:
REMARK  status: ('A' for Active; 'I' for Inactive)
REMARK    1  A    between atoms: C_1  and  O_2
REMARK    2  A    between atoms: O_2  and  C_3
REMARK    3  A    between atoms: C_6  and  S_7
REMARK    4  A    between atoms: S_7  and  N_10
REMARK    5  A    between atoms: N_10  and  C_11
REMARK    6  A    between atoms: C_11  and  C_12
REMARK    7  A    between atoms: C_12  and  C_13
REMARK    8  A    between atoms: C_23  and  O_24
REMARK    9  A    between atoms: O_24  and  C_25
REMARK                            x       y       z     vdW  Elec       q    Type
REMARK                         _______ _______ _______ _____ _____    ______ ____
ROOT
ATOM      1  N   UNL     1       3.059   3.532  20.298  0.00  0.00    +0.000 NA
ATOM      2  H   UNL     1       3.421   3.706  21.234  0.00  0.00    +0.000 HD
ENDROOT
BRANCH   1   3
ATOM      3  S   UNL     1       4.128   2.807  19.238  0.00  0.00    +0.000 S 
ATOM      4  O   UNL     1       3.337   2.208  18.175  0.00  0.00    +0.000 OA
ATOM      5  O   UNL     1       5.066   2.012  20.037  0.00  0.00    +0.000 OA
BRANCH   3   9
ATOM      6  C   UNL     1       6.574   6.155  17.330  0.00  0.00    +0.000 A 
ATOM      7  C   UNL     1       6.445   6.090  18.733  0.00  0.00    +0.000 A 
ATOM      8  C   UNL     1       5.675   5.082  19.340  0.00  0.00    +0.000 A 
ATOM      9  C   UNL     1       5.005   4.166  18.539  0.00  0.00    +0.000 A 
ATOM     10  C   UNL     1       5.051   4.289  17.144  0.00  0.00    +0.000 A 
ATOM     11  C   UNL     1       5.842   5.274  16.529  0.00  0.00    +0.000 A 
BRANCH   6  13
ATOM     12  C   UNL     1       7.834   8.161  17.595  0.00  0.00    +0.000 C 
ATOM     13  O   UNL     1       7.397   7.092  16.754  0.00  0.00    +0.000 OA
ENDBRANCH   6  13
BRANCH  11  14
ATOM     14  O   UNL     1       5.787   5.199  15.160  0.00  0.00    +0.000 OA
ATOM     15  C   UNL     1       5.624   3.933  14.541  0.00  0.00    +0.000 C 
ENDBRANCH  11  14
ENDBRANCH   3   9
ENDBRANCH   1   3
BRANCH   1  16
ATOM     16  C   UNL     1       2.005   4.398  19.772  0.00  0.00    +0.000 C 
BRANCH  16  17
ATOM     17  C   UNL     1       2.120   5.826  20.263  0.00  0.00    +0.000 C 
BRANCH  17  18
ATOM     18  C   UNL     1       2.074   7.005  19.329  0.00  0.00    +0.000 A 
ATOM     19  C   UNL     1       2.471   6.876  18.004  0.00  0.00    +0.000 A 
ATOM     20  N   UNL     1       3.054   8.077  17.737  0.00  0.00    +0.000 N 
ATOM     21  C   UNL     1       2.265   9.031  18.313  0.00  0.00    +0.000 A 
ATOM     22  C   UNL     1       2.078  10.373  17.962  0.00  0.00    +0.000 A 
ATOM     23  C   UNL     1       1.197  11.101  18.755  0.00  0.00    +0.000 A 
ATOM     24  C   UNL     1       0.640  10.536  19.900  0.00  0.00    +0.000 A 
ATOM     25  C   UNL     1       0.920   9.204  20.284  0.00  0.00    +0.000 A 
ATOM     26  C   UNL     1       1.687   8.395  19.423  0.00  0.00    +0.000 A 
ATOM     27  H   UNL     1       3.899   8.236  17.204  0.00  0.00    +0.000 HD
ENDBRANCH  17  18
ENDBRANCH  16  17
ENDBRANCH   1  16
TORSDOF 7
ENDMDL
MODEL 9
REMARK VINA RESULT:      -7.5      4.286      7.320
REMARK  Name = 
REMARK  9 active torsions:
REMARK  status: ('A' for Active; 'I' for Inactive)
REMARK    1  A    between atoms: C_1  and  O_2
REMARK    2  A    between atoms: O_2  and  C_3
REMARK    3  A    between atoms: C_6  and  S_7
REMARK    4  A    between atoms: S_7  and  N_10
REMARK    5  A    between atoms: N_10  and  C_11
REMARK    6  A    between atoms: C_11  and  C_12
REMARK    7  A    between atoms: C_12  and  C_13
REMARK    8  A    between atoms: C_23  and  O_24
REMARK    9  A    between atoms: O_24  and  C_25
REMARK                            x       y       z     vdW  Elec       q    Type
REMARK                         _______ _______ _______ _____ _____    ______ ____
ROOT
ATOM      1  N   UNL     1       1.950   3.636  18.899  0.00  0.00    +0.000 NA
ATOM      2  H   UNL     1       1.374   3.391  18.094  0.00  0.00    +0.000 HD
ENDROOT
BRANCH   1   3
ATOM      3  S   UNL     1       3.440   2.884  18.970  0.00  0.00    +0.000 S 
ATOM      4  O   UNL     1       3.416   1.795  18.008  0.00  0.00    +0.000 OA
ATOM      5  O   UNL     1       3.747   2.651  20.385  0.00  0.00    +0.000 OA
BRANCH   3   9
ATOM      6  C   UNL     1       6.454   5.855  17.260  0.00  0.00    +0.000 A 
ATOM      7  C   UNL     1       6.333   5.700  18.657  0.00  0.00    +0.000 A 
ATOM      8  C   UNL     1       5.394   4.810  19.204  0.00  0.00    +0.000 A 
ATOM      9  C   UNL     1       4.550   4.106  18.355  0.00  0.00    +0.000 A 
ATOM     10  C   UNL     1       4.600   4.332  16.972  0.00  0.00    +0.000 A 
ATOM     11  C   UNL     1       5.557   5.198  16.414  0.00  0.00    +0.000 A 
BRANCH   6  13
ATOM     12  C   UNL     1       7.733   7.856  17.462  0.00  0.00    +0.000 C 
ATOM     13  O   UNL     1       7.432   6.664  16.735  0.00  0.00    +0.000 OA
ENDBRANCH   6  13
BRANCH  11  14
ATOM     14  O   UNL     1       5.469   5.247  15.045  0.00  0.00    +0.000 OA
ATOM     15  C   UNL     1       6.370   4.479  14.264  0.00  0.00    +0.000 C 
ENDBRANCH  11  14
ENDBRANCH   3   9
ENDBRANCH   1   3
BRANCH   1  16
ATOM     16  C   UNL     1       1.297   4.052  20.140  0.00  0.00    +0.000 C 
BRANCH  16  17
ATOM     17  C   UNL     1       2.057   5.144  20.864  0.00  0.00    +0.000 C 
BRANCH  17  18
ATOM     18  C   UNL     1       1.845   6.604  20.569  0.00  0.00    +0.000 A 
ATOM     19  C   UNL     1       1.316   7.452  21.534  0.00  0.00    +0.000 A 
ATOM     20  N   UNL     1       0.558   8.318  20.804  0.00  0.00    +0.000 N 
ATOM     21  C   UNL     1       1.282   8.624  19.687  0.00  0.00    +0.000 A 
ATOM     22  C   UNL     1       1.257   9.772  18.888  0.00  0.00    +0.000 A 
ATOM     23  C   UNL     1       2.126   9.788  17.802  0.00  0.00    +0.000 A 
ATOM     24  C   UNL     1       2.879   8.661  17.480  0.00  0.00    +0.000 A 
ATOM     25  C   UNL     1       2.816   7.478  18.252  0.00  0.00    +0.000 A 
ATOM     26  C   UNL     1       2.061   7.482  19.442  0.00  0.00    +0.000 A 
ATOM     27  H   UNL     1      -0.356   8.676  21.045  0.00  0.00    +0.000 HD
ENDBRANCH  17  18
ENDBRANCH  16  17
ENDBRANCH   1  16
TORSDOF 7
ENDMDL
