MODEL 1
REMARK VINA RESULT:      -8.5      0.000      0.000
REMARK  Name = 
REMARK  9 active torsions:
REMARK  status: ('A' for Active; 'I' for Inactive)
REMARK    1  A    between atoms: C_1  and  C_2
REMARK    2  A    between atoms: C_2  and  C_3
REMARK    3  A    between atoms: C_6  and  N_7
REMARK    4  A    between atoms: C_8  and  C_10
REMARK    5  A    between atoms: C_10  and  N_11
REMARK    6  A    between atoms: C_10  and  C_12
REMARK    7  A    between atoms: C_21  and  C_22
REMARK    8  A    between atoms: C_22  and  O_24
REMARK    9  A    between atoms: O_24  and  C_25
REMARK                            x       y       z     vdW  Elec       q    Type
REMARK                         _______ _______ _______ _____ _____    ______ ____
ROOT
ATOM      1  C   UNL     1       0.489   2.746  19.092  0.00  0.00    +0.000 C 
ATOM      2  C   UNL     1       1.640   3.508  19.756  0.00  0.00    +0.000 C 
ATOM      3  C   UNL     1       2.168   2.723  20.962  0.00  0.00    +0.000 C 
ATOM      4  S   UNL     1       0.877   5.059  20.451  0.00  0.00    +0.000 S 
ATOM      5  C   UNL     1       2.496   5.906  20.452  0.00  0.00    +0.000 C 
ATOM      6  C   UNL     1       2.587   7.294  19.770  0.00  0.00    +0.000 C 
ATOM      7  C   UNL     1       3.022   6.459  18.532  0.00  0.00    +0.000 C 
ATOM      8  O   UNL     1       3.081   6.626  17.334  0.00  0.00    +0.000 OA
ATOM      9  N   UNL     1       3.210   5.318  19.284  0.00  0.00    +0.000 N 
ATOM     10  C   UNL     1       2.732   4.014  18.759  0.00  0.00    +0.000 C 
ENDROOT
BRANCH   6  11
ATOM     11  N   UNL     1       1.340   8.116  19.693  0.00  0.00    +0.000 N 
ATOM     12  C   UNL     1       1.288   9.282  18.938  0.00  0.00    +0.000 C 
ATOM     13  O   UNL     1       2.277   9.679  18.320  0.00  0.00    +0.000 OA
ATOM     14  H   UNL     1       0.452   7.800  20.080  0.00  0.00    +0.000 HD
BRANCH  12  15
ATOM     15  C   UNL     1      -0.064  10.060  19.027  0.00  0.00    +0.000 C 
BRANCH  15  16
ATOM     16  C   UNL     1      -0.514  10.454  20.430  0.00  0.00    +0.000 A 
ATOM     17  C   UNL     1      -1.208  11.665  20.620  0.00  0.00    +0.000 A 
ATOM     18  C   UNL     1      -1.608  12.072  21.896  0.00  0.00    +0.000 A 
ATOM     19  C   UNL     1      -1.311  11.287  23.004  0.00  0.00    +0.000 A 
ATOM     20  C   UNL     1      -0.612  10.091  22.840  0.00  0.00    +0.000 A 
ATOM     21  C   UNL     1      -0.211   9.685  21.565  0.00  0.00    +0.000 A 
ENDBRANCH  15  16
BRANCH  15  22
ATOM     22  N   UNL     1      -0.031  11.256  18.145  0.00  0.00    +0.000 NA
ATOM     23  H   UNL     1       0.157  12.068  18.737  0.00  0.00    +0.000 HD
ATOM     24  H   UNL     1      -0.985  11.409  17.811  0.00  0.00    +0.000 HD
ENDBRANCH  15  22
ENDBRANCH  12  15
ENDBRANCH   6  11
BRANCH  10  25
ATOM     25  C   UNL     1       3.835   2.966  18.337  0.00  0.00    +0.000 C 
ATOM     26  O   UNL     1       3.597   1.960  17.679  0.00  0.00    +0.000 OA
BRANCH  25  27
ATOM     27  O   UNL     1       5.096   3.364  18.658  0.00  0.00    +0.000 OA
BRANCH  27  28
ATOM     28  C   UNL     1       5.923   4.129  17.743  0.00  0.00    +0.000 C 
ATOM     29  O   UNL     1       5.278   4.437  16.486  0.00  0.00    +0.000 OA
ATOM     30  C   UNL     1       5.783   5.587  15.946  0.00  0.00    +0.000 C 
ATOM     31  O   UNL     1       5.622   5.988  14.809  0.00  0.00    +0.000 OA
ATOM     32  C   UNL     1       6.591   6.228  16.975  0.00  0.00    +0.000 A 
ATOM     33  C   UNL     1       7.295   7.424  16.861  0.00  0.00    +0.000 A 
ATOM     34  C   UNL     1       8.109   7.801  17.925  0.00  0.00    +0.000 A 
ATOM     35  C   UNL     1       8.202   6.963  19.047  0.00  0.00    +0.000 A 
ATOM     36  C   UNL     1       7.478   5.756  19.135  0.00  0.00    +0.000 A 
ATOM     37  C   UNL     1       6.644   5.397  18.087  0.00  0.00    +0.000 A 
ENDBRANCH  27  28
ENDBRANCH  25  27
ENDBRANCH  10  25
TORSDOF 7
ENDMDL
MODEL 2
REMARK VINA RESULT:      -8.5      1.333      2.046
REMARK  Name = 
REMARK  9 active torsions:
REMARK  status: ('A' for Active; 'I' for Inactive)
REMARK    1  A    between atoms: C_1  and  C_2
REMARK    2  A    between atoms: C_2  and  C_3
REMARK    3  A    between atoms: C_6  and  N_7
REMARK    4  A    between atoms: C_8  and  C_10
REMARK    5  A    between atoms: C_10  and  N_11
REMARK    6  A    between atoms: C_10  and  C_12
REMARK    7  A    between atoms: C_21  and  C_22
REMARK    8  A    between atoms: C_22  and  O_24
REMARK    9  A    between atoms: O_24  and  C_25
REMARK                            x       y       z     vdW  Elec       q    Type
REMARK                         _______ _______ _______ _____ _____    ______ ____
ROOT
ATOM      1  C   UNL     1       0.567   2.866  19.567  0.00  0.00    +0.000 C 
ATOM      2  C   UNL     1       1.856   3.649  19.841  0.00  0.00    +0.000 C 
ATOM      3  C   UNL     1       2.754   2.869  20.807  0.00  0.00    +0.000 C 
ATOM      4  S   UNL     1       1.322   5.178  20.761  0.00  0.00    +0.000 S 
ATOM      5  C   UNL     1       2.841   6.062  20.260  0.00  0.00    +0.000 C 
ATOM      6  C   UNL     1       2.684   7.455  19.602  0.00  0.00    +0.000 C 
ATOM      7  C   UNL     1       2.720   6.638  18.279  0.00  0.00    +0.000 C 
ATOM      8  O   UNL     1       2.392   6.814  17.127  0.00  0.00    +0.000 OA
ATOM      9  N   UNL     1       3.159   5.496  18.918  0.00  0.00    +0.000 N 
ATOM     10  C   UNL     1       2.564   4.185  18.555  0.00  0.00    +0.000 C 
ENDROOT
BRANCH   6  11
ATOM     11  N   UNL     1       1.461   8.250  19.935  0.00  0.00    +0.000 N 
ATOM     12  C   UNL     1       1.173   9.441  19.281  0.00  0.00    +0.000 C 
ATOM     13  O   UNL     1       1.927   9.884  18.413  0.00  0.00    +0.000 OA
ATOM     14  H   UNL     1       0.734   7.898  20.555  0.00  0.00    +0.000 HD
BRANCH  12  15
ATOM     15  C   UNL     1      -0.100  10.183  19.801  0.00  0.00    +0.000 C 
BRANCH  15  16
ATOM     16  C   UNL     1      -1.186  10.448  18.763  0.00  0.00    +0.000 A 
ATOM     17  C   UNL     1      -2.177  11.413  19.029  0.00  0.00    +0.000 A 
ATOM     18  C   UNL     1      -3.204  11.660  18.114  0.00  0.00    +0.000 A 
ATOM     19  C   UNL     1      -3.268  10.941  16.926  0.00  0.00    +0.000 A 
ATOM     20  C   UNL     1      -2.305   9.971  16.649  0.00  0.00    +0.000 A 
ATOM     21  C   UNL     1      -1.279   9.722  17.564  0.00  0.00    +0.000 A 
ENDBRANCH  15  16
BRANCH  15  22
ATOM     22  N   UNL     1      -0.673   9.468  20.971  0.00  0.00    +0.000 NA
ATOM     23  H   UNL     1      -1.047   8.578  20.633  0.00  0.00    +0.000 HD
ATOM     24  H   UNL     1      -1.502   9.989  21.264  0.00  0.00    +0.000 HD
ENDBRANCH  15  22
ENDBRANCH  12  15
ENDBRANCH   6  11
BRANCH  10  25
ATOM     25  C   UNL     1       3.496   3.165  17.792  0.00  0.00    +0.000 C 
ATOM     26  O   UNL     1       3.086   2.368  16.957  0.00  0.00    +0.000 OA
BRANCH  25  27
ATOM     27  O   UNL     1       4.818   3.356  18.053  0.00  0.00    +0.000 OA
BRANCH  27  28
ATOM     28  C   UNL     1       5.635   4.277  17.284  0.00  0.00    +0.000 C 
ATOM     29  O   UNL     1       4.933   4.909  16.190  0.00  0.00    +0.000 OA
ATOM     30  C   UNL     1       5.479   6.129  15.899  0.00  0.00    +0.000 C 
ATOM     31  O   UNL     1       5.273   6.799  14.905  0.00  0.00    +0.000 OA
ATOM     32  C   UNL     1       6.391   6.463  16.985  0.00  0.00    +0.000 A 
ATOM     33  C   UNL     1       7.164   7.615  17.103  0.00  0.00    +0.000 A 
ATOM     34  C   UNL     1       8.067   7.684  18.161  0.00  0.00    +0.000 A 
ATOM     35  C   UNL     1       8.174   6.597  19.042  0.00  0.00    +0.000 A 
ATOM     36  C   UNL     1       7.378   5.442  18.898  0.00  0.00    +0.000 A 
ATOM     37  C   UNL     1       6.459   5.387  17.862  0.00  0.00    +0.000 A 
ENDBRANCH  27  28
ENDBRANCH  25  27
ENDBRANCH  10  25
TORSDOF 7
ENDMDL
MODEL 3
REMARK VINA RESULT:      -8.4      0.991      1.326
REMARK  Name = 
REMARK  9 active torsions:
REMARK  status: ('A' for Active; 'I' for Inactive)
REMARK    1  A    between atoms: C_1  and  C_2
REMARK    2  A    between atoms: C_2  and  C_3
REMARK    3  A    between atoms: C_6  and  N_7
REMARK    4  A    between atoms: C_8  and  C_10
REMARK    5  A    between atoms: C_10  and  N_11
REMARK    6  A    between atoms: C_10  and  C_12
REMARK    7  A    between atoms: C_21  and  C_22
REMARK    8  A    between atoms: C_22  and  O_24
REMARK    9  A    between atoms: O_24  and  C_25
REMARK                            x       y       z     vdW  Elec       q    Type
REMARK                         _______ _______ _______ _____ _____    ______ ____
ROOT
ATOM      1  C   UNL     1       0.552   2.725  18.711  0.00  0.00    +0.000 C 
ATOM      2  C   UNL     1       1.600   3.387  19.612  0.00  0.00    +0.000 C 
ATOM      3  C   UNL     1       1.954   2.459  20.780  0.00  0.00    +0.000 C 
ATOM      4  S   UNL     1       0.747   4.859  20.370  0.00  0.00    +0.000 S 
ATOM      5  C   UNL     1       2.350   5.675  20.694  0.00  0.00    +0.000 C 
ATOM      6  C   UNL     1       2.535   7.130  20.197  0.00  0.00    +0.000 C 
ATOM      7  C   UNL     1       3.139   6.437  18.943  0.00  0.00    +0.000 C 
ATOM      8  O   UNL     1       3.363   6.740  17.792  0.00  0.00    +0.000 OA
ATOM      9  N   UNL     1       3.220   5.213  19.575  0.00  0.00    +0.000 N 
ATOM     10  C   UNL     1       2.820   3.986  18.841  0.00  0.00    +0.000 C 
ENDROOT
BRANCH   6  11
ATOM     11  N   UNL     1       1.311   7.976  20.045  0.00  0.00    +0.000 N 
ATOM     12  C   UNL     1       0.962   8.921  21.001  0.00  0.00    +0.000 C 
ATOM     13  O   UNL     1       1.648   9.080  22.013  0.00  0.00    +0.000 OA
ATOM     14  H   UNL     1       0.757   7.986  19.190  0.00  0.00    +0.000 HD
BRANCH  12  15
ATOM     15  C   UNL     1      -0.384   9.665  20.727  0.00  0.00    +0.000 C 
BRANCH  15  16
ATOM     16  C   UNL     1      -0.573  10.989  21.461  0.00  0.00    +0.000 A 
ATOM     17  C   UNL     1      -1.266  11.008  22.688  0.00  0.00    +0.000 A 
ATOM     18  C   UNL     1      -1.484  12.207  23.372  0.00  0.00    +0.000 A 
ATOM     19  C   UNL     1      -1.028  13.407  22.839  0.00  0.00    +0.000 A 
ATOM     20  C   UNL     1      -0.353  13.413  21.619  0.00  0.00    +0.000 A 
ATOM     21  C   UNL     1      -0.137  12.216  20.933  0.00  0.00    +0.000 A 
ENDBRANCH  15  16
BRANCH  15  22
ATOM     22  N   UNL     1      -0.581   9.856  19.267  0.00  0.00    +0.000 NA
ATOM     23  H   UNL     1       0.340  10.016  18.851  0.00  0.00    +0.000 HD
ATOM     24  H   UNL     1      -1.065  10.748  19.143  0.00  0.00    +0.000 HD
ENDBRANCH  15  22
ENDBRANCH  12  15
ENDBRANCH   6  11
BRANCH  10  25
ATOM     25  C   UNL     1       3.971   2.977  18.457  0.00  0.00    +0.000 C 
ATOM     26  O   UNL     1       3.785   1.951  17.812  0.00  0.00    +0.000 OA
BRANCH  25  27
ATOM     27  O   UNL     1       5.209   3.430  18.793  0.00  0.00    +0.000 OA
BRANCH  27  28
ATOM     28  C   UNL     1       6.033   4.189  17.872  0.00  0.00    +0.000 C 
ATOM     29  O   UNL     1       5.382   4.494  16.618  0.00  0.00    +0.000 OA
ATOM     30  C   UNL     1       5.888   5.640  16.070  0.00  0.00    +0.000 C 
ATOM     31  O   UNL     1       5.722   6.038  14.933  0.00  0.00    +0.000 OA
ATOM     32  C   UNL     1       6.705   6.282  17.093  0.00  0.00    +0.000 A 
ATOM     33  C   UNL     1       7.412   7.475  16.970  0.00  0.00    +0.000 A 
ATOM     34  C   UNL     1       8.234   7.853  18.029  0.00  0.00    +0.000 A 
ATOM     35  C   UNL     1       8.330   7.018  19.152  0.00  0.00    +0.000 A 
ATOM     36  C   UNL     1       7.602   5.814  19.249  0.00  0.00    +0.000 A 
ATOM     37  C   UNL     1       6.761   5.455  18.208  0.00  0.00    +0.000 A 
ENDBRANCH  27  28
ENDBRANCH  25  27
ENDBRANCH  10  25
TORSDOF 7
ENDMDL
MODEL 4
REMARK VINA RESULT:      -8.3      1.035      1.489
REMARK  Name = 
REMARK  9 active torsions:
REMARK  status: ('A' for Active; 'I' for Inactive)
REMARK    1  A    between atoms: C_1  and  C_2
REMARK    2  A    between atoms: C_2  and  C_3
REMARK    3  A    between atoms: C_6  and  N_7
REMARK    4  A    between atoms: C_8  and  C_10
REMARK    5  A    between atoms: C_10  and  N_11
REMARK    6  A    between atoms: C_10  and  C_12
REMARK    7  A    between atoms: C_21  and  C_22
REMARK    8  A    between atoms: C_22  and  O_24
REMARK    9  A    between atoms: O_24  and  C_25
REMARK                            x       y       z     vdW  Elec       q    Type
REMARK                         _______ _______ _______ _____ _____    ______ ____
ROOT
ATOM      1  C   UNL     1       0.649   2.719  19.247  0.00  0.00    +0.000 C 
ATOM      2  C   UNL     1       1.784   3.540  19.867  0.00  0.00    +0.000 C 
ATOM      3  C   UNL     1       2.329   2.834  21.113  0.00  0.00    +0.000 C 
ATOM      4  S   UNL     1       0.987   5.110  20.477  0.00  0.00    +0.000 S 
ATOM      5  C   UNL     1       2.587   5.991  20.429  0.00  0.00    +0.000 C 
ATOM      6  C   UNL     1       2.647   7.341  19.672  0.00  0.00    +0.000 C 
ATOM      7  C   UNL     1       3.100   6.450  18.481  0.00  0.00    +0.000 C 
ATOM      8  O   UNL     1       3.155   6.553  17.276  0.00  0.00    +0.000 OA
ATOM      9  N   UNL     1       3.314   5.356  19.294  0.00  0.00    +0.000 N 
ATOM     10  C   UNL     1       2.864   4.015  18.841  0.00  0.00    +0.000 C 
ENDROOT
BRANCH   6  11
ATOM     11  N   UNL     1       1.382   8.131  19.553  0.00  0.00    +0.000 N 
ATOM     12  C   UNL     1       1.306   9.256  18.741  0.00  0.00    +0.000 C 
ATOM     13  O   UNL     1       2.288   9.644  18.105  0.00  0.00    +0.000 OA
ATOM     14  H   UNL     1       0.501   7.814  19.954  0.00  0.00    +0.000 HD
BRANCH  12  15
ATOM     15  C   UNL     1      -0.063  10.007  18.788  0.00  0.00    +0.000 C 
BRANCH  15  16
ATOM     16  C   UNL     1      -0.019  11.436  19.320  0.00  0.00    +0.000 A 
ATOM     17  C   UNL     1       0.422  11.671  20.637  0.00  0.00    +0.000 A 
ATOM     18  C   UNL     1       0.446  12.964  21.168  0.00  0.00    +0.000 A 
ATOM     19  C   UNL     1       0.019  14.041  20.400  0.00  0.00    +0.000 A 
ATOM     20  C   UNL     1      -0.435  13.829  19.098  0.00  0.00    +0.000 A 
ATOM     21  C   UNL     1      -0.461  12.537  18.568  0.00  0.00    +0.000 A 
ENDBRANCH  15  16
BRANCH  15  22
ATOM     22  N   UNL     1      -0.715   9.977  17.453  0.00  0.00    +0.000 NA
ATOM     23  H   UNL     1      -1.095  10.909  17.276  0.00  0.00    +0.000 HD
ATOM     24  H   UNL     1      -1.544   9.384  17.538  0.00  0.00    +0.000 HD
ENDBRANCH  15  22
ENDBRANCH  12  15
ENDBRANCH   6  11
BRANCH  10  25
ATOM     25  C   UNL     1       3.990   2.970  18.476  0.00  0.00    +0.000 C 
ATOM     26  O   UNL     1       3.779   1.939  17.848  0.00  0.00    +0.000 OA
BRANCH  25  27
ATOM     27  O   UNL     1       5.238   3.397  18.806  0.00  0.00    +0.000 OA
BRANCH  27  28
ATOM     28  C   UNL     1       6.072   4.143  17.882  0.00  0.00    +0.000 C 
ATOM     29  O   UNL     1       5.449   4.394  16.602  0.00  0.00    +0.000 OA
ATOM     30  C   UNL     1       5.948   5.532  16.030  0.00  0.00    +0.000 C 
ATOM     31  O   UNL     1       5.804   5.889  14.876  0.00  0.00    +0.000 OA
ATOM     32  C   UNL     1       6.724   6.223  17.052  0.00  0.00    +0.000 A 
ATOM     33  C   UNL     1       7.411   7.425  16.908  0.00  0.00    +0.000 A 
ATOM     34  C   UNL     1       8.197   7.854  17.975  0.00  0.00    +0.000 A 
ATOM     35  C   UNL     1       8.279   7.058  19.128  0.00  0.00    +0.000 A 
ATOM     36  C   UNL     1       7.572   5.844  19.245  0.00  0.00    +0.000 A 
ATOM     37  C   UNL     1       6.766   5.434  18.194  0.00  0.00    +0.000 A 
ENDBRANCH  27  28
ENDBRANCH  25  27
ENDBRANCH  10  25
TORSDOF 7
ENDMDL
MODEL 5
REMARK VINA RESULT:      -8.3      1.490      2.420
REMARK  Name = 
REMARK  9 active torsions:
REMARK  status: ('A' for Active; 'I' for Inactive)
REMARK    1  A    between atoms: C_1  and  C_2
REMARK    2  A    between atoms: C_2  and  C_3
REMARK    3  A    between atoms: C_6  and  N_7
REMARK    4  A    between atoms: C_8  and  C_10
REMARK    5  A    between atoms: C_10  and  N_11
REMARK    6  A    between atoms: C_10  and  C_12
REMARK    7  A    between atoms: C_21  and  C_22
REMARK    8  A    between atoms: C_22  and  O_24
REMARK    9  A    between atoms: O_24  and  C_25
REMARK                            x       y       z     vdW  Elec       q    Type
REMARK                         _______ _______ _______ _____ _____    ______ ____
ROOT
ATOM      1  C   UNL     1       0.959   2.755  18.999  0.00  0.00    +0.000 C 
ATOM      2  C   UNL     1       1.982   3.644  19.713  0.00  0.00    +0.000 C 
ATOM      3  C   UNL     1       2.548   2.919  20.940  0.00  0.00    +0.000 C 
ATOM      4  S   UNL     1       1.011   5.088  20.376  0.00  0.00    +0.000 S 
ATOM      5  C   UNL     1       2.515   6.122  20.448  0.00  0.00    +0.000 C 
ATOM      6  C   UNL     1       2.470   7.515  19.772  0.00  0.00    +0.000 C 
ATOM      7  C   UNL     1       3.053   6.746  18.553  0.00  0.00    +0.000 C 
ATOM      8  O   UNL     1       3.142   6.927  17.359  0.00  0.00    +0.000 OA
ATOM      9  N   UNL     1       3.344   5.630  19.311  0.00  0.00    +0.000 N 
ATOM     10  C   UNL     1       3.047   4.282  18.764  0.00  0.00    +0.000 C 
ENDROOT
BRANCH   6  11
ATOM     11  N   UNL     1       1.137   8.184  19.644  0.00  0.00    +0.000 N 
ATOM     12  C   UNL     1       1.014   9.446  19.075  0.00  0.00    +0.000 C 
ATOM     13  O   UNL     1       2.005  10.057  18.672  0.00  0.00    +0.000 OA
ATOM     14  H   UNL     1       0.263   7.703  19.846  0.00  0.00    +0.000 HD
BRANCH  12  15
ATOM     15  C   UNL     1      -0.435  10.031  19.086  0.00  0.00    +0.000 C 
BRANCH  15  16
ATOM     16  C   UNL     1      -0.791  10.903  20.286  0.00  0.00    +0.000 A 
ATOM     17  C   UNL     1      -1.382  12.164  20.073  0.00  0.00    +0.000 A 
ATOM     18  C   UNL     1      -1.693  13.002  21.148  0.00  0.00    +0.000 A 
ATOM     19  C   UNL     1      -1.408  12.604  22.449  0.00  0.00    +0.000 A 
ATOM     20  C   UNL     1      -0.810  11.366  22.680  0.00  0.00    +0.000 A 
ATOM     21  C   UNL     1      -0.497  10.528  21.607  0.00  0.00    +0.000 A 
ENDBRANCH  15  16
BRANCH  15  22
ATOM     22  N   UNL     1      -0.706  10.763  17.822  0.00  0.00    +0.000 NA
ATOM     23  H   UNL     1      -0.488  10.130  17.048  0.00  0.00    +0.000 HD
ATOM     24  H   UNL     1      -0.002  11.500  17.745  0.00  0.00    +0.000 HD
ENDBRANCH  15  22
ENDBRANCH  12  15
ENDBRANCH   6  11
BRANCH  10  25
ATOM     25  C   UNL     1       4.284   3.376  18.388  0.00  0.00    +0.000 C 
ATOM     26  O   UNL     1       4.938   2.749  19.212  0.00  0.00    +0.000 OA
BRANCH  25  27
ATOM     27  O   UNL     1       4.464   3.253  17.045  0.00  0.00    +0.000 OA
BRANCH  27  28
ATOM     28  C   UNL     1       5.063   4.304  16.244  0.00  0.00    +0.000 C 
ATOM     29  O   UNL     1       5.975   5.153  16.978  0.00  0.00    +0.000 OA
ATOM     30  C   UNL     1       6.922   5.685  16.147  0.00  0.00    +0.000 C 
ATOM     31  O   UNL     1       7.681   6.601  16.402  0.00  0.00    +0.000 OA
ATOM     32  C   UNL     1       6.829   4.976  14.877  0.00  0.00    +0.000 A 
ATOM     33  C   UNL     1       7.605   5.192  13.741  0.00  0.00    +0.000 A 
ATOM     34  C   UNL     1       7.272   4.490  12.586  0.00  0.00    +0.000 A 
ATOM     35  C   UNL     1       6.171   3.621  12.607  0.00  0.00    +0.000 A 
ATOM     36  C   UNL     1       5.402   3.422  13.772  0.00  0.00    +0.000 A 
ATOM     37  C   UNL     1       5.754   4.099  14.929  0.00  0.00    +0.000 A 
ENDBRANCH  27  28
ENDBRANCH  25  27
ENDBRANCH  10  25
TORSDOF 7
ENDMDL
MODEL 6
REMARK VINA RESULT:      -8.3      3.239      8.194
REMARK  Name = 
REMARK  9 active torsions:
REMARK  status: ('A' for Active; 'I' for Inactive)
REMARK    1  A    between atoms: C_1  and  C_2
REMARK    2  A    between atoms: C_2  and  C_3
REMARK    3  A    between atoms: C_6  and  N_7
REMARK    4  A    between atoms: C_8  and  C_10
REMARK    5  A    between atoms: C_10  and  N_11
REMARK    6  A    between atoms: C_10  and  C_12
REMARK    7  A    between atoms: C_21  and  C_22
REMARK    8  A    between atoms: C_22  and  O_24
REMARK    9  A    between atoms: O_24  and  C_25
REMARK                            x       y       z     vdW  Elec       q    Type
REMARK                         _______ _______ _______ _____ _____    ______ ____
ROOT
ATOM      1  C   UNL     1       2.300   2.180  18.275  0.00  0.00    +0.000 C 
ATOM      2  C   UNL     1       2.467   3.703  18.227  0.00  0.00    +0.000 C 
ATOM      3  C   UNL     1       1.111   4.377  17.996  0.00  0.00    +0.000 C 
ATOM      4  S   UNL     1       3.475   4.045  16.699  0.00  0.00    +0.000 S 
ATOM      5  C   UNL     1       4.021   5.656  17.367  0.00  0.00    +0.000 C 
ATOM      6  C   UNL     1       5.541   5.955  17.384  0.00  0.00    +0.000 C 
ATOM      7  C   UNL     1       5.457   5.381  18.827  0.00  0.00    +0.000 C 
ATOM      8  O   UNL     1       6.232   4.927  19.640  0.00  0.00    +0.000 OA
ATOM      9  N   UNL     1       4.079   5.432  18.840  0.00  0.00    +0.000 N 
ATOM     10  C   UNL     1       3.314   4.291  19.402  0.00  0.00    +0.000 C 
ENDROOT
BRANCH   6  11
ATOM     11  N   UNL     1       6.399   5.263  16.372  0.00  0.00    +0.000 N 
ATOM     12  C   UNL     1       6.334   5.592  15.024  0.00  0.00    +0.000 C 
ATOM     13  O   UNL     1       5.554   6.457  14.621  0.00  0.00    +0.000 OA
ATOM     14  H   UNL     1       7.145   4.622  16.636  0.00  0.00    +0.000 HD
BRANCH  12  15
ATOM     15  C   UNL     1       7.240   4.724  14.093  0.00  0.00    +0.000 C 
BRANCH  15  16
ATOM     16  C   UNL     1       6.508   3.850  13.080  0.00  0.00    +0.000 A 
ATOM     17  C   UNL     1       7.250   3.015  12.222  0.00  0.00    +0.000 A 
ATOM     18  C   UNL     1       6.614   2.224  11.261  0.00  0.00    +0.000 A 
ATOM     19  C   UNL     1       5.231   2.262  11.130  0.00  0.00    +0.000 A 
ATOM     20  C   UNL     1       4.478   3.092  11.960  0.00  0.00    +0.000 A 
ATOM     21  C   UNL     1       5.113   3.885  12.919  0.00  0.00    +0.000 A 
ENDBRANCH  15  16
BRANCH  15  22
ATOM     22  N   UNL     1       8.241   5.578  13.404  0.00  0.00    +0.000 NA
ATOM     23  H   UNL     1       7.729   6.232  12.808  0.00  0.00    +0.000 HD
ATOM     24  H   UNL     1       8.741   4.980  12.743  0.00  0.00    +0.000 HD
ENDBRANCH  15  22
ENDBRANCH  12  15
ENDBRANCH   6  11
BRANCH  10  25
ATOM     25  C   UNL     1       2.548   4.544  20.759  0.00  0.00    +0.000 C 
ATOM     26  O   UNL     1       2.100   3.646  21.462  0.00  0.00    +0.000 OA
BRANCH  25  27
ATOM     27  O   UNL     1       2.557   5.851  21.138  0.00  0.00    +0.000 OA
BRANCH  27  28
ATOM     28  C   UNL     1       1.516   6.780  20.742  0.00  0.00    +0.000 C 
ATOM     29  O   UNL     1       0.792   7.358  21.853  0.00  0.00    +0.000 OA
ATOM     30  C   UNL     1       0.295   8.589  21.524  0.00  0.00    +0.000 C 
ATOM     31  O   UNL     1      -0.537   9.226  22.142  0.00  0.00    +0.000 OA
ATOM     32  C   UNL     1       0.916   8.984  20.267  0.00  0.00    +0.000 A 
ATOM     33  C   UNL     1       0.701  10.166  19.563  0.00  0.00    +0.000 A 
ATOM     34  C   UNL     1       1.303  10.295  18.314  0.00  0.00    +0.000 A 
ATOM     35  C   UNL     1       2.075   9.235  17.813  0.00  0.00    +0.000 A 
ATOM     36  C   UNL     1       2.276   8.049  18.548  0.00  0.00    +0.000 A 
ATOM     37  C   UNL     1       1.701   7.934  19.804  0.00  0.00    +0.000 A 
ENDBRANCH  27  28
ENDBRANCH  25  27
ENDBRANCH  10  25
TORSDOF 7
ENDMDL
MODEL 7
REMARK VINA RESULT:      -8.3      3.575      6.282
REMARK  Name = 
REMARK  9 active torsions:
REMARK  status: ('A' for Active; 'I' for Inactive)
REMARK    1  A    between atoms: C_1  and  C_2
REMARK    2  A    between atoms: C_2  and  C_3
REMARK    3  A    between atoms: C_6  and  N_7
REMARK    4  A    between atoms: C_8  and  C_10
REMARK    5  A    between atoms: C_10  and  N_11
REMARK    6  A    between atoms: C_10  and  C_12
REMARK    7  A    between atoms: C_21  and  C_22
REMARK    8  A    between atoms: C_22  and  O_24
REMARK    9  A    between atoms: O_24  and  C_25
REMARK                            x       y       z     vdW  Elec       q    Type
REMARK                         _______ _______ _______ _____ _____    ______ ____
ROOT
ATOM      1  C   UNL     1       0.012   9.372  21.520  0.00  0.00    +0.000 C 
ATOM      2  C   UNL     1       0.197  10.425  20.422  0.00  0.00    +0.000 C 
ATOM      3  C   UNL     1       1.371  11.348  20.767  0.00  0.00    +0.000 C 
ATOM      4  S   UNL     1      -1.328  11.491  20.492  0.00  0.00    +0.000 S 
ATOM      5  C   UNL     1      -1.083  12.030  18.763  0.00  0.00    +0.000 C 
ATOM      6  C   UNL     1      -2.277  11.894  17.786  0.00  0.00    +0.000 C 
ATOM      7  C   UNL     1      -1.620  10.524  17.455  0.00  0.00    +0.000 C 
ATOM      8  O   UNL     1      -1.967   9.482  16.945  0.00  0.00    +0.000 OA
ATOM      9  N   UNL     1      -0.449  10.852  18.106  0.00  0.00    +0.000 N 
ATOM     10  C   UNL     1       0.209   9.841  18.972  0.00  0.00    +0.000 C 
ENDROOT
BRANCH   6  11
ATOM     11  N   UNL     1      -3.657  11.921  18.363  0.00  0.00    +0.000 N 
ATOM     12  C   UNL     1      -4.776  11.698  17.570  0.00  0.00    +0.000 C 
ATOM     13  O   UNL     1      -4.662  11.485  16.362  0.00  0.00    +0.000 OA
ATOM     14  H   UNL     1      -3.828  11.977  19.365  0.00  0.00    +0.000 HD
BRANCH  12  15
ATOM     15  C   UNL     1      -6.144  11.836  18.314  0.00  0.00    +0.000 C 
BRANCH  15  16
ATOM     16  C   UNL     1      -6.139  12.723  19.554  0.00  0.00    +0.000 A 
ATOM     17  C   UNL     1      -6.218  14.122  19.405  0.00  0.00    +0.000 A 
ATOM     18  C   UNL     1      -6.185  14.967  20.518  0.00  0.00    +0.000 A 
ATOM     19  C   UNL     1      -6.060  14.433  21.796  0.00  0.00    +0.000 A 
ATOM     20  C   UNL     1      -5.965  13.052  21.965  0.00  0.00    +0.000 A 
ATOM     21  C   UNL     1      -5.996  12.207  20.853  0.00  0.00    +0.000 A 
ENDBRANCH  15  16
BRANCH  15  22
ATOM     22  N   UNL     1      -7.202  12.280  17.370  0.00  0.00    +0.000 NA
ATOM     23  H   UNL     1      -7.848  12.876  17.892  0.00  0.00    +0.000 HD
ATOM     24  H   UNL     1      -7.760  11.456  17.137  0.00  0.00    +0.000 HD
ENDBRANCH  15  22
ENDBRANCH  12  15
ENDBRANCH   6  11
BRANCH  10  25
ATOM     25  C   UNL     1       1.584   9.253  18.465  0.00  0.00    +0.000 C 
ATOM     26  O   UNL     1       2.205   9.709  17.512  0.00  0.00    +0.000 OA
BRANCH  25  27
ATOM     27  O   UNL     1       2.077   8.280  19.278  0.00  0.00    +0.000 OA
BRANCH  27  28
ATOM     28  C   UNL     1       2.352   6.937  18.800  0.00  0.00    +0.000 C 
ATOM     29  O   UNL     1       3.545   6.837  17.988  0.00  0.00    +0.000 OA
ATOM     30  C   UNL     1       4.086   5.584  18.069  0.00  0.00    +0.000 C 
ATOM     31  O   UNL     1       4.942   5.113  17.344  0.00  0.00    +0.000 OA
ATOM     32  C   UNL     1       3.417   4.894  19.165  0.00  0.00    +0.000 A 
ATOM     33  C   UNL     1       3.653   3.594  19.603  0.00  0.00    +0.000 A 
ATOM     34  C   UNL     1       2.816   3.080  20.589  0.00  0.00    +0.000 A 
ATOM     35  C   UNL     1       1.770   3.875  21.081  0.00  0.00    +0.000 A 
ATOM     36  C   UNL     1       1.553   5.190  20.619  0.00  0.00    +0.000 A 
ATOM     37  C   UNL     1       2.407   5.710  19.659  0.00  0.00    +0.000 A 
ENDBRANCH  27  28
ENDBRANCH  25  27
ENDBRANCH  10  25
TORSDOF 7
ENDMDL
MODEL 8
REMARK VINA RESULT:      -8.2      0.765      1.218
REMARK  Name = 
REMARK  9 active torsions:
REMARK  status: ('A' for Active; 'I' for Inactive)
REMARK    1  A    between atoms: C_1  and  C_2
REMARK    2  A    between atoms: C_2  and  C_3
REMARK    3  A    between atoms: C_6  and  N_7
REMARK    4  A    between atoms: C_8  and  C_10
REMARK    5  A    between atoms: C_10  and  N_11
REMARK    6  A    between atoms: C_10  and  C_12
REMARK    7  A    between atoms: C_21  and  C_22
REMARK    8  A    between atoms: C_22  and  O_24
REMARK    9  A    between atoms: O_24  and  C_25
REMARK                            x       y       z     vdW  Elec       q    Type
REMARK                         _______ _______ _______ _____ _____    ______ ____
ROOT
ATOM      1  C   UNL     1       0.840   2.716  19.321  0.00  0.00    +0.000 C 
ATOM      2  C   UNL     1       1.806   3.625  20.087  0.00  0.00    +0.000 C 
ATOM      3  C   UNL     1       2.265   2.941  21.379  0.00  0.00    +0.000 C 
ATOM      4  S   UNL     1       0.791   5.093  20.620  0.00  0.00    +0.000 S 
ATOM      5  C   UNL     1       2.290   6.126  20.781  0.00  0.00    +0.000 C 
ATOM      6  C   UNL     1       2.308   7.495  20.058  0.00  0.00    +0.000 C 
ATOM      7  C   UNL     1       2.986   6.684  18.918  0.00  0.00    +0.000 C 
ATOM      8  O   UNL     1       3.173   6.825  17.729  0.00  0.00    +0.000 OA
ATOM      9  N   UNL     1       3.207   5.594  19.733  0.00  0.00    +0.000 N 
ATOM     10  C   UNL     1       2.949   4.229  19.208  0.00  0.00    +0.000 C 
ENDROOT
BRANCH   6  11
ATOM     11  N   UNL     1       0.995   8.163  19.798  0.00  0.00    +0.000 N 
ATOM     12  C   UNL     1       0.922   9.383  19.138  0.00  0.00    +0.000 C 
ATOM     13  O   UNL     1       1.945   9.958  18.759  0.00  0.00    +0.000 OA
ATOM     14  H   UNL     1       0.103   7.703  19.977  0.00  0.00    +0.000 HD
BRANCH  12  15
ATOM     15  C   UNL     1      -0.517   9.978  19.015  0.00  0.00    +0.000 C 
BRANCH  15  16
ATOM     16  C   UNL     1      -0.909  10.997  20.080  0.00  0.00    +0.000 A 
ATOM     17  C   UNL     1      -0.498  10.798  21.412  0.00  0.00    +0.000 A 
ATOM     18  C   UNL     1      -0.865  11.695  22.420  0.00  0.00    +0.000 A 
ATOM     19  C   UNL     1      -1.656  12.797  22.118  0.00  0.00    +0.000 A 
ATOM     20  C   UNL     1      -2.085  13.006  20.807  0.00  0.00    +0.000 A 
ATOM     21  C   UNL     1      -1.721  12.108  19.801  0.00  0.00    +0.000 A 
ENDBRANCH  15  16
BRANCH  15  22
ATOM     22  N   UNL     1      -0.727  10.547  17.658  0.00  0.00    +0.000 NA
ATOM     23  H   UNL     1       0.130  11.041  17.397  0.00  0.00    +0.000 HD
ATOM     24  H   UNL     1      -1.422  11.291  17.750  0.00  0.00    +0.000 HD
ENDBRANCH  15  22
ENDBRANCH  12  15
ENDBRANCH   6  11
BRANCH  10  25
ATOM     25  C   UNL     1       4.208   3.307  18.966  0.00  0.00    +0.000 C 
ATOM     26  O   UNL     1       4.756   2.664  19.853  0.00  0.00    +0.000 OA
BRANCH  25  27
ATOM     27  O   UNL     1       4.536   3.191  17.651  0.00  0.00    +0.000 OA
BRANCH  27  28
ATOM     28  C   UNL     1       5.424   4.128  16.988  0.00  0.00    +0.000 C 
ATOM     29  O   UNL     1       4.799   4.872  15.918  0.00  0.00    +0.000 OA
ATOM     30  C   UNL     1       5.410   6.083  15.744  0.00  0.00    +0.000 C 
ATOM     31  O   UNL     1       5.276   6.836  14.797  0.00  0.00    +0.000 OA
ATOM     32  C   UNL     1       6.288   6.292  16.888  0.00  0.00    +0.000 A 
ATOM     33  C   UNL     1       7.105   7.394  17.124  0.00  0.00    +0.000 A 
ATOM     34  C   UNL     1       7.964   7.341  18.218  0.00  0.00    +0.000 A 
ATOM     35  C   UNL     1       7.986   6.188  19.017  0.00  0.00    +0.000 A 
ATOM     36  C   UNL     1       7.147   5.085  18.754  0.00  0.00    +0.000 A 
ATOM     37  C   UNL     1       6.271   5.152  17.681  0.00  0.00    +0.000 A 
ENDBRANCH  27  28
ENDBRANCH  25  27
ENDBRANCH  10  25
TORSDOF 7
ENDMDL
MODEL 9
REMARK VINA RESULT:      -8.1      4.068      6.620
REMARK  Name = 
REMARK  9 active torsions:
REMARK  status: ('A' for Active; 'I' for Inactive)
REMARK    1  A    between atoms: C_1  and  C_2
REMARK    2  A    between atoms: C_2  and  C_3
REMARK    3  A    between atoms: C_6  and  N_7
REMARK    4  A    between atoms: C_8  and  C_10
REMARK    5  A    between atoms: C_10  and  N_11
REMARK    6  A    between atoms: C_10  and  C_12
REMARK    7  A    between atoms: C_21  and  C_22
REMARK    8  A    between atoms: C_22  and  O_24
REMARK    9  A    between atoms: O_24  and  C_25
REMARK                            x       y       z     vdW  Elec       q    Type
REMARK                         _______ _______ _______ _____ _____    ______ ____
ROOT
ATOM      1  C   UNL     1       0.084   9.001  21.447  0.00  0.00    +0.000 C 
ATOM      2  C   UNL     1       0.299  10.134  20.439  0.00  0.00    +0.000 C 
ATOM      3  C   UNL     1       1.498  10.993  20.856  0.00  0.00    +0.000 C 
ATOM      4  S   UNL     1      -1.196  11.233  20.597  0.00  0.00    +0.000 S 
ATOM      5  C   UNL     1      -0.934  11.905  18.918  0.00  0.00    +0.000 C 
ATOM      6  C   UNL     1      -2.130  11.882  17.934  0.00  0.00    +0.000 C 
ATOM      7  C   UNL     1      -1.511  10.526  17.491  0.00  0.00    +0.000 C 
ATOM      8  O   UNL     1      -1.887   9.539  16.898  0.00  0.00    +0.000 OA
ATOM      9  N   UNL     1      -0.332  10.767  18.166  0.00  0.00    +0.000 N 
ATOM     10  C   UNL     1       0.297   9.671  18.946  0.00  0.00    +0.000 C 
ENDROOT
BRANCH   6  11
ATOM     11  N   UNL     1      -3.509  11.901  18.513  0.00  0.00    +0.000 N 
ATOM     12  C   UNL     1      -4.628  11.670  17.722  0.00  0.00    +0.000 C 
ATOM     13  O   UNL     1      -4.515  11.457  16.514  0.00  0.00    +0.000 OA
ATOM     14  H   UNL     1      -3.680  11.956  19.516  0.00  0.00    +0.000 HD
BRANCH  12  15
ATOM     15  C   UNL     1      -5.996  11.799  18.468  0.00  0.00    +0.000 C 
BRANCH  15  16
ATOM     16  C   UNL     1      -6.643  13.180  18.434  0.00  0.00    +0.000 A 
ATOM     17  C   UNL     1      -7.036  13.790  19.642  0.00  0.00    +0.000 A 
ATOM     18  C   UNL     1      -7.660  15.040  19.647  0.00  0.00    +0.000 A 
ATOM     19  C   UNL     1      -7.914  15.698  18.448  0.00  0.00    +0.000 A 
ATOM     20  C   UNL     1      -7.546  15.106  17.240  0.00  0.00    +0.000 A 
ATOM     21  C   UNL     1      -6.924  13.855  17.235  0.00  0.00    +0.000 A 
ENDBRANCH  15  16
BRANCH  15  22
ATOM     22  N   UNL     1      -6.951  10.773  17.976  0.00  0.00    +0.000 NA
ATOM     23  H   UNL     1      -7.874  11.211  17.930  0.00  0.00    +0.000 HD
ATOM     24  H   UNL     1      -7.046  10.073  18.715  0.00  0.00    +0.000 HD
ENDBRANCH  15  22
ENDBRANCH  12  15
ENDBRANCH   6  11
BRANCH  10  25
ATOM     25  C   UNL     1       1.655   9.088  18.391  0.00  0.00    +0.000 C 
ATOM     26  O   UNL     1       2.250   9.558  17.428  0.00  0.00    +0.000 OA
BRANCH  25  27
ATOM     27  O   UNL     1       2.168   8.101  19.173  0.00  0.00    +0.000 OA
BRANCH  27  28
ATOM     28  C   UNL     1       2.350   6.745  18.689  0.00  0.00    +0.000 C 
ATOM     29  O   UNL     1       3.503   6.577  17.834  0.00  0.00    +0.000 OA
ATOM     30  C   UNL     1       3.977   5.296  17.898  0.00  0.00    +0.000 C 
ATOM     31  O   UNL     1       4.777   4.778  17.142  0.00  0.00    +0.000 OA
ATOM     32  C   UNL     1       3.312   4.646  19.020  0.00  0.00    +0.000 A 
ATOM     33  C   UNL     1       3.492   3.334  19.452  0.00  0.00    +0.000 A 
ATOM     34  C   UNL     1       2.665   2.869  20.470  0.00  0.00    +0.000 A 
ATOM     35  C   UNL     1       1.684   3.722  21.000  0.00  0.00    +0.000 A 
ATOM     36  C   UNL     1       1.524   5.046  20.542  0.00  0.00    +0.000 A 
ATOM     37  C   UNL     1       2.368   5.517  19.549  0.00  0.00    +0.000 A 
ENDBRANCH  27  28
ENDBRANCH  25  27
ENDBRANCH  10  25
TORSDOF 7
ENDMDL
