MODEL 1
REMARK VINA RESULT:      -6.4      0.000      0.000
REMARK  Name = 
REMARK  16 active torsions:
REMARK  status: ('A' for Active; 'I' for Inactive)
REMARK    1  A    between atoms: C_1  and  C_2
REMARK    2  A    between atoms: C_2  and  O_3
REMARK    3  A    between atoms: O_3  and  C_4
REMARK    4  A    between atoms: C_4  and  C_5
REMARK    5  A    between atoms: C_4  and  C_17
REMARK    6  A    between atoms: C_4  and  C_23
REMARK    7  A    between atoms: C_5  and  O_7
REMARK    8  A    between atoms: O_7  and  C_8
REMARK    9  A    between atoms: C_8  and  C_9
REMARK   10  A    between atoms: C_9  and  C_10
REMARK   11  A    between atoms: C_10  and  N_11
REMARK   12  A    between atoms: N_11  and  C_12
REMARK   13  A    between atoms: N_11  and  C_13
REMARK   14  A    between atoms: N_11  and  C_15
REMARK   15  A    between atoms: C_13  and  C_14
REMARK   16  A    between atoms: C_15  and  C_16
REMARK                            x       y       z     vdW  Elec       q    Type
REMARK                         _______ _______ _______ _____ _____    ______ ____
ROOT
ATOM      1  C   UNL     1       3.630   5.580  18.624  0.00  0.00    +0.000 C 
ENDROOT
BRANCH   1   2
ATOM      2  C   UNL     1       4.298   5.413  17.231  0.00  0.00    +0.000 A 
ATOM      3  C   UNL     1       4.443   4.130  16.666  0.00  0.00    +0.000 A 
ATOM      4  C   UNL     1       5.116   3.942  15.457  0.00  0.00    +0.000 A 
ATOM      5  C   UNL     1       5.629   5.036  14.770  0.00  0.00    +0.000 A 
ATOM      6  C   UNL     1       5.443   6.320  15.274  0.00  0.00    +0.000 A 
ATOM      7  C   UNL     1       4.774   6.511  16.488  0.00  0.00    +0.000 A 
ENDBRANCH   1   2
BRANCH   1   8
ATOM      8  C   UNL     1       2.726   4.369  18.991  0.00  0.00    +0.000 A 
ATOM      9  C   UNL     1       2.843   3.764  20.262  0.00  0.00    +0.000 A 
ATOM     10  C   UNL     1       2.031   2.692  20.637  0.00  0.00    +0.000 A 
ATOM     11  C   UNL     1       1.072   2.206  19.756  0.00  0.00    +0.000 A 
ATOM     12  C   UNL     1       0.916   2.803  18.509  0.00  0.00    +0.000 A 
ATOM     13  C   UNL     1       1.727   3.882  18.129  0.00  0.00    +0.000 A 
ENDBRANCH   1   8
BRANCH   1  14
ATOM     14  C   UNL     1       2.743   6.893  18.721  0.00  0.00    +0.000 C 
ATOM     15  O   UNL     1       2.143   7.436  17.800  0.00  0.00    +0.000 OA
BRANCH  14  16
ATOM     16  O   UNL     1       2.693   7.380  20.010  0.00  0.00    +0.000 OA
BRANCH  16  17
ATOM     17  C   UNL     1       1.402   7.437  20.641  0.00  0.00    +0.000 C 
BRANCH  17  18
ATOM     18  C   UNL     1       1.198   8.824  21.260  0.00  0.00    +0.000 C 
BRANCH  18  19
ATOM     19  C   UNL     1      -0.112   9.452  20.772  0.00  0.00    +0.000 C 
BRANCH  19  20
ATOM     20  N   UNL     1       0.043  10.789  19.988  0.00  0.00    +0.000 N 
ATOM     21  C   UNL     1       0.869  10.531  18.721  0.00  0.00    +0.000 C 
BRANCH  20  22
ATOM     22  C   UNL     1      -1.337  11.378  19.613  0.00  0.00    +0.000 C 
ATOM     23  C   UNL     1      -1.496  11.689  18.130  0.00  0.00    +0.000 C 
ENDBRANCH  20  22
BRANCH  20  24
ATOM     24  C   UNL     1       0.873  11.767  20.878  0.00  0.00    +0.000 C 
ATOM     25  C   UNL     1       1.661  12.810  20.096  0.00  0.00    +0.000 C 
ENDBRANCH  20  24
ENDBRANCH  19  20
ENDBRANCH  18  19
ENDBRANCH  17  18
ENDBRANCH  16  17
ENDBRANCH  14  16
ENDBRANCH   1  14
BRANCH   1  26
ATOM     26  O   UNL     1       4.670   5.558  19.646  0.00  0.00    +0.000 OA
BRANCH  26  28
ATOM     27  C   UNL     1       7.047   5.711  19.417  0.00  0.00    +0.000 C 
ATOM     28  C   UNL     1       5.838   4.797  19.391  0.00  0.00    +0.000 C 
ENDBRANCH  26  28
ENDBRANCH   1  26
TORSDOF 12
ENDMDL
MODEL 2
REMARK VINA RESULT:      -6.3      0.708      1.354
REMARK  Name = 
REMARK  16 active torsions:
REMARK  status: ('A' for Active; 'I' for Inactive)
REMARK    1  A    between atoms: C_1  and  C_2
REMARK    2  A    between atoms: C_2  and  O_3
REMARK    3  A    between atoms: O_3  and  C_4
REMARK    4  A    between atoms: C_4  and  C_5
REMARK    5  A    between atoms: C_4  and  C_17
REMARK    6  A    between atoms: C_4  and  C_23
REMARK    7  A    between atoms: C_5  and  O_7
REMARK    8  A    between atoms: O_7  and  C_8
REMARK    9  A    between atoms: C_8  and  C_9
REMARK   10  A    between atoms: C_9  and  C_10
REMARK   11  A    between atoms: C_10  and  N_11
REMARK   12  A    between atoms: N_11  and  C_12
REMARK   13  A    between atoms: N_11  and  C_13
REMARK   14  A    between atoms: N_11  and  C_15
REMARK   15  A    between atoms: C_13  and  C_14
REMARK   16  A    between atoms: C_15  and  C_16
REMARK                            x       y       z     vdW  Elec       q    Type
REMARK                         _______ _______ _______ _____ _____    ______ ____
ROOT
ATOM      1  C   UNL     1       3.657   5.621  18.635  0.00  0.00    +0.000 C 
ENDROOT
BRANCH   1   2
ATOM      2  C   UNL     1       4.304   5.434  17.236  0.00  0.00    +0.000 A 
ATOM      3  C   UNL     1       4.456   4.142  16.694  0.00  0.00    +0.000 A 
ATOM      4  C   UNL     1       5.111   3.937  15.478  0.00  0.00    +0.000 A 
ATOM      5  C   UNL     1       5.599   5.022  14.760  0.00  0.00    +0.000 A 
ATOM      6  C   UNL     1       5.405   6.314  15.241  0.00  0.00    +0.000 A 
ATOM      7  C   UNL     1       4.754   6.522  16.461  0.00  0.00    +0.000 A 
ENDBRANCH   1   2
BRANCH   1   8
ATOM      8  C   UNL     1       2.741   4.428  19.024  0.00  0.00    +0.000 A 
ATOM      9  C   UNL     1       1.689   4.038  18.165  0.00  0.00    +0.000 A 
ATOM     10  C   UNL     1       0.862   2.954  18.468  0.00  0.00    +0.000 A 
ATOM     11  C   UNL     1       1.074   2.224  19.632  0.00  0.00    +0.000 A 
ATOM     12  C   UNL     1       2.122   2.568  20.481  0.00  0.00    +0.000 A 
ATOM     13  C   UNL     1       2.956   3.654  20.179  0.00  0.00    +0.000 A 
ENDBRANCH   1   8
BRANCH   1  14
ATOM     14  C   UNL     1       2.792   6.949  18.734  0.00  0.00    +0.000 C 
ATOM     15  O   UNL     1       2.245   7.532  17.804  0.00  0.00    +0.000 OA
BRANCH  14  16
ATOM     16  O   UNL     1       2.690   7.396  20.034  0.00  0.00    +0.000 OA
BRANCH  16  17
ATOM     17  C   UNL     1       1.371   7.474  20.602  0.00  0.00    +0.000 C 
BRANCH  17  18
ATOM     18  C   UNL     1       1.118   8.897  21.109  0.00  0.00    +0.000 C 
BRANCH  18  19
ATOM     19  C   UNL     1       0.457   9.754  20.024  0.00  0.00    +0.000 C 
BRANCH  19  20
ATOM     20  N   UNL     1      -0.107  11.123  20.509  0.00  0.00    +0.000 N 
ATOM     21  C   UNL     1       1.059  12.095  20.727  0.00  0.00    +0.000 C 
BRANCH  20  22
ATOM     22  C   UNL     1      -1.105  11.709  19.484  0.00  0.00    +0.000 C 
ATOM     23  C   UNL     1      -1.713  10.672  18.547  0.00  0.00    +0.000 C 
ENDBRANCH  20  22
BRANCH  20  24
ATOM     24  C   UNL     1      -0.772  10.893  21.904  0.00  0.00    +0.000 C 
ATOM     25  C   UNL     1      -1.003  12.169  22.704  0.00  0.00    +0.000 C 
ENDBRANCH  20  24
ENDBRANCH  19  20
ENDBRANCH  18  19
ENDBRANCH  17  18
ENDBRANCH  16  17
ENDBRANCH  14  16
ENDBRANCH   1  14
BRANCH   1  26
ATOM     26  O   UNL     1       4.711   5.592  19.644  0.00  0.00    +0.000 OA
BRANCH  26  28
ATOM     27  C   UNL     1       7.085   5.757  19.394  0.00  0.00    +0.000 C 
ATOM     28  C   UNL     1       5.878   4.839  19.365  0.00  0.00    +0.000 C 
ENDBRANCH  26  28
ENDBRANCH   1  26
TORSDOF 12
ENDMDL
MODEL 3
REMARK VINA RESULT:      -6.3      0.839      1.560
REMARK  Name = 
REMARK  16 active torsions:
REMARK  status: ('A' for Active; 'I' for Inactive)
REMARK    1  A    between atoms: C_1  and  C_2
REMARK    2  A    between atoms: C_2  and  O_3
REMARK    3  A    between atoms: O_3  and  C_4
REMARK    4  A    between atoms: C_4  and  C_5
REMARK    5  A    between atoms: C_4  and  C_17
REMARK    6  A    between atoms: C_4  and  C_23
REMARK    7  A    between atoms: C_5  and  O_7
REMARK    8  A    between atoms: O_7  and  C_8
REMARK    9  A    between atoms: C_8  and  C_9
REMARK   10  A    between atoms: C_9  and  C_10
REMARK   11  A    between atoms: C_10  and  N_11
REMARK   12  A    between atoms: N_11  and  C_12
REMARK   13  A    between atoms: N_11  and  C_13
REMARK   14  A    between atoms: N_11  and  C_15
REMARK   15  A    between atoms: C_13  and  C_14
REMARK   16  A    between atoms: C_15  and  C_16
REMARK                            x       y       z     vdW  Elec       q    Type
REMARK                         _______ _______ _______ _____ _____    ______ ____
ROOT
ATOM      1  C   UNL     1       3.839   5.575  18.421  0.00  0.00    +0.000 C 
ENDROOT
BRANCH   1   2
ATOM      2  C   UNL     1       4.537   5.184  17.090  0.00  0.00    +0.000 A 
ATOM      3  C   UNL     1       4.758   3.826  16.780  0.00  0.00    +0.000 A 
ATOM      4  C   UNL     1       5.458   3.448  15.633  0.00  0.00    +0.000 A 
ATOM      5  C   UNL     1       5.925   4.417  14.752  0.00  0.00    +0.000 A 
ATOM      6  C   UNL     1       5.664   5.762  15.002  0.00  0.00    +0.000 A 
ATOM      7  C   UNL     1       4.967   6.144  16.153  0.00  0.00    +0.000 A 
ENDBRANCH   1   2
BRANCH   1   8
ATOM      8  C   UNL     1       2.825   4.497  18.893  0.00  0.00    +0.000 A 
ATOM      9  C   UNL     1       2.876   4.015  20.220  0.00  0.00    +0.000 A 
ATOM     10  C   UNL     1       1.965   3.066  20.688  0.00  0.00    +0.000 A 
ATOM     11  C   UNL     1       0.971   2.583  19.844  0.00  0.00    +0.000 A 
ATOM     12  C   UNL     1       0.880   3.063  18.541  0.00  0.00    +0.000 A 
ATOM     13  C   UNL     1       1.791   4.018  18.068  0.00  0.00    +0.000 A 
ENDBRANCH   1   8
BRANCH   1  14
ATOM     14  C   UNL     1       3.065   6.958  18.319  0.00  0.00    +0.000 C 
ATOM     15  O   UNL     1       3.368   7.910  17.609  0.00  0.00    +0.000 OA
BRANCH  14  16
ATOM     16  O   UNL     1       1.951   6.979  19.131  0.00  0.00    +0.000 OA
BRANCH  16  17
ATOM     17  C   UNL     1       2.039   7.737  20.350  0.00  0.00    +0.000 C 
BRANCH  17  18
ATOM     18  C   UNL     1       0.863   8.715  20.428  0.00  0.00    +0.000 C 
BRANCH  18  19
ATOM     19  C   UNL     1       1.044   9.869  19.436  0.00  0.00    +0.000 C 
BRANCH  19  20
ATOM     20  N   UNL     1       0.031  11.042  19.588  0.00  0.00    +0.000 N 
ATOM     21  C   UNL     1      -0.140  11.364  21.077  0.00  0.00    +0.000 C 
BRANCH  20  22
ATOM     22  C   UNL     1       0.514  12.297  18.824  0.00  0.00    +0.000 C 
ATOM     23  C   UNL     1       2.004  12.295  18.506  0.00  0.00    +0.000 C 
ENDBRANCH  20  22
BRANCH  20  24
ATOM     24  C   UNL     1      -1.354  10.542  19.070  0.00  0.00    +0.000 C 
ATOM     25  C   UNL     1      -1.374  10.169  17.593  0.00  0.00    +0.000 C 
ENDBRANCH  20  24
ENDBRANCH  19  20
ENDBRANCH  18  19
ENDBRANCH  17  18
ENDBRANCH  16  17
ENDBRANCH  14  16
ENDBRANCH   1  14
BRANCH   1  26
ATOM     26  O   UNL     1       4.840   5.598  19.482  0.00  0.00    +0.000 OA
BRANCH  26  28
ATOM     27  C   UNL     1       7.217   5.798  19.288  0.00  0.00    +0.000 C 
ATOM     28  C   UNL     1       6.030   4.854  19.291  0.00  0.00    +0.000 C 
ENDBRANCH  26  28
ENDBRANCH   1  26
TORSDOF 12
ENDMDL
MODEL 4
REMARK VINA RESULT:      -6.3      3.909      6.245
REMARK  Name = 
REMARK  16 active torsions:
REMARK  status: ('A' for Active; 'I' for Inactive)
REMARK    1  A    between atoms: C_1  and  C_2
REMARK    2  A    between atoms: C_2  and  O_3
REMARK    3  A    between atoms: O_3  and  C_4
REMARK    4  A    between atoms: C_4  and  C_5
REMARK    5  A    between atoms: C_4  and  C_17
REMARK    6  A    between atoms: C_4  and  C_23
REMARK    7  A    between atoms: C_5  and  O_7
REMARK    8  A    between atoms: O_7  and  C_8
REMARK    9  A    between atoms: C_8  and  C_9
REMARK   10  A    between atoms: C_9  and  C_10
REMARK   11  A    between atoms: C_10  and  N_11
REMARK   12  A    between atoms: N_11  and  C_12
REMARK   13  A    between atoms: N_11  and  C_13
REMARK   14  A    between atoms: N_11  and  C_15
REMARK   15  A    between atoms: C_13  and  C_14
REMARK   16  A    between atoms: C_15  and  C_16
REMARK                            x       y       z     vdW  Elec       q    Type
REMARK                         _______ _______ _______ _____ _____    ______ ____
ROOT
ATOM      1  C   UNL     1       4.692   5.421  17.700  0.00  0.00    +0.000 C 
ENDROOT
BRANCH   1   2
ATOM      2  C   UNL     1       3.720   6.552  18.137  0.00  0.00    +0.000 A 
ATOM      3  C   UNL     1       3.067   6.480  19.384  0.00  0.00    +0.000 A 
ATOM      4  C   UNL     1       2.125   7.436  19.766  0.00  0.00    +0.000 A 
ATOM      5  C   UNL     1       1.838   8.504  18.923  0.00  0.00    +0.000 A 
ATOM      6  C   UNL     1       2.516   8.633  17.715  0.00  0.00    +0.000 A 
ATOM      7  C   UNL     1       3.457   7.674  17.327  0.00  0.00    +0.000 A 
ENDBRANCH   1   2
BRANCH   1   8
ATOM      8  C   UNL     1       4.225   4.022  18.190  0.00  0.00    +0.000 A 
ATOM      9  C   UNL     1       3.299   3.280  17.423  0.00  0.00    +0.000 A 
ATOM     10  C   UNL     1       2.876   2.009  17.818  0.00  0.00    +0.000 A 
ATOM     11  C   UNL     1       3.379   1.442  18.983  0.00  0.00    +0.000 A 
ATOM     12  C   UNL     1       4.315   2.138  19.742  0.00  0.00    +0.000 A 
ATOM     13  C   UNL     1       4.744   3.414  19.348  0.00  0.00    +0.000 A 
ENDBRANCH   1   8
BRANCH   1  14
ATOM     14  C   UNL     1       6.171   5.651  18.229  0.00  0.00    +0.000 C 
ATOM     15  O   UNL     1       6.978   4.780  18.536  0.00  0.00    +0.000 OA
BRANCH  14  16
ATOM     16  O   UNL     1       6.486   6.992  18.294  0.00  0.00    +0.000 OA
BRANCH  16  17
ATOM     17  C   UNL     1       7.791   7.385  17.833  0.00  0.00    +0.000 C 
BRANCH  17  18
ATOM     18  C   UNL     1       7.928   8.907  17.928  0.00  0.00    +0.000 C 
BRANCH  18  19
ATOM     19  C   UNL     1       9.141   9.294  18.780  0.00  0.00    +0.000 C 
BRANCH  19  20
ATOM     20  N   UNL     1       9.436  10.821  18.864  0.00  0.00    +0.000 N 
ATOM     21  C   UNL     1       8.982  11.342  20.234  0.00  0.00    +0.000 C 
BRANCH  20  22
ATOM     22  C   UNL     1      10.941  11.111  18.656  0.00  0.00    +0.000 C 
ATOM     23  C   UNL     1      11.585  11.893  19.795  0.00  0.00    +0.000 C 
ENDBRANCH  20  22
BRANCH  20  24
ATOM     24  C   UNL     1       8.551  11.534  17.793  0.00  0.00    +0.000 C 
ATOM     25  C   UNL     1       8.717  13.048  17.751  0.00  0.00    +0.000 C 
ENDBRANCH  20  24
ENDBRANCH  19  20
ENDBRANCH  18  19
ENDBRANCH  17  18
ENDBRANCH  16  17
ENDBRANCH  14  16
ENDBRANCH   1  14
BRANCH   1  26
ATOM     26  O   UNL     1       4.654   5.310  16.246  0.00  0.00    +0.000 OA
BRANCH  26  28
ATOM     27  C   UNL     1       6.403   5.129  14.624  0.00  0.00    +0.000 C 
ATOM     28  C   UNL     1       5.536   4.391  15.625  0.00  0.00    +0.000 C 
ENDBRANCH  26  28
ENDBRANCH   1  26
TORSDOF 12
ENDMDL
MODEL 5
REMARK VINA RESULT:      -6.3      4.068      6.254
REMARK  Name = 
REMARK  16 active torsions:
REMARK  status: ('A' for Active; 'I' for Inactive)
REMARK    1  A    between atoms: C_1  and  C_2
REMARK    2  A    between atoms: C_2  and  O_3
REMARK    3  A    between atoms: O_3  and  C_4
REMARK    4  A    between atoms: C_4  and  C_5
REMARK    5  A    between atoms: C_4  and  C_17
REMARK    6  A    between atoms: C_4  and  C_23
REMARK    7  A    between atoms: C_5  and  O_7
REMARK    8  A    between atoms: O_7  and  C_8
REMARK    9  A    between atoms: C_8  and  C_9
REMARK   10  A    between atoms: C_9  and  C_10
REMARK   11  A    between atoms: C_10  and  N_11
REMARK   12  A    between atoms: N_11  and  C_12
REMARK   13  A    between atoms: N_11  and  C_13
REMARK   14  A    between atoms: N_11  and  C_15
REMARK   15  A    between atoms: C_13  and  C_14
REMARK   16  A    between atoms: C_15  and  C_16
REMARK                            x       y       z     vdW  Elec       q    Type
REMARK                         _______ _______ _______ _____ _____    ______ ____
ROOT
ATOM      1  C   UNL     1       5.660   5.174  18.042  0.00  0.00    +0.000 C 
ENDROOT
BRANCH   1   2
ATOM      2  C   UNL     1       5.866   4.879  16.531  0.00  0.00    +0.000 A 
ATOM      3  C   UNL     1       4.771   4.502  15.728  0.00  0.00    +0.000 A 
ATOM      4  C   UNL     1       4.940   4.148  14.389  0.00  0.00    +0.000 A 
ATOM      5  C   UNL     1       6.204   4.196  13.812  0.00  0.00    +0.000 A 
ATOM      6  C   UNL     1       7.292   4.627  14.565  0.00  0.00    +0.000 A 
ATOM      7  C   UNL     1       7.126   4.977  15.908  0.00  0.00    +0.000 A 
ENDBRANCH   1   2
BRANCH   1   8
ATOM      8  C   UNL     1       4.432   6.090  18.301  0.00  0.00    +0.000 A 
ATOM      9  C   UNL     1       4.111   7.114  17.381  0.00  0.00    +0.000 A 
ATOM     10  C   UNL     1       3.000   7.940  17.567  0.00  0.00    +0.000 A 
ATOM     11  C   UNL     1       2.174   7.755  18.670  0.00  0.00    +0.000 A 
ATOM     12  C   UNL     1       2.450   6.734  19.575  0.00  0.00    +0.000 A 
ATOM     13  C   UNL     1       3.563   5.901  19.391  0.00  0.00    +0.000 A 
ENDBRANCH   1   8
BRANCH   1  14
ATOM     14  C   UNL     1       6.928   5.862  18.707  0.00  0.00    +0.000 C 
ATOM     15  O   UNL     1       7.620   5.398  19.605  0.00  0.00    +0.000 OA
BRANCH  14  16
ATOM     16  O   UNL     1       7.202   7.086  18.133  0.00  0.00    +0.000 OA
BRANCH  16  17
ATOM     17  C   UNL     1       8.395   7.762  18.567  0.00  0.00    +0.000 C 
BRANCH  17  18
ATOM     18  C   UNL     1       8.336   9.229  18.129  0.00  0.00    +0.000 C 
BRANCH  18  19
ATOM     19  C   UNL     1       9.166  10.113  19.067  0.00  0.00    +0.000 C 
BRANCH  19  20
ATOM     20  N   UNL     1       9.432  11.560  18.555  0.00  0.00    +0.000 N 
ATOM     21  C   UNL     1       8.297  11.971  17.609  0.00  0.00    +0.000 C 
BRANCH  20  22
ATOM     22  C   UNL     1       9.532  12.558  19.732  0.00  0.00    +0.000 C 
ATOM     23  C   UNL     1      10.128  11.962  21.002  0.00  0.00    +0.000 C 
ENDBRANCH  20  22
BRANCH  20  24
ATOM     24  C   UNL     1      10.741  11.529  17.705  0.00  0.00    +0.000 C 
ATOM     25  C   UNL     1      11.548  12.820  17.751  0.00  0.00    +0.000 C 
ENDBRANCH  20  24
ENDBRANCH  19  20
ENDBRANCH  18  19
ENDBRANCH  17  18
ENDBRANCH  16  17
ENDBRANCH  14  16
ENDBRANCH   1  14
BRANCH   1  26
ATOM     26  O   UNL     1       5.311   3.928  18.717  0.00  0.00    +0.000 OA
BRANCH  26  28
ATOM     27  C   UNL     1       3.659   2.223  19.013  0.00  0.00    +0.000 C 
ATOM     28  C   UNL     1       4.502   2.998  18.019  0.00  0.00    +0.000 C 
ENDBRANCH  26  28
ENDBRANCH   1  26
TORSDOF 12
ENDMDL
MODEL 6
REMARK VINA RESULT:      -6.3      2.285      8.339
REMARK  Name = 
REMARK  16 active torsions:
REMARK  status: ('A' for Active; 'I' for Inactive)
REMARK    1  A    between atoms: C_1  and  C_2
REMARK    2  A    between atoms: C_2  and  O_3
REMARK    3  A    between atoms: O_3  and  C_4
REMARK    4  A    between atoms: C_4  and  C_5
REMARK    5  A    between atoms: C_4  and  C_17
REMARK    6  A    between atoms: C_4  and  C_23
REMARK    7  A    between atoms: C_5  and  O_7
REMARK    8  A    between atoms: O_7  and  C_8
REMARK    9  A    between atoms: C_8  and  C_9
REMARK   10  A    between atoms: C_9  and  C_10
REMARK   11  A    between atoms: C_10  and  N_11
REMARK   12  A    between atoms: N_11  and  C_12
REMARK   13  A    between atoms: N_11  and  C_13
REMARK   14  A    between atoms: N_11  and  C_15
REMARK   15  A    between atoms: C_13  and  C_14
REMARK   16  A    between atoms: C_15  and  C_16
REMARK                            x       y       z     vdW  Elec       q    Type
REMARK                         _______ _______ _______ _____ _____    ______ ____
ROOT
ATOM      1  C   UNL     1       0.791  10.624  19.331  0.00  0.00    +0.000 C 
ENDROOT
BRANCH   1   2
ATOM      2  C   UNL     1      -0.674  10.722  18.824  0.00  0.00    +0.000 A 
ATOM      3  C   UNL     1      -1.130   9.857  17.808  0.00  0.00    +0.000 A 
ATOM      4  C   UNL     1      -2.413   9.979  17.274  0.00  0.00    +0.000 A 
ATOM      5  C   UNL     1      -3.282  10.946  17.766  0.00  0.00    +0.000 A 
ATOM      6  C   UNL     1      -2.879  11.770  18.813  0.00  0.00    +0.000 A 
ATOM      7  C   UNL     1      -1.591  11.654  19.347  0.00  0.00    +0.000 A 
ENDBRANCH   1   2
BRANCH   1   8
ATOM      8  C   UNL     1       1.487  12.012  19.393  0.00  0.00    +0.000 A 
ATOM      9  C   UNL     1       1.757  12.718  18.200  0.00  0.00    +0.000 A 
ATOM     10  C   UNL     1       2.356  13.980  18.218  0.00  0.00    +0.000 A 
ATOM     11  C   UNL     1       2.689  14.573  19.430  0.00  0.00    +0.000 A 
ATOM     12  C   UNL     1       2.406  13.912  20.622  0.00  0.00    +0.000 A 
ATOM     13  C   UNL     1       1.802  12.646  20.609  0.00  0.00    +0.000 A 
ENDBRANCH   1   8
BRANCH   1  14
ATOM     14  C   UNL     1       1.686   9.673  18.427  0.00  0.00    +0.000 C 
ATOM     15  O   UNL     1       2.147   9.942  17.323  0.00  0.00    +0.000 OA
BRANCH  14  16
ATOM     16  O   UNL     1       1.926   8.463  19.042  0.00  0.00    +0.000 OA
BRANCH  16  17
ATOM     17  C   UNL     1       2.628   7.465  18.281  0.00  0.00    +0.000 C 
BRANCH  17  18
ATOM     18  C   UNL     1       2.447   6.096  18.944  0.00  0.00    +0.000 C 
BRANCH  18  19
ATOM     19  C   UNL     1       3.804   5.443  19.227  0.00  0.00    +0.000 C 
BRANCH  19  20
ATOM     20  N   UNL     1       4.083   4.124  18.446  0.00  0.00    +0.000 N 
ATOM     21  C   UNL     1       4.428   3.015  19.447  0.00  0.00    +0.000 C 
BRANCH  20  22
ATOM     22  C   UNL     1       2.861   3.712  17.594  0.00  0.00    +0.000 C 
ATOM     23  C   UNL     1       2.410   2.273  17.812  0.00  0.00    +0.000 C 
ENDBRANCH  20  22
BRANCH  20  24
ATOM     24  C   UNL     1       5.355   4.353  17.569  0.00  0.00    +0.000 C 
ATOM     25  C   UNL     1       5.105   5.164  16.304  0.00  0.00    +0.000 C 
ENDBRANCH  20  24
ENDBRANCH  19  20
ENDBRANCH  18  19
ENDBRANCH  17  18
ENDBRANCH  16  17
ENDBRANCH  14  16
ENDBRANCH   1  14
BRANCH   1  26
ATOM     26  O   UNL     1       0.775  10.182  20.722  0.00  0.00    +0.000 OA
BRANCH  26  28
ATOM     27  C   UNL     1      -0.358   9.323  22.646  0.00  0.00    +0.000 C 
ATOM     28  C   UNL     1      -0.267   9.315  21.132  0.00  0.00    +0.000 C 
ENDBRANCH  26  28
ENDBRANCH   1  26
TORSDOF 12
ENDMDL
MODEL 7
REMARK VINA RESULT:      -6.3      3.913      6.161
REMARK  Name = 
REMARK  16 active torsions:
REMARK  status: ('A' for Active; 'I' for Inactive)
REMARK    1  A    between atoms: C_1  and  C_2
REMARK    2  A    between atoms: C_2  and  O_3
REMARK    3  A    between atoms: O_3  and  C_4
REMARK    4  A    between atoms: C_4  and  C_5
REMARK    5  A    between atoms: C_4  and  C_17
REMARK    6  A    between atoms: C_4  and  C_23
REMARK    7  A    between atoms: C_5  and  O_7
REMARK    8  A    between atoms: O_7  and  C_8
REMARK    9  A    between atoms: C_8  and  C_9
REMARK   10  A    between atoms: C_9  and  C_10
REMARK   11  A    between atoms: C_10  and  N_11
REMARK   12  A    between atoms: N_11  and  C_12
REMARK   13  A    between atoms: N_11  and  C_13
REMARK   14  A    between atoms: N_11  and  C_15
REMARK   15  A    between atoms: C_13  and  C_14
REMARK   16  A    between atoms: C_15  and  C_16
REMARK                            x       y       z     vdW  Elec       q    Type
REMARK                         _______ _______ _______ _____ _____    ______ ____
ROOT
ATOM      1  C   UNL     1       4.425   5.818  17.665  0.00  0.00    +0.000 C 
ENDROOT
BRANCH   1   2
ATOM      2  C   UNL     1       3.370   6.841  18.167  0.00  0.00    +0.000 A 
ATOM      3  C   UNL     1       2.995   7.928  17.352  0.00  0.00    +0.000 A 
ATOM      4  C   UNL     1       2.115   8.910  17.810  0.00  0.00    +0.000 A 
ATOM      5  C   UNL     1       1.563   8.809  19.082  0.00  0.00    +0.000 A 
ATOM      6  C   UNL     1       1.866   7.712  19.883  0.00  0.00    +0.000 A 
ATOM      7  C   UNL     1       2.752   6.730  19.428  0.00  0.00    +0.000 A 
ENDBRANCH   1   2
BRANCH   1   8
ATOM      8  C   UNL     1       4.050   4.356  18.037  0.00  0.00    +0.000 A 
ATOM      9  C   UNL     1       3.096   3.656  17.266  0.00  0.00    +0.000 A 
ATOM     10  C   UNL     1       2.753   2.333  17.554  0.00  0.00    +0.000 A 
ATOM     11  C   UNL     1       3.366   1.672  18.612  0.00  0.00    +0.000 A 
ATOM     12  C   UNL     1       4.331   2.329  19.369  0.00  0.00    +0.000 A 
ATOM     13  C   UNL     1       4.680   3.656  19.082  0.00  0.00    +0.000 A 
ENDBRANCH   1   8
BRANCH   1  14
ATOM     14  C   UNL     1       5.876   6.108  18.240  0.00  0.00    +0.000 C 
ATOM     15  O   UNL     1       6.553   5.347  18.924  0.00  0.00    +0.000 OA
BRANCH  14  16
ATOM     16  O   UNL     1       6.336   7.351  17.861  0.00  0.00    +0.000 OA
BRANCH  16  17
ATOM     17  C   UNL     1       7.742   7.477  17.586  0.00  0.00    +0.000 C 
BRANCH  17  18
ATOM     18  C   UNL     1       8.338   8.574  18.474  0.00  0.00    +0.000 C 
BRANCH  18  19
ATOM     19  C   UNL     1       8.385   9.913  17.730  0.00  0.00    +0.000 C 
BRANCH  19  20
ATOM     20  N   UNL     1       9.203  11.037  18.433  0.00  0.00    +0.000 N 
ATOM     21  C   UNL     1      10.644  11.009  17.908  0.00  0.00    +0.000 C 
BRANCH  20  22
ATOM     22  C   UNL     1       8.571  12.426  18.183  0.00  0.00    +0.000 C 
ATOM     23  C   UNL     1       9.550  13.464  17.648  0.00  0.00    +0.000 C 
ENDBRANCH  20  22
BRANCH  20  24
ATOM     24  C   UNL     1       9.270  10.692  19.955  0.00  0.00    +0.000 C 
ATOM     25  C   UNL     1      10.038  11.706  20.793  0.00  0.00    +0.000 C 
ENDBRANCH  20  24
ENDBRANCH  19  20
ENDBRANCH  18  19
ENDBRANCH  17  18
ENDBRANCH  16  17
ENDBRANCH  14  16
ENDBRANCH   1  14
BRANCH   1  26
ATOM     26  O   UNL     1       4.416   5.817  16.206  0.00  0.00    +0.000 OA
BRANCH  26  28
ATOM     27  C   UNL     1       5.444   4.312  14.655  0.00  0.00    +0.000 C 
ATOM     28  C   UNL     1       5.631   5.534  15.534  0.00  0.00    +0.000 C 
ENDBRANCH  26  28
ENDBRANCH   1  26
TORSDOF 12
ENDMDL
MODEL 8
REMARK VINA RESULT:      -6.2      0.609      1.655
REMARK  Name = 
REMARK  16 active torsions:
REMARK  status: ('A' for Active; 'I' for Inactive)
REMARK    1  A    between atoms: C_1  and  C_2
REMARK    2  A    between atoms: C_2  and  O_3
REMARK    3  A    between atoms: O_3  and  C_4
REMARK    4  A    between atoms: C_4  and  C_5
REMARK    5  A    between atoms: C_4  and  C_17
REMARK    6  A    between atoms: C_4  and  C_23
REMARK    7  A    between atoms: C_5  and  O_7
REMARK    8  A    between atoms: O_7  and  C_8
REMARK    9  A    between atoms: C_8  and  C_9
REMARK   10  A    between atoms: C_9  and  C_10
REMARK   11  A    between atoms: C_10  and  N_11
REMARK   12  A    between atoms: N_11  and  C_12
REMARK   13  A    between atoms: N_11  and  C_13
REMARK   14  A    between atoms: N_11  and  C_15
REMARK   15  A    between atoms: C_13  and  C_14
REMARK   16  A    between atoms: C_15  and  C_16
REMARK                            x       y       z     vdW  Elec       q    Type
REMARK                         _______ _______ _______ _____ _____    ______ ____
ROOT
ATOM      1  C   UNL     1       3.753   5.541  18.546  0.00  0.00    +0.000 C 
ENDROOT
BRANCH   1   2
ATOM      2  C   UNL     1       4.460   5.282  17.188  0.00  0.00    +0.000 A 
ATOM      3  C   UNL     1       4.912   6.365  16.407  0.00  0.00    +0.000 A 
ATOM      4  C   UNL     1       5.474   6.166  15.145  0.00  0.00    +0.000 A 
ATOM      5  C   UNL     1       5.627   4.877  14.648  0.00  0.00    +0.000 A 
ATOM      6  C   UNL     1       5.248   3.787  15.425  0.00  0.00    +0.000 A 
ATOM      7  C   UNL     1       4.680   3.983  16.688  0.00  0.00    +0.000 A 
ENDBRANCH   1   2
BRANCH   1   8
ATOM      8  C   UNL     1       2.810   4.373  18.950  0.00  0.00    +0.000 A 
ATOM      9  C   UNL     1       2.961   3.750  20.209  0.00  0.00    +0.000 A 
ATOM     10  C   UNL     1       2.116   2.715  20.617  0.00  0.00    +0.000 A 
ATOM     11  C   UNL     1       1.090   2.288  19.783  0.00  0.00    +0.000 A 
ATOM     12  C   UNL     1       0.899   2.905  18.550  0.00  0.00    +0.000 A 
ATOM     13  C   UNL     1       1.744   3.946  18.137  0.00  0.00    +0.000 A 
ENDBRANCH   1   8
BRANCH   1  14
ATOM     14  C   UNL     1       2.896   6.877  18.541  0.00  0.00    +0.000 C 
ATOM     15  O   UNL     1       2.346   7.386  17.570  0.00  0.00    +0.000 OA
BRANCH  14  16
ATOM     16  O   UNL     1       2.805   7.429  19.801  0.00  0.00    +0.000 OA
BRANCH  16  17
ATOM     17  C   UNL     1       1.528   7.363  20.458  0.00  0.00    +0.000 C 
BRANCH  17  18
ATOM     18  C   UNL     1       1.117   8.765  20.917  0.00  0.00    +0.000 C 
BRANCH  18  19
ATOM     19  C   UNL     1       0.930   9.700  19.718  0.00  0.00    +0.000 C 
BRANCH  19  20
ATOM     20  N   UNL     1      -0.017  10.912  19.960  0.00  0.00    +0.000 N 
ATOM     21  C   UNL     1      -0.506  10.881  21.413  0.00  0.00    +0.000 C 
BRANCH  20  22
ATOM     22  C   UNL     1       0.703  12.249  19.669  0.00  0.00    +0.000 C 
ATOM     23  C   UNL     1       1.825  12.139  18.643  0.00  0.00    +0.000 C 
ENDBRANCH  20  22
BRANCH  20  24
ATOM     24  C   UNL     1      -1.275  10.719  19.055  0.00  0.00    +0.000 C 
ATOM     25  C   UNL     1      -1.929  12.019  18.606  0.00  0.00    +0.000 C 
ENDBRANCH  20  24
ENDBRANCH  19  20
ENDBRANCH  18  19
ENDBRANCH  17  18
ENDBRANCH  16  17
ENDBRANCH  14  16
ENDBRANCH   1  14
BRANCH   1  26
ATOM     26  O   UNL     1       4.760   5.554  19.601  0.00  0.00    +0.000 OA
BRANCH  26  28
ATOM     27  C   UNL     1       7.136   5.786  19.435  0.00  0.00    +0.000 C 
ATOM     28  C   UNL     1       5.959   4.830  19.386  0.00  0.00    +0.000 C 
ENDBRANCH  26  28
ENDBRANCH   1  26
TORSDOF 12
ENDMDL
MODEL 9
REMARK VINA RESULT:      -6.2      3.831      6.175
REMARK  Name = 
REMARK  16 active torsions:
REMARK  status: ('A' for Active; 'I' for Inactive)
REMARK    1  A    between atoms: C_1  and  C_2
REMARK    2  A    between atoms: C_2  and  O_3
REMARK    3  A    between atoms: O_3  and  C_4
REMARK    4  A    between atoms: C_4  and  C_5
REMARK    5  A    between atoms: C_4  and  C_17
REMARK    6  A    between atoms: C_4  and  C_23
REMARK    7  A    between atoms: C_5  and  O_7
REMARK    8  A    between atoms: O_7  and  C_8
REMARK    9  A    between atoms: C_8  and  C_9
REMARK   10  A    between atoms: C_9  and  C_10
REMARK   11  A    between atoms: C_10  and  N_11
REMARK   12  A    between atoms: N_11  and  C_12
REMARK   13  A    between atoms: N_11  and  C_13
REMARK   14  A    between atoms: N_11  and  C_15
REMARK   15  A    between atoms: C_13  and  C_14
REMARK   16  A    between atoms: C_15  and  C_16
REMARK                            x       y       z     vdW  Elec       q    Type
REMARK                         _______ _______ _______ _____ _____    ______ ____
ROOT
ATOM      1  C   UNL     1       4.832   5.482  17.877  0.00  0.00    +0.000 C 
ENDROOT
BRANCH   1   2
ATOM      2  C   UNL     1       3.798   6.587  18.226  0.00  0.00    +0.000 A 
ATOM      3  C   UNL     1       3.108   6.548  19.454  0.00  0.00    +0.000 A 
ATOM      4  C   UNL     1       2.112   7.478  19.758  0.00  0.00    +0.000 A 
ATOM      5  C   UNL     1       1.807   8.489  18.854  0.00  0.00    +0.000 A 
ATOM      6  C   UNL     1       2.518   8.589  17.662  0.00  0.00    +0.000 A 
ATOM      7  C   UNL     1       3.512   7.655  17.353  0.00  0.00    +0.000 A 
ENDBRANCH   1   2
BRANCH   1   8
ATOM      8  C   UNL     1       4.321   4.061  18.243  0.00  0.00    +0.000 A 
ATOM      9  C   UNL     1       3.347   3.433  17.434  0.00  0.00    +0.000 A 
ATOM     10  C   UNL     1       2.883   2.147  17.717  0.00  0.00    +0.000 A 
ATOM     11  C   UNL     1       3.390   1.450  18.808  0.00  0.00    +0.000 A 
ATOM     12  C   UNL     1       4.372   2.034  19.604  0.00  0.00    +0.000 A 
ATOM     13  C   UNL     1       4.842   3.324  19.323  0.00  0.00    +0.000 A 
ENDBRANCH   1   8
BRANCH   1  14
ATOM     14  C   UNL     1       6.225   5.700  18.607  0.00  0.00    +0.000 C 
ATOM     15  O   UNL     1       6.491   5.409  19.768  0.00  0.00    +0.000 OA
BRANCH  14  16
ATOM     16  O   UNL     1       7.162   6.254  17.762  0.00  0.00    +0.000 OA
BRANCH  16  17
ATOM     17  C   UNL     1       7.038   7.657  17.471  0.00  0.00    +0.000 C 
BRANCH  17  18
ATOM     18  C   UNL     1       8.184   8.421  18.141  0.00  0.00    +0.000 C 
BRANCH  18  19
ATOM     19  C   UNL     1       8.277   9.852  17.601  0.00  0.00    +0.000 C 
BRANCH  19  20
ATOM     20  N   UNL     1       9.155  10.825  18.442  0.00  0.00    +0.000 N 
ATOM     21  C   UNL     1       8.530  12.225  18.399  0.00  0.00    +0.000 C 
BRANCH  20  22
ATOM     22  C   UNL     1       9.278  10.341  19.905  0.00  0.00    +0.000 C 
ATOM     23  C   UNL     1       9.616  11.447  20.897  0.00  0.00    +0.000 C 
ENDBRANCH  20  22
BRANCH  20  24
ATOM     24  C   UNL     1      10.548  10.929  17.743  0.00  0.00    +0.000 C 
ATOM     25  C   UNL     1      11.029  12.357  17.516  0.00  0.00    +0.000 C 
ENDBRANCH  20  24
ENDBRANCH  19  20
ENDBRANCH  18  19
ENDBRANCH  17  18
ENDBRANCH  16  17
ENDBRANCH  14  16
ENDBRANCH   1  14
BRANCH   1  26
ATOM     26  O   UNL     1       4.989   5.431  16.427  0.00  0.00    +0.000 OA
BRANCH  26  28
ATOM     27  C   UNL     1       6.121   4.693  14.453  0.00  0.00    +0.000 C 
ATOM     28  C   UNL     1       5.718   4.350  15.874  0.00  0.00    +0.000 C 
ENDBRANCH  26  28
ENDBRANCH   1  26
TORSDOF 12
ENDMDL
