MODEL 1
REMARK VINA RESULT:      -8.2      0.000      0.000
REMARK  Name = 
REMARK  9 active torsions:
REMARK  status: ('A' for Active; 'I' for Inactive)
REMARK    1  A    between atoms: C_1  and  O_2
REMARK    2  A    between atoms: O_2  and  C_3
REMARK    3  A    between atoms: C_3  and  C_5
REMARK    4  A    between atoms: C_8  and  C_9
REMARK    5  A    between atoms: C_12  and  N_13
REMARK    6  A    between atoms: C_14  and  C_16
REMARK    7  A    between atoms: C_20  and  C_21
REMARK    8  A    between atoms: C_28  and  O_29
REMARK    9  A    between atoms: O_29  and  C_30
REMARK                            x       y       z     vdW  Elec       q    Type
REMARK                         _______ _______ _______ _____ _____    ______ ____
ROOT
ATOM      1  C   UNL     1       1.804   7.993  19.512  0.00  0.00    +0.000 A 
ATOM      2  C   UNL     1       1.353   7.867  20.824  0.00  0.00    +0.000 A 
ATOM      3  C   UNL     1       0.516   8.834  21.391  0.00  0.00    +0.000 A 
ATOM      4  C   UNL     1       0.098   9.954  20.668  0.00  0.00    +0.000 A 
ATOM      5  C   UNL     1       0.515  10.070  19.340  0.00  0.00    +0.000 A 
ATOM      6  C   UNL     1       1.363   9.105  18.771  0.00  0.00    +0.000 A 
ENDROOT
BRANCH   1  10
ATOM      7  C   UNL     1       4.025   5.051  18.642  0.00  0.00    +0.000 A 
ATOM      8  S   UNL     1       4.531   6.084  17.354  0.00  0.00    +0.000 S 
ATOM      9  C   UNL     1       3.461   7.319  17.809  0.00  0.00    +0.000 A 
ATOM     10  C   UNL     1       2.731   7.009  18.938  0.00  0.00    +0.000 A 
ATOM     11  C   UNL     1       3.022   5.658  19.385  0.00  0.00    +0.000 A 
BRANCH   7  12
ATOM     12  C   UNL     1       4.632   3.736  18.725  0.00  0.00    +0.000 C 
ATOM     13  O   UNL     1       5.490   3.376  19.522  0.00  0.00    +0.000 OA
BRANCH  12  15
ATOM     14  C   UNL     1       3.439   1.767  18.164  0.00  0.00    +0.000 C 
ATOM     15  O   UNL     1       4.142   2.934  17.735  0.00  0.00    +0.000 OA
ENDBRANCH  12  15
ENDBRANCH   7  12
BRANCH  11  16
ATOM     16  O   UNL     1       2.302   5.085  20.391  0.00  0.00    +0.000 OA
ATOM     17  C   UNL     1       1.241   4.223  20.003  0.00  0.00    +0.000 C 
ENDBRANCH  11  16
ENDBRANCH   1  10
BRANCH   4  18
ATOM     18  N   UNL     1      -0.719  10.978  21.215  0.00  0.00    +0.000 N 
ATOM     19  C   UNL     1      -0.877  11.234  22.569  0.00  0.00    +0.000 C 
ATOM     20  O   UNL     1      -0.335  10.629  23.489  0.00  0.00    +0.000 OA
ATOM     21  H   UNL     1      -1.139  11.619  20.554  0.00  0.00    +0.000 HD
BRANCH  19  22
ATOM     22  C   UNL     1      -1.757  12.367  22.963  0.00  0.00    +0.000 A 
ATOM     23  C   UNL     1      -1.113  13.556  23.341  0.00  0.00    +0.000 A 
ATOM     24  C   UNL     1      -1.836  14.627  23.854  0.00  0.00    +0.000 A 
ATOM     25  C   UNL     1      -3.216  14.519  23.999  0.00  0.00    +0.000 A 
ATOM     26  C   UNL     1      -3.886  13.342  23.622  0.00  0.00    +0.000 A 
ATOM     27  C   UNL     1      -3.148  12.264  23.091  0.00  0.00    +0.000 A 
BRANCH  26  28
ATOM     28  C   UNL     1      -5.378  13.221  23.820  0.00  0.00    +0.000 C 
ATOM     29  F   UNL     1      -5.985  14.396  24.145  0.00  0.00    +0.000 F 
ATOM     30  F   UNL     1      -6.012  12.768  22.702  0.00  0.00    +0.000 F 
ATOM     31  F   UNL     1      -5.701  12.347  24.812  0.00  0.00    +0.000 F 
ENDBRANCH  26  28
ENDBRANCH  19  22
ENDBRANCH   4  18
TORSDOF 7
ENDMDL
MODEL 2
REMARK VINA RESULT:      -7.9      0.561      1.381
REMARK  Name = 
REMARK  9 active torsions:
REMARK  status: ('A' for Active; 'I' for Inactive)
REMARK    1  A    between atoms: C_1  and  O_2
REMARK    2  A    between atoms: O_2  and  C_3
REMARK    3  A    between atoms: C_3  and  C_5
REMARK    4  A    between atoms: C_8  and  C_9
REMARK    5  A    between atoms: C_12  and  N_13
REMARK    6  A    between atoms: C_14  and  C_16
REMARK    7  A    between atoms: C_20  and  C_21
REMARK    8  A    between atoms: C_28  and  O_29
REMARK    9  A    between atoms: O_29  and  C_30
REMARK                            x       y       z     vdW  Elec       q    Type
REMARK                         _______ _______ _______ _____ _____    ______ ____
ROOT
ATOM      1  C   UNL     1       1.971   7.930  19.428  0.00  0.00    +0.000 A 
ATOM      2  C   UNL     1       1.586   9.020  18.653  0.00  0.00    +0.000 A 
ATOM      3  C   UNL     1       0.789  10.037  19.190  0.00  0.00    +0.000 A 
ATOM      4  C   UNL     1       0.355  10.000  20.518  0.00  0.00    +0.000 A 
ATOM      5  C   UNL     1       0.766   8.929  21.314  0.00  0.00    +0.000 A 
ATOM      6  C   UNL     1       1.560   7.903  20.774  0.00  0.00    +0.000 A 
ENDROOT
BRANCH   1  10
ATOM      7  C   UNL     1       3.754   4.713  18.521  0.00  0.00    +0.000 A 
ATOM      8  S   UNL     1       4.446   5.693  17.279  0.00  0.00    +0.000 S 
ATOM      9  C   UNL     1       3.557   7.062  17.746  0.00  0.00    +0.000 A 
ATOM     10  C   UNL     1       2.758   6.834  18.847  0.00  0.00    +0.000 A 
ATOM     11  C   UNL     1       2.832   5.443  19.258  0.00  0.00    +0.000 A 
BRANCH   7  12
ATOM     12  C   UNL     1       4.157   3.321  18.579  0.00  0.00    +0.000 C 
ATOM     13  O   UNL     1       3.855   2.438  17.784  0.00  0.00    +0.000 OA
BRANCH  12  15
ATOM     14  C   UNL     1       4.708   1.841  20.346  0.00  0.00    +0.000 C 
ATOM     15  O   UNL     1       4.905   3.099  19.699  0.00  0.00    +0.000 OA
ENDBRANCH  12  15
ENDBRANCH   7  12
BRANCH  11  16
ATOM     16  O   UNL     1       2.006   4.957  20.229  0.00  0.00    +0.000 OA
ATOM     17  C   UNL     1       1.060   3.976  19.827  0.00  0.00    +0.000 C 
ENDBRANCH  11  16
ENDBRANCH   1  10
BRANCH   4  18
ATOM     18  N   UNL     1      -0.487  10.989  21.093  0.00  0.00    +0.000 N 
ATOM     19  C   UNL     1      -0.671  11.187  22.452  0.00  0.00    +0.000 C 
ATOM     20  O   UNL     1      -0.134  10.554  23.357  0.00  0.00    +0.000 OA
ATOM     21  H   UNL     1      -0.908  11.649  20.450  0.00  0.00    +0.000 HD
BRANCH  19  22
ATOM     22  C   UNL     1      -1.577  12.289  22.877  0.00  0.00    +0.000 A 
ATOM     23  C   UNL     1      -0.962  13.495  23.249  0.00  0.00    +0.000 A 
ATOM     24  C   UNL     1      -1.705  14.538  23.789  0.00  0.00    +0.000 A 
ATOM     25  C   UNL     1      -3.077  14.386  23.966  0.00  0.00    +0.000 A 
ATOM     26  C   UNL     1      -3.719  13.191  23.596  0.00  0.00    +0.000 A 
ATOM     27  C   UNL     1      -2.960  12.141  23.038  0.00  0.00    +0.000 A 
BRANCH  26  28
ATOM     28  C   UNL     1      -5.201  13.021  23.828  0.00  0.00    +0.000 C 
ATOM     29  F   UNL     1      -5.870  12.520  22.753  0.00  0.00    +0.000 F 
ATOM     30  F   UNL     1      -5.468  12.176  24.863  0.00  0.00    +0.000 F 
ATOM     31  F   UNL     1      -5.816  14.196  24.136  0.00  0.00    +0.000 F 
ENDBRANCH  26  28
ENDBRANCH  19  22
ENDBRANCH   4  18
TORSDOF 7
ENDMDL
MODEL 3
REMARK VINA RESULT:      -7.9      5.671     10.914
REMARK  Name = 
REMARK  9 active torsions:
REMARK  status: ('A' for Active; 'I' for Inactive)
REMARK    1  A    between atoms: C_1  and  O_2
REMARK    2  A    between atoms: O_2  and  C_3
REMARK    3  A    between atoms: C_3  and  C_5
REMARK    4  A    between atoms: C_8  and  C_9
REMARK    5  A    between atoms: C_12  and  N_13
REMARK    6  A    between atoms: C_14  and  C_16
REMARK    7  A    between atoms: C_20  and  C_21
REMARK    8  A    between atoms: C_28  and  O_29
REMARK    9  A    between atoms: O_29  and  C_30
REMARK                            x       y       z     vdW  Elec       q    Type
REMARK                         _______ _______ _______ _____ _____    ______ ____
ROOT
ATOM      1  C   UNL     1      -0.238  10.938  21.705  0.00  0.00    +0.000 A 
ATOM      2  C   UNL     1       0.045  10.976  20.342  0.00  0.00    +0.000 A 
ATOM      3  C   UNL     1       0.744   9.933  19.725  0.00  0.00    +0.000 A 
ATOM      4  C   UNL     1       1.177   8.817  20.446  0.00  0.00    +0.000 A 
ATOM      5  C   UNL     1       0.866   8.753  21.806  0.00  0.00    +0.000 A 
ATOM      6  C   UNL     1       0.172   9.804  22.430  0.00  0.00    +0.000 A 
ENDROOT
BRANCH   1  10
ATOM      7  C   UNL     1      -1.318  14.166  23.369  0.00  0.00    +0.000 A 
ATOM      8  S   UNL     1      -2.799  13.307  23.595  0.00  0.00    +0.000 S 
ATOM      9  C   UNL     1      -2.224  11.930  22.787  0.00  0.00    +0.000 A 
ATOM     10  C   UNL     1      -0.918  12.062  22.363  0.00  0.00    +0.000 A 
ATOM     11  C   UNL     1      -0.414  13.393  22.653  0.00  0.00    +0.000 A 
BRANCH   7  12
ATOM     12  C   UNL     1      -1.247  15.525  23.869  0.00  0.00    +0.000 C 
ATOM     13  O   UNL     1      -1.777  16.514  23.376  0.00  0.00    +0.000 OA
BRANCH  12  15
ATOM     14  C   UNL     1      -1.108  15.824  26.216  0.00  0.00    +0.000 C 
ATOM     15  O   UNL     1      -0.447  15.573  24.974  0.00  0.00    +0.000 OA
ENDBRANCH  12  15
ENDBRANCH   7  12
BRANCH  11  16
ATOM     16  O   UNL     1       0.802  13.796  22.185  0.00  0.00    +0.000 OA
ATOM     17  C   UNL     1       0.798  14.576  20.996  0.00  0.00    +0.000 C 
ENDBRANCH  11  16
ENDBRANCH   1  10
BRANCH   4  18
ATOM     18  N   UNL     1       1.923   7.755  19.870  0.00  0.00    +0.000 N 
ATOM     19  C   UNL     1       2.351   7.704  18.553  0.00  0.00    +0.000 C 
ATOM     20  O   UNL     1       2.163   8.563  17.695  0.00  0.00    +0.000 OA
ATOM     21  H   UNL     1       2.236   7.030  20.504  0.00  0.00    +0.000 HD
BRANCH  19  22
ATOM     22  C   UNL     1       3.144   6.520  18.125  0.00  0.00    +0.000 A 
ATOM     23  C   UNL     1       4.235   6.772  17.278  0.00  0.00    +0.000 A 
ATOM     24  C   UNL     1       4.958   5.725  16.715  0.00  0.00    +0.000 A 
ATOM     25  C   UNL     1       4.593   4.411  16.991  0.00  0.00    +0.000 A 
ATOM     26  C   UNL     1       3.509   4.131  17.840  0.00  0.00    +0.000 A 
ATOM     27  C   UNL     1       2.788   5.198  18.418  0.00  0.00    +0.000 A 
BRANCH  26  28
ATOM     28  C   UNL     1       3.097   2.702  18.102  0.00  0.00    +0.000 C 
ATOM     29  F   UNL     1       1.832   2.412  17.689  0.00  0.00    +0.000 F 
ATOM     30  F   UNL     1       3.911   1.808  17.475  0.00  0.00    +0.000 F 
ATOM     31  F   UNL     1       3.140   2.384  19.424  0.00  0.00    +0.000 F 
ENDBRANCH  26  28
ENDBRANCH  19  22
ENDBRANCH   4  18
TORSDOF 7
ENDMDL
MODEL 4
REMARK VINA RESULT:      -7.9      6.194     11.208
REMARK  Name = 
REMARK  9 active torsions:
REMARK  status: ('A' for Active; 'I' for Inactive)
REMARK    1  A    between atoms: C_1  and  O_2
REMARK    2  A    between atoms: O_2  and  C_3
REMARK    3  A    between atoms: C_3  and  C_5
REMARK    4  A    between atoms: C_8  and  C_9
REMARK    5  A    between atoms: C_12  and  N_13
REMARK    6  A    between atoms: C_14  and  C_16
REMARK    7  A    between atoms: C_20  and  C_21
REMARK    8  A    between atoms: C_28  and  O_29
REMARK    9  A    between atoms: O_29  and  C_30
REMARK                            x       y       z     vdW  Elec       q    Type
REMARK                         _______ _______ _______ _____ _____    ______ ____
ROOT
ATOM      1  C   UNL     1      -0.048  10.776  21.666  0.00  0.00    +0.000 A 
ATOM      2  C   UNL     1       0.594   9.789  22.410  0.00  0.00    +0.000 A 
ATOM      3  C   UNL     1       1.227   8.712  21.778  0.00  0.00    +0.000 A 
ATOM      4  C   UNL     1       1.245   8.589  20.386  0.00  0.00    +0.000 A 
ATOM      5  C   UNL     1       0.636   9.594  19.631  0.00  0.00    +0.000 A 
ATOM      6  C   UNL     1      -0.008  10.671  20.264  0.00  0.00    +0.000 A 
ENDROOT
BRANCH   1  10
ATOM      7  C   UNL     1      -1.250  13.982  23.286  0.00  0.00    +0.000 A 
ATOM      8  S   UNL     1      -2.640  13.025  23.657  0.00  0.00    +0.000 S 
ATOM      9  C   UNL     1      -2.020  11.662  22.859  0.00  0.00    +0.000 A 
ATOM     10  C   UNL     1      -0.763  11.872  22.332  0.00  0.00    +0.000 A 
ATOM     11  C   UNL     1      -0.344  13.249  22.532  0.00  0.00    +0.000 A 
BRANCH   7  12
ATOM     12  C   UNL     1      -1.249  15.363  23.728  0.00  0.00    +0.000 C 
ATOM     13  O   UNL     1      -1.733  16.321  23.137  0.00  0.00    +0.000 OA
BRANCH  12  15
ATOM     14  C   UNL     1      -1.365  15.787  26.057  0.00  0.00    +0.000 C 
ATOM     15  O   UNL     1      -0.574  15.473  24.910  0.00  0.00    +0.000 OA
ENDBRANCH  12  15
ENDBRANCH   7  12
BRANCH  11  16
ATOM     16  O   UNL     1       0.799  13.722  21.958  0.00  0.00    +0.000 OA
ATOM     17  C   UNL     1       0.655  14.380  20.706  0.00  0.00    +0.000 C 
ENDBRANCH  11  16
ENDBRANCH   1  10
BRANCH   4  18
ATOM     18  N   UNL     1       1.840   7.495  19.705  0.00  0.00    +0.000 N 
ATOM     19  C   UNL     1       2.561   7.587  18.524  0.00  0.00    +0.000 C 
ATOM     20  O   UNL     1       2.800   8.616  17.899  0.00  0.00    +0.000 OA
ATOM     21  H   UNL     1       1.805   6.600  20.177  0.00  0.00    +0.000 HD
BRANCH  19  22
ATOM     22  C   UNL     1       3.135   6.335  17.962  0.00  0.00    +0.000 A 
ATOM     23  C   UNL     1       2.311   5.199  17.994  0.00  0.00    +0.000 A 
ATOM     24  C   UNL     1       2.798   3.952  17.618  0.00  0.00    +0.000 A 
ATOM     25  C   UNL     1       4.122   3.827  17.208  0.00  0.00    +0.000 A 
ATOM     26  C   UNL     1       4.967   4.949  17.160  0.00  0.00    +0.000 A 
ATOM     27  C   UNL     1       4.462   6.213  17.531  0.00  0.00    +0.000 A 
BRANCH  26  28
ATOM     28  C   UNL     1       6.412   4.795  16.751  0.00  0.00    +0.000 C 
ATOM     29  F   UNL     1       7.236   4.433  17.774  0.00  0.00    +0.000 F 
ATOM     30  F   UNL     1       6.577   3.850  15.784  0.00  0.00    +0.000 F 
ATOM     31  F   UNL     1       6.932   5.945  16.242  0.00  0.00    +0.000 F 
ENDBRANCH  26  28
ENDBRANCH  19  22
ENDBRANCH   4  18
TORSDOF 7
ENDMDL
MODEL 5
REMARK VINA RESULT:      -7.8      2.321      2.909
REMARK  Name = 
REMARK  9 active torsions:
REMARK  status: ('A' for Active; 'I' for Inactive)
REMARK    1  A    between atoms: C_1  and  O_2
REMARK    2  A    between atoms: O_2  and  C_3
REMARK    3  A    between atoms: C_3  and  C_5
REMARK    4  A    between atoms: C_8  and  C_9
REMARK    5  A    between atoms: C_12  and  N_13
REMARK    6  A    between atoms: C_14  and  C_16
REMARK    7  A    between atoms: C_20  and  C_21
REMARK    8  A    between atoms: C_28  and  O_29
REMARK    9  A    between atoms: O_29  and  C_30
REMARK                            x       y       z     vdW  Elec       q    Type
REMARK                         _______ _______ _______ _____ _____    ______ ____
ROOT
ATOM      1  C   UNL     1       2.896   7.119  18.406  0.00  0.00    +0.000 A 
ATOM      2  C   UNL     1       2.456   7.015  19.723  0.00  0.00    +0.000 A 
ATOM      3  C   UNL     1       1.726   8.049  20.319  0.00  0.00    +0.000 A 
ATOM      4  C   UNL     1       1.407   9.216  19.619  0.00  0.00    +0.000 A 
ATOM      5  C   UNL     1       1.812   9.313  18.286  0.00  0.00    +0.000 A 
ATOM      6  C   UNL     1       2.554   8.280  17.688  0.00  0.00    +0.000 A 
ENDROOT
BRANCH   1  10
ATOM      7  C   UNL     1       5.446   4.955  16.627  0.00  0.00    +0.000 A 
ATOM      8  S   UNL     1       4.318   3.697  16.985  0.00  0.00    +0.000 S 
ATOM      9  C   UNL     1       3.271   4.753  17.803  0.00  0.00    +0.000 A 
ATOM     10  C   UNL     1       3.714   6.059  17.801  0.00  0.00    +0.000 A 
ATOM     11  C   UNL     1       5.016   6.160  17.164  0.00  0.00    +0.000 A 
BRANCH   7  12
ATOM     12  C   UNL     1       6.654   4.588  15.914  0.00  0.00    +0.000 C 
ATOM     13  O   UNL     1       7.665   4.090  16.395  0.00  0.00    +0.000 OA
BRANCH  12  15
ATOM     14  C   UNL     1       6.123   3.876  13.717  0.00  0.00    +0.000 C 
ATOM     15  O   UNL     1       6.536   4.923  14.596  0.00  0.00    +0.000 OA
ENDBRANCH  12  15
ENDBRANCH   7  12
BRANCH  11  16
ATOM     16  O   UNL     1       5.715   7.331  17.186  0.00  0.00    +0.000 OA
ATOM     17  C   UNL     1       7.052   7.264  17.663  0.00  0.00    +0.000 C 
ENDBRANCH  11  16
ENDBRANCH   1  10
BRANCH   4  18
ATOM     18  N   UNL     1       0.702  10.306  20.195  0.00  0.00    +0.000 N 
ATOM     19  C   UNL     1      -0.110  10.227  21.316  0.00  0.00    +0.000 C 
ATOM     20  O   UNL     1      -0.335   9.219  21.979  0.00  0.00    +0.000 OA
ATOM     21  H   UNL     1       0.890  11.220  19.802  0.00  0.00    +0.000 HD
BRANCH  19  22
ATOM     22  C   UNL     1      -0.754  11.479  21.796  0.00  0.00    +0.000 A 
ATOM     23  C   UNL     1      -0.039  12.669  21.588  0.00  0.00    +0.000 A 
ATOM     24  C   UNL     1      -0.489  13.874  22.118  0.00  0.00    +0.000 A 
ATOM     25  C   UNL     1      -1.661  13.901  22.867  0.00  0.00    +0.000 A 
ATOM     26  C   UNL     1      -2.400  12.725  23.085  0.00  0.00    +0.000 A 
ATOM     27  C   UNL     1      -1.944  11.509  22.534  0.00  0.00    +0.000 A 
BRANCH  26  28
ATOM     28  C   UNL     1      -3.649  12.758  23.932  0.00  0.00    +0.000 C 
ATOM     29  F   UNL     1      -3.659  13.759  24.855  0.00  0.00    +0.000 F 
ATOM     30  F   UNL     1      -4.775  12.926  23.184  0.00  0.00    +0.000 F 
ATOM     31  F   UNL     1      -3.833  11.604  24.630  0.00  0.00    +0.000 F 
ENDBRANCH  26  28
ENDBRANCH  19  22
ENDBRANCH   4  18
TORSDOF 7
ENDMDL
MODEL 6
REMARK VINA RESULT:      -7.8      2.683      3.327
REMARK  Name = 
REMARK  9 active torsions:
REMARK  status: ('A' for Active; 'I' for Inactive)
REMARK    1  A    between atoms: C_1  and  O_2
REMARK    2  A    between atoms: O_2  and  C_3
REMARK    3  A    between atoms: C_3  and  C_5
REMARK    4  A    between atoms: C_8  and  C_9
REMARK    5  A    between atoms: C_12  and  N_13
REMARK    6  A    between atoms: C_14  and  C_16
REMARK    7  A    between atoms: C_20  and  C_21
REMARK    8  A    between atoms: C_28  and  O_29
REMARK    9  A    between atoms: O_29  and  C_30
REMARK                            x       y       z     vdW  Elec       q    Type
REMARK                         _______ _______ _______ _____ _____    ______ ____
ROOT
ATOM      1  C   UNL     1       2.885   7.116  18.327  0.00  0.00    +0.000 A 
ATOM      2  C   UNL     1       2.502   7.024  19.662  0.00  0.00    +0.000 A 
ATOM      3  C   UNL     1       1.700   8.010  20.249  0.00  0.00    +0.000 A 
ATOM      4  C   UNL     1       1.250   9.114  19.520  0.00  0.00    +0.000 A 
ATOM      5  C   UNL     1       1.599   9.196  18.170  0.00  0.00    +0.000 A 
ATOM      6  C   UNL     1       2.411   8.212  17.582  0.00  0.00    +0.000 A 
ENDROOT
BRANCH   1  10
ATOM      7  C   UNL     1       5.586   5.126  16.569  0.00  0.00    +0.000 A 
ATOM      8  S   UNL     1       4.541   3.796  16.921  0.00  0.00    +0.000 S 
ATOM      9  C   UNL     1       3.421   4.780  17.730  0.00  0.00    +0.000 A 
ATOM     10  C   UNL     1       3.776   6.113  17.729  0.00  0.00    +0.000 A 
ATOM     11  C   UNL     1       5.073   6.300  17.102  0.00  0.00    +0.000 A 
BRANCH   7  12
ATOM     12  C   UNL     1       6.822   4.840  15.866  0.00  0.00    +0.000 C 
ATOM     13  O   UNL     1       7.855   4.396  16.352  0.00  0.00    +0.000 OA
BRANCH  12  15
ATOM     14  C   UNL     1       6.411   4.116  13.647  0.00  0.00    +0.000 C 
ATOM     15  O   UNL     1       6.698   5.184  14.550  0.00  0.00    +0.000 OA
ENDBRANCH  12  15
ENDBRANCH   7  12
BRANCH  11  16
ATOM     16  O   UNL     1       5.692   7.515  17.127  0.00  0.00    +0.000 OA
ATOM     17  C   UNL     1       7.027   7.538  17.614  0.00  0.00    +0.000 C 
ENDBRANCH  11  16
ENDBRANCH   1  10
BRANCH   4  18
ATOM     18  N   UNL     1       0.469  10.157  20.084  0.00  0.00    +0.000 N 
ATOM     19  C   UNL     1       0.787  11.506  20.040  0.00  0.00    +0.000 C 
ATOM     20  O   UNL     1       1.775  12.001  19.504  0.00  0.00    +0.000 OA
ATOM     21  H   UNL     1      -0.431   9.889  20.464  0.00  0.00    +0.000 HD
BRANCH  19  22
ATOM     22  C   UNL     1      -0.163  12.465  20.666  0.00  0.00    +0.000 A 
ATOM     23  C   UNL     1       0.177  13.824  20.585  0.00  0.00    +0.000 A 
ATOM     24  C   UNL     1      -0.571  14.788  21.252  0.00  0.00    +0.000 A 
ATOM     25  C   UNL     1      -1.671  14.400  22.012  0.00  0.00    +0.000 A 
ATOM     26  C   UNL     1      -2.037  13.046  22.104  0.00  0.00    +0.000 A 
ATOM     27  C   UNL     1      -1.280  12.076  21.415  0.00  0.00    +0.000 A 
BRANCH  26  28
ATOM     28  C   UNL     1      -3.208  12.633  22.963  0.00  0.00    +0.000 C 
ATOM     29  F   UNL     1      -4.322  12.305  22.250  0.00  0.00    +0.000 F 
ATOM     30  F   UNL     1      -2.924  11.547  23.735  0.00  0.00    +0.000 F 
ATOM     31  F   UNL     1      -3.592  13.614  23.825  0.00  0.00    +0.000 F 
ENDBRANCH  26  28
ENDBRANCH  19  22
ENDBRANCH   4  18
TORSDOF 7
ENDMDL
MODEL 7
REMARK VINA RESULT:      -7.8      2.305      3.002
REMARK  Name = 
REMARK  9 active torsions:
REMARK  status: ('A' for Active; 'I' for Inactive)
REMARK    1  A    between atoms: C_1  and  O_2
REMARK    2  A    between atoms: O_2  and  C_3
REMARK    3  A    between atoms: C_3  and  C_5
REMARK    4  A    between atoms: C_8  and  C_9
REMARK    5  A    between atoms: C_12  and  N_13
REMARK    6  A    between atoms: C_14  and  C_16
REMARK    7  A    between atoms: C_20  and  C_21
REMARK    8  A    between atoms: C_28  and  O_29
REMARK    9  A    between atoms: O_29  and  C_30
REMARK                            x       y       z     vdW  Elec       q    Type
REMARK                         _______ _______ _______ _____ _____    ______ ____
ROOT
ATOM      1  C   UNL     1       2.500   7.342  18.570  0.00  0.00    +0.000 A 
ATOM      2  C   UNL     1       2.116   8.454  17.826  0.00  0.00    +0.000 A 
ATOM      3  C   UNL     1       1.370   9.485  18.408  0.00  0.00    +0.000 A 
ATOM      4  C   UNL     1       0.990   9.442  19.753  0.00  0.00    +0.000 A 
ATOM      5  C   UNL     1       1.403   8.348  20.517  0.00  0.00    +0.000 A 
ATOM      6  C   UNL     1       2.144   7.308  19.931  0.00  0.00    +0.000 A 
ENDROOT
BRANCH   1  10
ATOM      7  C   UNL     1       4.821   5.026  16.673  0.00  0.00    +0.000 A 
ATOM      8  S   UNL     1       3.687   3.823  17.173  0.00  0.00    +0.000 S 
ATOM      9  C   UNL     1       2.747   4.944  18.033  0.00  0.00    +0.000 A 
ATOM     10  C   UNL     1       3.230   6.233  17.942  0.00  0.00    +0.000 A 
ATOM     11  C   UNL     1       4.476   6.264  17.196  0.00  0.00    +0.000 A 
BRANCH   7  12
ATOM     12  C   UNL     1       5.952   4.591  15.877  0.00  0.00    +0.000 C 
ATOM     13  O   UNL     1       6.986   4.079  16.293  0.00  0.00    +0.000 OA
BRANCH  12  15
ATOM     14  C   UNL     1       6.015   3.825  13.635  0.00  0.00    +0.000 C 
ATOM     15  O   UNL     1       5.732   4.876  14.561  0.00  0.00    +0.000 OA
ENDBRANCH  12  15
ENDBRANCH   7  12
BRANCH  11  16
ATOM     16  O   UNL     1       5.212   7.410  17.113  0.00  0.00    +0.000 OA
ATOM     17  C   UNL     1       6.568   7.325  17.528  0.00  0.00    +0.000 C 
ENDBRANCH  11  16
ENDBRANCH   1  10
BRANCH   4  18
ATOM     18  N   UNL     1       0.202  10.446  20.375  0.00  0.00    +0.000 N 
ATOM     19  C   UNL     1       0.701  11.566  21.020  0.00  0.00    +0.000 C 
ATOM     20  O   UNL     1       1.885  11.865  21.142  0.00  0.00    +0.000 OA
ATOM     21  H   UNL     1      -0.800  10.370  20.250  0.00  0.00    +0.000 HD
BRANCH  19  22
ATOM     22  C   UNL     1      -0.276  12.529  21.597  0.00  0.00    +0.000 A 
ATOM     23  C   UNL     1       0.163  13.854  21.743  0.00  0.00    +0.000 A 
ATOM     24  C   UNL     1      -0.622  14.799  22.393  0.00  0.00    +0.000 A 
ATOM     25  C   UNL     1      -1.860  14.427  22.910  0.00  0.00    +0.000 A 
ATOM     26  C   UNL     1      -2.326  13.108  22.772  0.00  0.00    +0.000 A 
ATOM     27  C   UNL     1      -1.529  12.158  22.100  0.00  0.00    +0.000 A 
BRANCH  26  28
ATOM     28  C   UNL     1      -3.653  12.705  23.371  0.00  0.00    +0.000 C 
ATOM     29  F   UNL     1      -3.568  11.655  24.234  0.00  0.00    +0.000 F 
ATOM     30  F   UNL     1      -4.234  13.720  24.069  0.00  0.00    +0.000 F 
ATOM     31  F   UNL     1      -4.558  12.337  22.423  0.00  0.00    +0.000 F 
ENDBRANCH  26  28
ENDBRANCH  19  22
ENDBRANCH   4  18
TORSDOF 7
ENDMDL
MODEL 8
REMARK VINA RESULT:      -7.8      2.528      3.378
REMARK  Name = 
REMARK  9 active torsions:
REMARK  status: ('A' for Active; 'I' for Inactive)
REMARK    1  A    between atoms: C_1  and  O_2
REMARK    2  A    between atoms: O_2  and  C_3
REMARK    3  A    between atoms: C_3  and  C_5
REMARK    4  A    between atoms: C_8  and  C_9
REMARK    5  A    between atoms: C_12  and  N_13
REMARK    6  A    between atoms: C_14  and  C_16
REMARK    7  A    between atoms: C_20  and  C_21
REMARK    8  A    between atoms: C_28  and  O_29
REMARK    9  A    between atoms: O_29  and  C_30
REMARK                            x       y       z     vdW  Elec       q    Type
REMARK                         _______ _______ _______ _____ _____    ______ ____
ROOT
ATOM      1  C   UNL     1       2.921   7.145  18.674  0.00  0.00    +0.000 A 
ATOM      2  C   UNL     1       2.662   8.191  17.792  0.00  0.00    +0.000 A 
ATOM      3  C   UNL     1       1.782   9.222  18.140  0.00  0.00    +0.000 A 
ATOM      4  C   UNL     1       1.137   9.245  19.380  0.00  0.00    +0.000 A 
ATOM      5  C   UNL     1       1.419   8.219  20.285  0.00  0.00    +0.000 A 
ATOM      6  C   UNL     1       2.295   7.178  19.934  0.00  0.00    +0.000 A 
ENDROOT
BRANCH   1  10
ATOM      7  C   UNL     1       5.521   4.793  17.240  0.00  0.00    +0.000 A 
ATOM      8  S   UNL     1       4.605   3.600  18.090  0.00  0.00    +0.000 S 
ATOM      9  C   UNL     1       3.526   4.751  18.714  0.00  0.00    +0.000 A 
ATOM     10  C   UNL     1       3.798   6.033  18.284  0.00  0.00    +0.000 A 
ATOM     11  C   UNL     1       5.001   6.059  17.471  0.00  0.00    +0.000 A 
BRANCH   7  12
ATOM     12  C   UNL     1       6.684   4.344  16.499  0.00  0.00    +0.000 C 
ATOM     13  O   UNL     1       7.843   4.328  16.895  0.00  0.00    +0.000 OA
BRANCH  12  15
ATOM     14  C   UNL     1       6.836   4.761  14.171  0.00  0.00    +0.000 C 
ATOM     15  O   UNL     1       6.315   3.968  15.239  0.00  0.00    +0.000 OA
ENDBRANCH  12  15
ENDBRANCH   7  12
BRANCH  11  16
ATOM     16  O   UNL     1       5.544   7.243  17.066  0.00  0.00    +0.000 OA
ATOM     17  C   UNL     1       6.837   7.554  17.569  0.00  0.00    +0.000 C 
ENDBRANCH  11  16
ENDBRANCH   1  10
BRANCH   4  18
ATOM     18  N   UNL     1       0.207  10.248  19.759  0.00  0.00    +0.000 N 
ATOM     19  C   UNL     1       0.460  11.270  20.661  0.00  0.00    +0.000 C 
ATOM     20  O   UNL     1       1.516  11.468  21.255  0.00  0.00    +0.000 OA
ATOM     21  H   UNL     1      -0.672  10.259  19.256  0.00  0.00    +0.000 HD
BRANCH  19  22
ATOM     22  C   UNL     1      -0.628  12.251  20.923  0.00  0.00    +0.000 A 
ATOM     23  C   UNL     1      -0.343  13.269  21.847  0.00  0.00    +0.000 A 
ATOM     24  C   UNL     1      -1.332  14.154  22.262  0.00  0.00    +0.000 A 
ATOM     25  C   UNL     1      -2.623  14.028  21.758  0.00  0.00    +0.000 A 
ATOM     26  C   UNL     1      -2.934  13.021  20.827  0.00  0.00    +0.000 A 
ATOM     27  C   UNL     1      -1.922  12.134  20.402  0.00  0.00    +0.000 A 
BRANCH  26  28
ATOM     28  C   UNL     1      -4.346  12.868  20.317  0.00  0.00    +0.000 C 
ATOM     29  F   UNL     1      -4.432  12.200  19.133  0.00  0.00    +0.000 F 
ATOM     30  F   UNL     1      -5.140  12.188  21.190  0.00  0.00    +0.000 F 
ATOM     31  F   UNL     1      -4.957  14.068  20.113  0.00  0.00    +0.000 F 
ENDBRANCH  26  28
ENDBRANCH  19  22
ENDBRANCH   4  18
TORSDOF 7
ENDMDL
MODEL 9
REMARK VINA RESULT:      -7.8      2.667      3.367
REMARK  Name = 
REMARK  9 active torsions:
REMARK  status: ('A' for Active; 'I' for Inactive)
REMARK    1  A    between atoms: C_1  and  O_2
REMARK    2  A    between atoms: O_2  and  C_3
REMARK    3  A    between atoms: C_3  and  C_5
REMARK    4  A    between atoms: C_8  and  C_9
REMARK    5  A    between atoms: C_12  and  N_13
REMARK    6  A    between atoms: C_14  and  C_16
REMARK    7  A    between atoms: C_20  and  C_21
REMARK    8  A    between atoms: C_28  and  O_29
REMARK    9  A    between atoms: O_29  and  C_30
REMARK                            x       y       z     vdW  Elec       q    Type
REMARK                         _______ _______ _______ _____ _____    ______ ____
ROOT
ATOM      1  C   UNL     1       2.966   7.190  18.284  0.00  0.00    +0.000 A 
ATOM      2  C   UNL     1       2.791   8.327  17.500  0.00  0.00    +0.000 A 
ATOM      3  C   UNL     1       2.054   9.418  17.972  0.00  0.00    +0.000 A 
ATOM      4  C   UNL     1       1.472   9.412  19.242  0.00  0.00    +0.000 A 
ATOM      5  C   UNL     1       1.673   8.291  20.050  0.00  0.00    +0.000 A 
ATOM      6  C   UNL     1       2.405   7.190  19.575  0.00  0.00    +0.000 A 
ENDROOT
BRANCH   1  10
ATOM      7  C   UNL     1       5.286   4.690  16.636  0.00  0.00    +0.000 A 
ATOM      8  S   UNL     1       4.116   3.551  17.198  0.00  0.00    +0.000 S 
ATOM      9  C   UNL     1       3.178   4.753  17.942  0.00  0.00    +0.000 A 
ATOM     10  C   UNL     1       3.689   6.021  17.764  0.00  0.00    +0.000 A 
ATOM     11  C   UNL     1       4.954   5.972  17.051  0.00  0.00    +0.000 A 
BRANCH   7  12
ATOM     12  C   UNL     1       6.428   4.173  15.907  0.00  0.00    +0.000 C 
ATOM     13  O   UNL     1       7.610   4.353  16.176  0.00  0.00    +0.000 OA
BRANCH  12  15
ATOM     14  C   UNL     1       6.342   4.030  13.543  0.00  0.00    +0.000 C 
ATOM     15  O   UNL     1       6.005   3.473  14.814  0.00  0.00    +0.000 OA
ENDBRANCH  12  15
ENDBRANCH   7  12
BRANCH  11  16
ATOM     16  O   UNL     1       5.714   7.094  16.899  0.00  0.00    +0.000 OA
ATOM     17  C   UNL     1       6.849   7.212  17.746  0.00  0.00    +0.000 C 
ENDBRANCH  11  16
ENDBRANCH   1  10
BRANCH   4  18
ATOM     18  N   UNL     1       0.683  10.480  19.746  0.00  0.00    +0.000 N 
ATOM     19  C   UNL     1      -0.640  10.720  19.412  0.00  0.00    +0.000 C 
ATOM     20  O   UNL     1      -1.329  10.050  18.647  0.00  0.00    +0.000 OA
ATOM     21  H   UNL     1       1.105  11.046  20.472  0.00  0.00    +0.000 HD
BRANCH  19  22
ATOM     22  C   UNL     1      -1.321  11.876  20.056  0.00  0.00    +0.000 A 
ATOM     23  C   UNL     1      -0.968  13.151  19.586  0.00  0.00    +0.000 A 
ATOM     24  C   UNL     1      -1.443  14.299  20.210  0.00  0.00    +0.000 A 
ATOM     25  C   UNL     1      -2.277  14.184  21.318  0.00  0.00    +0.000 A 
ATOM     26  C   UNL     1      -2.651  12.920  21.806  0.00  0.00    +0.000 A 
ATOM     27  C   UNL     1      -2.174  11.760  21.160  0.00  0.00    +0.000 A 
BRANCH  26  28
ATOM     28  C   UNL     1      -3.524  12.806  23.032  0.00  0.00    +0.000 C 
ATOM     29  F   UNL     1      -3.500  13.913  23.826  0.00  0.00    +0.000 F 
ATOM     30  F   UNL     1      -4.833  12.600  22.717  0.00  0.00    +0.000 F 
ATOM     31  F   UNL     1      -3.163  11.765  23.831  0.00  0.00    +0.000 F 
ENDBRANCH  26  28
ENDBRANCH  19  22
ENDBRANCH   4  18
TORSDOF 7
ENDMDL
