MODEL 1
REMARK VINA RESULT:      -7.9      0.000      0.000
REMARK  Name = 
REMARK  3 active torsions:
REMARK  status: ('A' for Active; 'I' for Inactive)
REMARK    1  A    between atoms: C_1  and  C_2
REMARK    2  A    between atoms: N_12  and  C_13
REMARK    3  A    between atoms: C_13  and  C_14
REMARK                            x       y       z     vdW  Elec       q    Type
REMARK                         _______ _______ _______ _____ _____    ______ ____
ROOT
ATOM      1  C   UNL     1       7.391   4.169  11.585  0.00  0.00    +0.000 C 
ATOM      2  C   UNL     1       6.932   4.487  12.971  0.00  0.00    +0.000 A 
ATOM      3  C   UNL     1       5.664   4.181  13.412  0.00  0.00    +0.000 A 
ATOM      4  C   UNL     1       5.326   4.471  14.724  0.00  0.00    +0.000 A 
ATOM      5  C   UNL     1       6.256   5.077  15.578  0.00  0.00    +0.000 A 
ATOM      6  N   UNL     1       5.910   5.373  16.870  0.00  0.00    +0.000 N 
ATOM      7  C   UNL     1       6.559   6.474  17.596  0.00  0.00    +0.000 C 
ATOM      8  C   UNL     1       7.175   5.997  18.917  0.00  0.00    +0.000 C 
ATOM      9  O   UNL     1       6.272   5.201  19.687  0.00  0.00    +0.000 OA
ATOM     10  C   UNL     1       5.794   4.051  18.952  0.00  0.00    +0.000 C 
ATOM     11  C   UNL     1       4.626   3.476  19.756  0.00  0.00    +0.000 C 
ATOM     12  N   UNL     1       3.367   4.096  19.244  0.00  0.00    +0.000 NA
ATOM     13  C   UNL     1       3.783   5.000  18.143  0.00  0.00    +0.000 C 
ATOM     14  C   UNL     1       5.113   4.427  17.643  0.00  0.00    +0.000 C 
ATOM     15  N   UNL     1       7.472   5.378  15.087  0.00  0.00    +0.000 NA
ATOM     16  N   UNL     1       7.827   5.076  13.792  0.00  0.00    +0.000 NA
ENDROOT
BRANCH  12  17
ATOM     17  C   UNL     1       2.667   4.836  20.313  0.00  0.00    +0.000 C 
BRANCH  17  18
ATOM     18  C   UNL     1       1.377   4.194  20.748  0.00  0.00    +0.000 C 
ATOM     19  C   UNL     1       0.767   2.994  20.072  0.00  0.00    +0.000 C 
ATOM     20  C   UNL     1       1.314   2.856  21.470  0.00  0.00    +0.000 C 
ENDBRANCH  17  18
ENDBRANCH  12  17
TORSDOF 2
ENDMDL
MODEL 2
REMARK VINA RESULT:      -7.7      2.629      6.781
REMARK  Name = 
REMARK  3 active torsions:
REMARK  status: ('A' for Active; 'I' for Inactive)
REMARK    1  A    between atoms: C_1  and  C_2
REMARK    2  A    between atoms: N_12  and  C_13
REMARK    3  A    between atoms: C_13  and  C_14
REMARK                            x       y       z     vdW  Elec       q    Type
REMARK                         _______ _______ _______ _____ _____    ______ ____
ROOT
ATOM      1  C   UNL     1       0.460  10.115  19.964  0.00  0.00    +0.000 C 
ATOM      2  C   UNL     1       1.334   9.034  19.418  0.00  0.00    +0.000 A 
ATOM      3  C   UNL     1       1.904   9.112  18.167  0.00  0.00    +0.000 A 
ATOM      4  C   UNL     1       2.735   8.087  17.746  0.00  0.00    +0.000 A 
ATOM      5  C   UNL     1       2.977   6.985  18.578  0.00  0.00    +0.000 A 
ATOM      6  N   UNL     1       3.790   5.968  18.150  0.00  0.00    +0.000 N 
ATOM      7  C   UNL     1       3.624   4.600  18.659  0.00  0.00    +0.000 C 
ATOM      8  C   UNL     1       4.927   4.057  19.260  0.00  0.00    +0.000 C 
ATOM      9  O   UNL     1       6.053   4.263  18.405  0.00  0.00    +0.000 OA
ATOM     10  C   UNL     1       6.238   5.657  18.071  0.00  0.00    +0.000 C 
ATOM     11  C   UNL     1       7.256   5.699  16.930  0.00  0.00    +0.000 C 
ATOM     12  N   UNL     1       6.501   5.681  15.640  0.00  0.00    +0.000 NA
ATOM     13  C   UNL     1       5.066   5.654  16.015  0.00  0.00    +0.000 C 
ATOM     14  C   UNL     1       5.012   6.276  17.414  0.00  0.00    +0.000 C 
ATOM     15  N   UNL     1       2.373   6.947  19.779  0.00  0.00    +0.000 NA
ATOM     16  N   UNL     1       1.562   7.969  20.217  0.00  0.00    +0.000 NA
ENDROOT
BRANCH  12  17
ATOM     17  C   UNL     1       6.868   4.504  14.828  0.00  0.00    +0.000 C 
BRANCH  17  18
ATOM     18  C   UNL     1       6.350   4.558  13.416  0.00  0.00    +0.000 C 
ATOM     19  C   UNL     1       7.140   4.110  12.215  0.00  0.00    +0.000 C 
ATOM     20  C   UNL     1       5.928   3.320  12.637  0.00  0.00    +0.000 C 
ENDBRANCH  17  18
ENDBRANCH  12  17
TORSDOF 2
ENDMDL
MODEL 3
REMARK VINA RESULT:      -7.3      2.452      6.399
REMARK  Name = 
REMARK  3 active torsions:
REMARK  status: ('A' for Active; 'I' for Inactive)
REMARK    1  A    between atoms: C_1  and  C_2
REMARK    2  A    between atoms: N_12  and  C_13
REMARK    3  A    between atoms: C_13  and  C_14
REMARK                            x       y       z     vdW  Elec       q    Type
REMARK                         _______ _______ _______ _____ _____    ______ ____
ROOT
ATOM      1  C   UNL     1       0.320   2.436  18.923  0.00  0.00    +0.000 C 
ATOM      2  C   UNL     1       1.521   3.166  18.418  0.00  0.00    +0.000 A 
ATOM      3  C   UNL     1       1.909   4.384  18.929  0.00  0.00    +0.000 A 
ATOM      4  C   UNL     1       3.057   4.981  18.438  0.00  0.00    +0.000 A 
ATOM      5  C   UNL     1       3.802   4.358  17.426  0.00  0.00    +0.000 A 
ATOM      6  N   UNL     1       4.930   4.960  16.935  0.00  0.00    +0.000 N 
ATOM      7  C   UNL     1       5.392   4.700  15.564  0.00  0.00    +0.000 C 
ATOM      8  C   UNL     1       6.844   4.207  15.539  0.00  0.00    +0.000 C 
ATOM      9  O   UNL     1       7.711   5.014  16.338  0.00  0.00    +0.000 OA
ATOM     10  C   UNL     1       7.269   5.097  17.712  0.00  0.00    +0.000 C 
ATOM     11  C   UNL     1       8.085   6.215  18.364  0.00  0.00    +0.000 C 
ATOM     12  N   UNL     1       7.311   7.486  18.232  0.00  0.00    +0.000 NA
ATOM     13  C   UNL     1       6.052   7.119  17.537  0.00  0.00    +0.000 C 
ATOM     14  C   UNL     1       5.850   5.632  17.846  0.00  0.00    +0.000 C 
ATOM     15  N   UNL     1       3.363   3.181  16.944  0.00  0.00    +0.000 NA
ATOM     16  N   UNL     1       2.235   2.568  17.440  0.00  0.00    +0.000 NA
ENDROOT
BRANCH  12  17
ATOM     17  C   UNL     1       8.073   8.494  17.470  0.00  0.00    +0.000 C 
BRANCH  17  18
ATOM     18  C   UNL     1       8.232   9.806  18.191  0.00  0.00    +0.000 C 
ATOM     19  C   UNL     1       9.225  10.040  19.298  0.00  0.00    +0.000 C 
ATOM     20  C   UNL     1       9.417  10.736  17.975  0.00  0.00    +0.000 C 
ENDBRANCH  17  18
ENDBRANCH  12  17
TORSDOF 2
ENDMDL
MODEL 4
REMARK VINA RESULT:      -7.2      2.436      6.919
REMARK  Name = 
REMARK  3 active torsions:
REMARK  status: ('A' for Active; 'I' for Inactive)
REMARK    1  A    between atoms: C_1  and  C_2
REMARK    2  A    between atoms: N_12  and  C_13
REMARK    3  A    between atoms: C_13  and  C_14
REMARK                            x       y       z     vdW  Elec       q    Type
REMARK                         _______ _______ _______ _____ _____    ______ ____
ROOT
ATOM      1  C   UNL     1       0.414   9.610  21.144  0.00  0.00    +0.000 C 
ATOM      2  C   UNL     1       1.158   8.501  20.475  0.00  0.00    +0.000 A 
ATOM      3  C   UNL     1       1.759   8.657  19.245  0.00  0.00    +0.000 A 
ATOM      4  C   UNL     1       2.464   7.594  18.707  0.00  0.00    +0.000 A 
ATOM      5  C   UNL     1       2.550   6.378  19.399  0.00  0.00    +0.000 A 
ATOM      6  N   UNL     1       3.239   5.326  18.854  0.00  0.00    +0.000 N 
ATOM      7  C   UNL     1       2.894   3.938  19.192  0.00  0.00    +0.000 C 
ATOM      8  C   UNL     1       4.106   3.167  19.728  0.00  0.00    +0.000 C 
ATOM      9  O   UNL     1       5.267   3.331  18.911  0.00  0.00    +0.000 OA
ATOM     10  C   UNL     1       5.630   4.721  18.751  0.00  0.00    +0.000 C 
ATOM     11  C   UNL     1       6.669   4.772  17.628  0.00  0.00    +0.000 C 
ATOM     12  N   UNL     1       5.944   5.004  16.342  0.00  0.00    +0.000 NA
ATOM     13  C   UNL     1       4.509   5.113  16.703  0.00  0.00    +0.000 C 
ATOM     14  C   UNL     1       4.504   5.564  18.168  0.00  0.00    +0.000 C 
ATOM     15  N   UNL     1       1.921   6.272  20.583  0.00  0.00    +0.000 NA
ATOM     16  N   UNL     1       1.236   7.328  21.138  0.00  0.00    +0.000 NA
ENDROOT
BRANCH  12  17
ATOM     17  C   UNL     1       6.179   3.897  15.394  0.00  0.00    +0.000 C 
BRANCH  17  18
ATOM     18  C   UNL     1       5.938   4.271  13.956  0.00  0.00    +0.000 C 
ATOM     19  C   UNL     1       7.034   4.635  12.989  0.00  0.00    +0.000 C 
ATOM     20  C   UNL     1       6.271   3.351  12.790  0.00  0.00    +0.000 C 
ENDBRANCH  17  18
ENDBRANCH  12  17
TORSDOF 2
ENDMDL
MODEL 5
REMARK VINA RESULT:      -7.1      1.320      1.586
REMARK  Name = 
REMARK  3 active torsions:
REMARK  status: ('A' for Active; 'I' for Inactive)
REMARK    1  A    between atoms: C_1  and  C_2
REMARK    2  A    between atoms: N_12  and  C_13
REMARK    3  A    between atoms: C_13  and  C_14
REMARK                            x       y       z     vdW  Elec       q    Type
REMARK                         _______ _______ _______ _____ _____    ______ ____
ROOT
ATOM      1  C   UNL     1       8.177   5.164  12.138  0.00  0.00    +0.000 C 
ATOM      2  C   UNL     1       7.307   4.991  13.340  0.00  0.00    +0.000 A 
ATOM      3  C   UNL     1       6.115   4.304  13.291  0.00  0.00    +0.000 A 
ATOM      4  C   UNL     1       5.384   4.151  14.457  0.00  0.00    +0.000 A 
ATOM      5  C   UNL     1       5.845   4.702  15.660  0.00  0.00    +0.000 A 
ATOM      6  N   UNL     1       5.110   4.558  16.807  0.00  0.00    +0.000 N 
ATOM      7  C   UNL     1       5.200   5.543  17.894  0.00  0.00    +0.000 C 
ATOM      8  C   UNL     1       5.569   4.884  19.228  0.00  0.00    +0.000 C 
ATOM      9  O   UNL     1       4.774   3.730  19.508  0.00  0.00    +0.000 OA
ATOM     10  C   UNL     1       4.858   2.740  18.458  0.00  0.00    +0.000 C 
ATOM     11  C   UNL     1       3.745   1.725  18.727  0.00  0.00    +0.000 C 
ATOM     12  N   UNL     1       2.534   2.160  17.967  0.00  0.00    +0.000 NA
ATOM     13  C   UNL     1       2.934   3.393  17.245  0.00  0.00    +0.000 C 
ATOM     14  C   UNL     1       4.455   3.287  17.096  0.00  0.00    +0.000 C 
ATOM     15  N   UNL     1       7.003   5.387  15.645  0.00  0.00    +0.000 NA
ATOM     16  N   UNL     1       7.750   5.526  14.498  0.00  0.00    +0.000 NA
ENDROOT
BRANCH  12  17
ATOM     17  C   UNL     1       1.400   2.413  18.878  0.00  0.00    +0.000 C 
BRANCH  17  18
ATOM     18  C   UNL     1       1.794   3.090  20.163  0.00  0.00    +0.000 C 
ATOM     19  C   UNL     1       1.037   4.240  20.772  0.00  0.00    +0.000 C 
ATOM     20  C   UNL     1       1.036   2.904  21.469  0.00  0.00    +0.000 C 
ENDBRANCH  17  18
ENDBRANCH  12  17
TORSDOF 2
ENDMDL
MODEL 6
REMARK VINA RESULT:      -6.6      0.997      1.566
REMARK  Name = 
REMARK  3 active torsions:
REMARK  status: ('A' for Active; 'I' for Inactive)
REMARK    1  A    between atoms: C_1  and  C_2
REMARK    2  A    between atoms: N_12  and  C_13
REMARK    3  A    between atoms: C_13  and  C_14
REMARK                            x       y       z     vdW  Elec       q    Type
REMARK                         _______ _______ _______ _____ _____    ______ ____
ROOT
ATOM      1  C   UNL     1       7.169   3.925  11.749  0.00  0.00    +0.000 C 
ATOM      2  C   UNL     1       6.757   4.293  13.137  0.00  0.00    +0.000 A 
ATOM      3  C   UNL     1       5.479   4.083  13.603  0.00  0.00    +0.000 A 
ATOM      4  C   UNL     1       5.183   4.412  14.915  0.00  0.00    +0.000 A 
ATOM      5  C   UNL     1       6.168   4.964  15.746  0.00  0.00    +0.000 A 
ATOM      6  N   UNL     1       5.865   5.300  17.039  0.00  0.00    +0.000 N 
ATOM      7  C   UNL     1       6.601   6.363  17.738  0.00  0.00    +0.000 C 
ATOM      8  C   UNL     1       7.204   5.862  19.056  0.00  0.00    +0.000 C 
ATOM      9  O   UNL     1       6.261   5.141  19.852  0.00  0.00    +0.000 OA
ATOM     10  C   UNL     1       5.693   4.018  19.141  0.00  0.00    +0.000 C 
ATOM     11  C   UNL     1       4.501   3.537  19.972  0.00  0.00    +0.000 C 
ATOM     12  N   UNL     1       3.279   4.236  19.470  0.00  0.00    +0.000 NA
ATOM     13  C   UNL     1       3.738   5.094  18.350  0.00  0.00    +0.000 C 
ATOM     14  C   UNL     1       5.017   4.422  17.838  0.00  0.00    +0.000 C 
ATOM     15  N   UNL     1       7.393   5.173  15.231  0.00  0.00    +0.000 NA
ATOM     16  N   UNL     1       7.705   4.829  13.935  0.00  0.00    +0.000 NA
ENDROOT
BRANCH  12  17
ATOM     17  C   UNL     1       2.651   5.037  20.539  0.00  0.00    +0.000 C 
BRANCH  17  18
ATOM     18  C   UNL     1       1.744   6.124  20.028  0.00  0.00    +0.000 C 
ATOM     19  C   UNL     1       1.095   7.159  20.908  0.00  0.00    +0.000 C 
ATOM     20  C   UNL     1       2.164   7.584  19.936  0.00  0.00    +0.000 C 
ENDBRANCH  17  18
ENDBRANCH  12  17
TORSDOF 2
ENDMDL
MODEL 7
REMARK VINA RESULT:      -6.4      1.677      6.718
REMARK  Name = 
REMARK  3 active torsions:
REMARK  status: ('A' for Active; 'I' for Inactive)
REMARK    1  A    between atoms: C_1  and  C_2
REMARK    2  A    between atoms: N_12  and  C_13
REMARK    3  A    between atoms: C_13  and  C_14
REMARK                            x       y       z     vdW  Elec       q    Type
REMARK                         _______ _______ _______ _____ _____    ______ ____
ROOT
ATOM      1  C   UNL     1       1.091   2.870  21.427  0.00  0.00    +0.000 C 
ATOM      2  C   UNL     1       2.163   3.180  20.435  0.00  0.00    +0.000 A 
ATOM      3  C   UNL     1       2.170   2.639  19.168  0.00  0.00    +0.000 A 
ATOM      4  C   UNL     1       3.176   3.006  18.291  0.00  0.00    +0.000 A 
ATOM      5  C   UNL     1       4.176   3.901  18.694  0.00  0.00    +0.000 A 
ATOM      6  N   UNL     1       5.176   4.250  17.825  0.00  0.00    +0.000 N 
ATOM      7  C   UNL     1       6.497   4.666  18.318  0.00  0.00    +0.000 C 
ATOM      8  C   UNL     1       6.898   6.042  17.773  0.00  0.00    +0.000 C 
ATOM      9  O   UNL     1       6.705   6.151  16.361  0.00  0.00    +0.000 OA
ATOM     10  C   UNL     1       5.340   5.873  15.973  0.00  0.00    +0.000 C 
ATOM     11  C   UNL     1       5.345   5.718  14.450  0.00  0.00    +0.000 C 
ATOM     12  N   UNL     1       5.534   4.269  14.137  0.00  0.00    +0.000 NA
ATOM     13  C   UNL     1       5.615   3.582  15.449  0.00  0.00    +0.000 C 
ATOM     14  C   UNL     1       4.865   4.499  16.422  0.00  0.00    +0.000 C 
ATOM     15  N   UNL     1       4.136   4.378  19.952  0.00  0.00    +0.000 NA
ATOM     16  N   UNL     1       3.129   4.038  20.826  0.00  0.00    +0.000 NA
ENDROOT
BRANCH  12  17
ATOM     17  C   UNL     1       6.758   4.055  13.340  0.00  0.00    +0.000 C 
BRANCH  17  18
ATOM     18  C   UNL     1       6.500   3.452  11.986  0.00  0.00    +0.000 C 
ATOM     19  C   UNL     1       6.080   2.022  11.770  0.00  0.00    +0.000 C 
ATOM     20  C   UNL     1       5.105   3.131  11.469  0.00  0.00    +0.000 C 
ENDBRANCH  17  18
ENDBRANCH  12  17
TORSDOF 2
ENDMDL
MODEL 8
REMARK VINA RESULT:      -6.4      3.159      6.768
REMARK  Name = 
REMARK  3 active torsions:
REMARK  status: ('A' for Active; 'I' for Inactive)
REMARK    1  A    between atoms: C_1  and  C_2
REMARK    2  A    between atoms: N_12  and  C_13
REMARK    3  A    between atoms: C_13  and  C_14
REMARK                            x       y       z     vdW  Elec       q    Type
REMARK                         _______ _______ _______ _____ _____    ______ ____
ROOT
ATOM      1  C   UNL     1       0.485  11.306  19.666  0.00  0.00    +0.000 C 
ATOM      2  C   UNL     1       1.103   9.978  19.376  0.00  0.00    +0.000 A 
ATOM      3  C   UNL     1       1.787   9.726  18.208  0.00  0.00    +0.000 A 
ATOM      4  C   UNL     1       2.368   8.481  18.029  0.00  0.00    +0.000 A 
ATOM      5  C   UNL     1       2.246   7.494  19.016  0.00  0.00    +0.000 A 
ATOM      6  N   UNL     1       2.812   6.261  18.827  0.00  0.00    +0.000 N 
ATOM      7  C   UNL     1       2.260   5.065  19.480  0.00  0.00    +0.000 C 
ATOM      8  C   UNL     1       3.322   4.328  20.305  0.00  0.00    +0.000 C 
ATOM      9  O   UNL     1       4.537   4.128  19.580  0.00  0.00    +0.000 OA
ATOM     10  C   UNL     1       5.098   5.371  19.099  0.00  0.00    +0.000 C 
ATOM     11  C   UNL     1       6.195   4.994  18.100  0.00  0.00    +0.000 C 
ATOM     12  N   UNL     1       5.581   4.957  16.738  0.00  0.00    +0.000 NA
ATOM     13  C   UNL     1       4.158   5.329  16.928  0.00  0.00    +0.000 C 
ATOM     14  C   UNL     1       4.134   6.154  18.219  0.00  0.00    +0.000 C 
ATOM     15  N   UNL     1       1.544   7.786  20.126  0.00  0.00    +0.000 NA
ATOM     16  N   UNL     1       0.982   9.025  20.325  0.00  0.00    +0.000 NA
ENDROOT
BRANCH  12  17
ATOM     17  C   UNL     1       5.712   3.617  16.134  0.00  0.00    +0.000 C 
BRANCH  17  18
ATOM     18  C   UNL     1       6.411   3.620  14.800  0.00  0.00    +0.000 C 
ATOM     19  C   UNL     1       5.763   4.063  13.515  0.00  0.00    +0.000 C 
ATOM     20  C   UNL     1       6.874   4.892  14.106  0.00  0.00    +0.000 C 
ENDBRANCH  17  18
ENDBRANCH  12  17
TORSDOF 2
ENDMDL
MODEL 9
REMARK VINA RESULT:      -6.3      2.449      6.812
REMARK  Name = 
REMARK  3 active torsions:
REMARK  status: ('A' for Active; 'I' for Inactive)
REMARK    1  A    between atoms: C_1  and  C_2
REMARK    2  A    between atoms: N_12  and  C_13
REMARK    3  A    between atoms: C_13  and  C_14
REMARK                            x       y       z     vdW  Elec       q    Type
REMARK                         _______ _______ _______ _____ _____    ______ ____
ROOT
ATOM      1  C   UNL     1      -0.002   9.003  21.680  0.00  0.00    +0.000 C 
ATOM      2  C   UNL     1       0.915   8.212  20.807  0.00  0.00    +0.000 A 
ATOM      3  C   UNL     1       1.525   8.756  19.698  0.00  0.00    +0.000 A 
ATOM      4  C   UNL     1       2.395   7.971  18.960  0.00  0.00    +0.000 A 
ATOM      5  C   UNL     1       2.635   6.640  19.331  0.00  0.00    +0.000 A 
ATOM      6  N   UNL     1       3.487   5.865  18.589  0.00  0.00    +0.000 N 
ATOM      7  C   UNL     1       3.337   4.403  18.546  0.00  0.00    +0.000 C 
ATOM      8  C   UNL     1       4.632   3.689  18.953  0.00  0.00    +0.000 C 
ATOM      9  O   UNL     1       5.780   4.210  18.282  0.00  0.00    +0.000 OA
ATOM     10  C   UNL     1       5.942   5.630  18.499  0.00  0.00    +0.000 C 
ATOM     11  C   UNL     1       6.997   6.104  17.496  0.00  0.00    +0.000 C 
ATOM     12  N   UNL     1       6.286   6.560  16.263  0.00  0.00    +0.000 NA
ATOM     13  C   UNL     1       4.840   6.381  16.543  0.00  0.00    +0.000 C 
ATOM     14  C   UNL     1       4.724   6.436  18.070  0.00  0.00    +0.000 C 
ATOM     15  N   UNL     1       1.992   6.152  20.407  0.00  0.00    +0.000 NA
ATOM     16  N   UNL     1       1.143   6.929  21.161  0.00  0.00    +0.000 NA
ENDROOT
BRANCH  12  17
ATOM     17  C   UNL     1       6.709   5.775  15.087  0.00  0.00    +0.000 C 
BRANCH  17  18
ATOM     18  C   UNL     1       5.706   4.736  14.661  0.00  0.00    +0.000 C 
ATOM     19  C   UNL     1       5.894   3.825  13.477  0.00  0.00    +0.000 C 
ATOM     20  C   UNL     1       5.915   3.243  14.866  0.00  0.00    +0.000 C 
ENDBRANCH  17  18
ENDBRANCH  12  17
TORSDOF 2
ENDMDL
