MODEL 1
REMARK VINA RESULT:      -7.9      0.000      0.000
REMARK  Name = 
REMARK  2 active torsions:
REMARK  status: ('A' for Active; 'I' for Inactive)
REMARK    1  A    between atoms: C_6  and  C_7
REMARK    2  A    between atoms: C_7  and  N_8
REMARK                            x       y       z     vdW  Elec       q    Type
REMARK                         _______ _______ _______ _____ _____    ______ ____
ROOT
ATOM      1  C   UNL     1       3.619   3.290  17.690  0.00  0.00    +0.000 C 
ENDROOT
BRANCH   1   2
ATOM      2  N   UNL     1       2.285   3.908  17.593  0.00  0.00    +0.000 NA
ATOM      3  C   UNL     1       2.286   5.374  17.712  0.00  0.00    +0.000 C 
ATOM      4  C   UNL     1       2.604   5.944  19.107  0.00  0.00    +0.000 C 
ATOM      5  C   UNL     1       1.871   5.262  20.272  0.00  0.00    +0.000 C 
ATOM      6  C   UNL     1       1.820   3.737  20.147  0.00  0.00    +0.000 C 
ATOM      7  C   UNL     1       1.421   3.366  18.680  0.00  0.00    +0.000 C 
ATOM      8  O   UNL     1       0.838   3.216  21.050  0.00  0.00    +0.000 OA
ATOM      9  C   UNL     1       1.515   2.395  21.994  0.00  0.00    +0.000 C 
ATOM     10  C   UNL     1       2.941   2.275  21.536  0.00  0.00    +0.000 C 
ATOM     11  O   UNL     1       3.108   3.224  20.504  0.00  0.00    +0.000 OA
ENDBRANCH   1   2
BRANCH   1  17
ATOM     12  C   UNL     1       5.050   4.520  16.052  0.00  0.00    +0.000 A 
ATOM     13  C   UNL     1       6.011   5.463  15.691  0.00  0.00    +0.000 A 
ATOM     14  C   UNL     1       6.798   5.974  16.693  0.00  0.00    +0.000 A 
ATOM     15  C   UNL     1       6.690   5.547  18.011  0.00  0.00    +0.000 A 
ATOM     16  C   UNL     1       5.752   4.579  18.386  0.00  0.00    +0.000 A 
ATOM     17  C   UNL     1       4.894   4.077  17.391  0.00  0.00    +0.000 A 
ATOM     18  C   UNL     1       7.703   6.286  18.809  0.00  0.00    +0.000 C 
ATOM     19  C   UNL     1       7.965   7.445  17.839  0.00  0.00    +0.000 C 
ATOM     20  O   UNL     1       7.725   6.967  16.497  0.00  0.00    +0.000 OA
ENDBRANCH   1  17
TORSDOF 2
ENDMDL
MODEL 2
REMARK VINA RESULT:      -7.9      1.412      2.411
REMARK  Name = 
REMARK  2 active torsions:
REMARK  status: ('A' for Active; 'I' for Inactive)
REMARK    1  A    between atoms: C_6  and  C_7
REMARK    2  A    between atoms: C_7  and  N_8
REMARK                            x       y       z     vdW  Elec       q    Type
REMARK                         _______ _______ _______ _____ _____    ______ ____
ROOT
ATOM      1  C   UNL     1       3.858   3.100  17.584  0.00  0.00    +0.000 C 
ENDROOT
BRANCH   1   2
ATOM      2  N   UNL     1       3.557   2.589  18.934  0.00  0.00    +0.000 NA
ATOM      3  C   UNL     1       2.329   1.785  19.017  0.00  0.00    +0.000 C 
ATOM      4  C   UNL     1       1.001   2.551  18.858  0.00  0.00    +0.000 C 
ATOM      5  C   UNL     1       0.902   3.858  19.658  0.00  0.00    +0.000 C 
ATOM      6  C   UNL     1       2.186   4.691  19.621  0.00  0.00    +0.000 C 
ATOM      7  C   UNL     1       3.408   3.743  19.865  0.00  0.00    +0.000 C 
ATOM      8  O   UNL     1       2.143   5.682  20.654  0.00  0.00    +0.000 OA
ATOM      9  C   UNL     1       2.154   6.959  20.025  0.00  0.00    +0.000 C 
ATOM     10  C   UNL     1       2.390   6.729  18.559  0.00  0.00    +0.000 C 
ATOM     11  O   UNL     1       2.251   5.340  18.347  0.00  0.00    +0.000 OA
ENDBRANCH   1   2
BRANCH   1  17
ATOM     12  C   UNL     1       5.153   4.545  16.010  0.00  0.00    +0.000 A 
ATOM     13  C   UNL     1       6.043   5.572  15.699  0.00  0.00    +0.000 A 
ATOM     14  C   UNL     1       6.835   6.047  16.714  0.00  0.00    +0.000 A 
ATOM     15  C   UNL     1       6.800   5.508  17.995  0.00  0.00    +0.000 A 
ATOM     16  C   UNL     1       5.935   4.458  18.317  0.00  0.00    +0.000 A 
ATOM     17  C   UNL     1       5.073   3.986  17.312  0.00  0.00    +0.000 A 
ATOM     18  C   UNL     1       7.796   6.241  18.819  0.00  0.00    +0.000 C 
ATOM     19  C   UNL     1       7.954   7.489  17.941  0.00  0.00    +0.000 C 
ATOM     20  O   UNL     1       7.693   7.108  16.572  0.00  0.00    +0.000 OA
ENDBRANCH   1  17
TORSDOF 2
ENDMDL
MODEL 3
REMARK VINA RESULT:      -7.6      3.167      5.259
REMARK  Name = 
REMARK  2 active torsions:
REMARK  status: ('A' for Active; 'I' for Inactive)
REMARK    1  A    between atoms: C_6  and  C_7
REMARK    2  A    between atoms: C_7  and  N_8
REMARK                            x       y       z     vdW  Elec       q    Type
REMARK                         _______ _______ _______ _____ _____    ______ ____
ROOT
ATOM      1  C   UNL     1       2.705   6.311  18.118  0.00  0.00    +0.000 C 
ENDROOT
BRANCH   1   2
ATOM      2  N   UNL     1       4.041   5.734  18.357  0.00  0.00    +0.000 NA
ATOM      3  C   UNL     1       4.539   4.887  17.263  0.00  0.00    +0.000 C 
ATOM      4  C   UNL     1       3.832   3.531  17.076  0.00  0.00    +0.000 C 
ATOM      5  C   UNL     1       3.591   2.738  18.369  0.00  0.00    +0.000 C 
ATOM      6  C   UNL     1       3.112   3.608  19.534  0.00  0.00    +0.000 C 
ATOM      7  C   UNL     1       3.993   4.901  19.591  0.00  0.00    +0.000 C 
ATOM      8  O   UNL     1       3.255   2.884  20.762  0.00  0.00    +0.000 OA
ATOM      9  C   UNL     1       1.953   2.703  21.307  0.00  0.00    +0.000 C 
ATOM     10  C   UNL     1       1.002   3.503  20.462  0.00  0.00    +0.000 C 
ATOM     11  O   UNL     1       1.729   3.906  19.320  0.00  0.00    +0.000 OA
ENDBRANCH   1   2
BRANCH   1  17
ATOM     12  C   UNL     1       2.032   8.706  17.892  0.00  0.00    +0.000 A 
ATOM     13  C   UNL     1       1.379   9.866  18.303  0.00  0.00    +0.000 A 
ATOM     14  C   UNL     1       0.939   9.914  19.603  0.00  0.00    +0.000 A 
ATOM     15  C   UNL     1       1.170   8.878  20.501  0.00  0.00    +0.000 A 
ATOM     16  C   UNL     1       1.851   7.720  20.113  0.00  0.00    +0.000 A 
ATOM     17  C   UNL     1       2.265   7.619  18.773  0.00  0.00    +0.000 A 
ATOM     18  C   UNL     1       0.585   9.276  21.808  0.00  0.00    +0.000 C 
ATOM     19  C   UNL     1      -0.360  10.379  21.315  0.00  0.00    +0.000 C 
ATOM     20  O   UNL     1       0.210  10.955  20.119  0.00  0.00    +0.000 OA
ENDBRANCH   1  17
TORSDOF 2
ENDMDL
MODEL 4
REMARK VINA RESULT:      -7.5      1.379      6.087
REMARK  Name = 
REMARK  2 active torsions:
REMARK  status: ('A' for Active; 'I' for Inactive)
REMARK    1  A    between atoms: C_6  and  C_7
REMARK    2  A    between atoms: C_7  and  N_8
REMARK                            x       y       z     vdW  Elec       q    Type
REMARK                         _______ _______ _______ _____ _____    ______ ____
ROOT
ATOM      1  C   UNL     1       4.617   3.675  16.687  0.00  0.00    +0.000 C 
ENDROOT
BRANCH   1   2
ATOM      2  N   UNL     1       4.668   4.689  15.619  0.00  0.00    +0.000 NA
ATOM      3  C   UNL     1       5.411   4.271  14.421  0.00  0.00    +0.000 C 
ATOM      4  C   UNL     1       6.939   4.152  14.574  0.00  0.00    +0.000 C 
ATOM      5  C   UNL     1       7.614   5.322  15.304  0.00  0.00    +0.000 C 
ATOM      6  C   UNL     1       6.835   5.803  16.532  0.00  0.00    +0.000 C 
ATOM      7  C   UNL     1       5.321   5.919  16.152  0.00  0.00    +0.000 C 
ATOM      8  O   UNL     1       7.321   7.089  16.933  0.00  0.00    +0.000 OA
ATOM      9  C   UNL     1       7.876   6.951  18.236  0.00  0.00    +0.000 C 
ATOM     10  C   UNL     1       7.553   5.562  18.711  0.00  0.00    +0.000 C 
ATOM     11  O   UNL     1       7.057   4.864  17.588  0.00  0.00    +0.000 OA
ENDBRANCH   1   2
BRANCH   1  17
ATOM     12  C   UNL     1       2.323   4.145  17.559  0.00  0.00    +0.000 A 
ATOM     13  C   UNL     1       1.293   4.038  18.492  0.00  0.00    +0.000 A 
ATOM     14  C   UNL     1       1.618   3.560  19.736  0.00  0.00    +0.000 A 
ATOM     15  C   UNL     1       2.924   3.237  20.088  0.00  0.00    +0.000 A 
ATOM     16  C   UNL     1       3.974   3.368  19.175  0.00  0.00    +0.000 A 
ATOM     17  C   UNL     1       3.664   3.803  17.874  0.00  0.00    +0.000 A 
ATOM     18  C   UNL     1       2.910   2.782  21.503  0.00  0.00    +0.000 C 
ATOM     19  C   UNL     1       1.416   2.462  21.632  0.00  0.00    +0.000 C 
ATOM     20  O   UNL     1       0.694   3.323  20.723  0.00  0.00    +0.000 OA
ENDBRANCH   1  17
TORSDOF 2
ENDMDL
MODEL 5
REMARK VINA RESULT:      -7.3      3.449      5.892
REMARK  Name = 
REMARK  2 active torsions:
REMARK  status: ('A' for Active; 'I' for Inactive)
REMARK    1  A    between atoms: C_6  and  C_7
REMARK    2  A    between atoms: C_7  and  N_8
REMARK                            x       y       z     vdW  Elec       q    Type
REMARK                         _______ _______ _______ _____ _____    ______ ____
ROOT
ATOM      1  C   UNL     1       2.733   6.192  19.437  0.00  0.00    +0.000 C 
ENDROOT
BRANCH   1   2
ATOM      2  N   UNL     1       2.441   5.240  18.350  0.00  0.00    +0.000 NA
ATOM      3  C   UNL     1       1.981   3.920  18.807  0.00  0.00    +0.000 C 
ATOM      4  C   UNL     1       3.036   3.031  19.493  0.00  0.00    +0.000 C 
ATOM      5  C   UNL     1       4.394   2.964  18.780  0.00  0.00    +0.000 C 
ATOM      6  C   UNL     1       4.873   4.321  18.257  0.00  0.00    +0.000 C 
ATOM      7  C   UNL     1       3.677   5.035  17.543  0.00  0.00    +0.000 C 
ATOM      8  O   UNL     1       5.935   4.123  17.316  0.00  0.00    +0.000 OA
ATOM      9  C   UNL     1       7.104   4.729  17.856  0.00  0.00    +0.000 C 
ATOM     10  C   UNL     1       6.688   5.475  19.092  0.00  0.00    +0.000 C 
ATOM     11  O   UNL     1       5.364   5.073  19.372  0.00  0.00    +0.000 OA
ENDBRANCH   1   2
BRANCH   1  17
ATOM     12  C   UNL     1       2.259   8.287  18.162  0.00  0.00    +0.000 A 
ATOM     13  C   UNL     1       1.579   9.481  17.924  0.00  0.00    +0.000 A 
ATOM     14  C   UNL     1       0.824   9.990  18.951  0.00  0.00    +0.000 A 
ATOM     15  C   UNL     1       0.765   9.381  20.199  0.00  0.00    +0.000 A 
ATOM     16  C   UNL     1       1.465   8.200  20.464  0.00  0.00    +0.000 A 
ATOM     17  C   UNL     1       2.204   7.625  19.415  0.00  0.00    +0.000 A 
ATOM     18  C   UNL     1      -0.116  10.209  21.063  0.00  0.00    +0.000 C 
ATOM     19  C   UNL     1      -0.848  10.994  19.968  0.00  0.00    +0.000 C 
ATOM     20  O   UNL     1       0.038  11.108  18.832  0.00  0.00    +0.000 OA
ENDBRANCH   1  17
TORSDOF 2
ENDMDL
MODEL 6
REMARK VINA RESULT:      -7.3      1.746      2.873
REMARK  Name = 
REMARK  2 active torsions:
REMARK  status: ('A' for Active; 'I' for Inactive)
REMARK    1  A    between atoms: C_6  and  C_7
REMARK    2  A    between atoms: C_7  and  N_8
REMARK                            x       y       z     vdW  Elec       q    Type
REMARK                         _______ _______ _______ _____ _____    ______ ____
ROOT
ATOM      1  C   UNL     1       4.103   6.032  19.378  0.00  0.00    +0.000 C 
ENDROOT
BRANCH   1   2
ATOM      2  N   UNL     1       2.683   6.317  19.105  0.00  0.00    +0.000 NA
ATOM      3  C   UNL     1       1.841   6.409  20.308  0.00  0.00    +0.000 C 
ATOM      4  C   UNL     1       1.578   5.089  21.058  0.00  0.00    +0.000 C 
ATOM      5  C   UNL     1       1.198   3.898  20.166  0.00  0.00    +0.000 C 
ATOM      6  C   UNL     1       2.034   3.807  18.886  0.00  0.00    +0.000 C 
ATOM      7  C   UNL     1       2.129   5.233  18.246  0.00  0.00    +0.000 C 
ATOM      8  O   UNL     1       1.397   2.917  17.962  0.00  0.00    +0.000 OA
ATOM      9  C   UNL     1       2.276   1.817  17.753  0.00  0.00    +0.000 C 
ATOM     10  C   UNL     1       3.569   2.144  18.443  0.00  0.00    +0.000 C 
ATOM     11  O   UNL     1       3.319   3.285  19.236  0.00  0.00    +0.000 OA
ENDBRANCH   1   2
BRANCH   1  17
ATOM     12  C   UNL     1       6.434   5.512  18.644  0.00  0.00    +0.000 A 
ATOM     13  C   UNL     1       7.392   5.102  17.718  0.00  0.00    +0.000 A 
ATOM     14  C   UNL     1       7.019   5.073  16.398  0.00  0.00    +0.000 A 
ATOM     15  C   UNL     1       5.758   5.477  15.975  0.00  0.00    +0.000 A 
ATOM     16  C   UNL     1       4.795   5.920  16.887  0.00  0.00    +0.000 A 
ATOM     17  C   UNL     1       5.129   5.909  18.253  0.00  0.00    +0.000 A 
ATOM     18  C   UNL     1       5.712   5.338  14.496  0.00  0.00    +0.000 C 
ATOM     19  C   UNL     1       6.894   4.379  14.314  0.00  0.00    +0.000 C 
ATOM     20  O   UNL     1       7.829   4.612  15.391  0.00  0.00    +0.000 OA
ENDBRANCH   1  17
TORSDOF 2
ENDMDL
MODEL 7
REMARK VINA RESULT:      -7.2      3.008      6.303
REMARK  Name = 
REMARK  2 active torsions:
REMARK  status: ('A' for Active; 'I' for Inactive)
REMARK    1  A    between atoms: C_6  and  C_7
REMARK    2  A    between atoms: C_7  and  N_8
REMARK                            x       y       z     vdW  Elec       q    Type
REMARK                         _______ _______ _______ _____ _____    ______ ____
ROOT
ATOM      1  C   UNL     1       4.088   6.308  17.868  0.00  0.00    +0.000 C 
ENDROOT
BRANCH   1   2
ATOM      2  N   UNL     1       4.578   5.063  18.484  0.00  0.00    +0.000 NA
ATOM      3  C   UNL     1       5.798   5.224  19.289  0.00  0.00    +0.000 C 
ATOM      4  C   UNL     1       7.095   5.515  18.509  0.00  0.00    +0.000 C 
ATOM      5  C   UNL     1       7.322   4.637  17.271  0.00  0.00    +0.000 C 
ATOM      6  C   UNL     1       6.054   4.419  16.440  0.00  0.00    +0.000 C 
ATOM      7  C   UNL     1       4.872   4.075  17.408  0.00  0.00    +0.000 C 
ATOM      8  O   UNL     1       6.257   3.328  15.535  0.00  0.00    +0.000 OA
ATOM      9  C   UNL     1       6.166   3.845  14.212  0.00  0.00    +0.000 C 
ATOM     10  C   UNL     1       5.716   5.274  14.324  0.00  0.00    +0.000 C 
ATOM     11  O   UNL     1       5.809   5.614  15.692  0.00  0.00    +0.000 OA
ENDBRANCH   1   2
BRANCH   1  17
ATOM     12  C   UNL     1       2.504   6.701  19.760  0.00  0.00    +0.000 A 
ATOM     13  C   UNL     1       1.644   7.483  20.530  0.00  0.00    +0.000 A 
ATOM     14  C   UNL     1       1.224   8.673  19.992  0.00  0.00    +0.000 A 
ATOM     15  C   UNL     1       1.591   9.079  18.714  0.00  0.00    +0.000 A 
ATOM     16  C   UNL     1       2.428   8.293  17.916  0.00  0.00    +0.000 A 
ATOM     17  C   UNL     1       2.919   7.093  18.461  0.00  0.00    +0.000 A 
ATOM     18  C   UNL     1       0.941  10.389  18.453  0.00  0.00    +0.000 C 
ATOM     19  C   UNL     1       0.630  10.789  19.901  0.00  0.00    +0.000 C 
ATOM     20  O   UNL     1       0.447   9.579  20.669  0.00  0.00    +0.000 OA
ENDBRANCH   1  17
TORSDOF 2
ENDMDL
MODEL 8
REMARK VINA RESULT:      -7.2      3.022      6.148
REMARK  Name = 
REMARK  2 active torsions:
REMARK  status: ('A' for Active; 'I' for Inactive)
REMARK    1  A    between atoms: C_6  and  C_7
REMARK    2  A    between atoms: C_7  and  N_8
REMARK                            x       y       z     vdW  Elec       q    Type
REMARK                         _______ _______ _______ _____ _____    ______ ____
ROOT
ATOM      1  C   UNL     1       3.329   6.215  17.719  0.00  0.00    +0.000 C 
ENDROOT
BRANCH   1   2
ATOM      2  N   UNL     1       3.706   4.960  18.393  0.00  0.00    +0.000 NA
ATOM      3  C   UNL     1       4.724   5.118  19.443  0.00  0.00    +0.000 C 
ATOM      4  C   UNL     1       6.149   5.454  18.964  0.00  0.00    +0.000 C 
ATOM      5  C   UNL     1       6.653   4.617  17.780  0.00  0.00    +0.000 C 
ATOM      6  C   UNL     1       5.596   4.403  16.693  0.00  0.00    +0.000 C 
ATOM      7  C   UNL     1       4.244   4.010  17.379  0.00  0.00    +0.000 C 
ATOM      8  O   UNL     1       6.011   3.343  15.824  0.00  0.00    +0.000 OA
ATOM      9  C   UNL     1       6.191   3.898  14.527  0.00  0.00    +0.000 C 
ATOM     10  C   UNL     1       5.694   5.316  14.577  0.00  0.00    +0.000 C 
ATOM     11  O   UNL     1       5.488   5.616  15.941  0.00  0.00    +0.000 OA
ENDBRANCH   1   2
BRANCH   1  17
ATOM     12  C   UNL     1       2.391   8.531  17.711  0.00  0.00    +0.000 A 
ATOM     13  C   UNL     1       1.595   9.560  18.211  0.00  0.00    +0.000 A 
ATOM     14  C   UNL     1       1.111   9.418  19.488  0.00  0.00    +0.000 A 
ATOM     15  C   UNL     1       1.431   8.324  20.284  0.00  0.00    +0.000 A 
ATOM     16  C   UNL     1       2.254   7.298  19.809  0.00  0.00    +0.000 A 
ATOM     17  C   UNL     1       2.720   7.388  18.485  0.00  0.00    +0.000 A 
ATOM     18  C   UNL     1       0.762   8.512  21.597  0.00  0.00    +0.000 C 
ATOM     19  C   UNL     1      -0.288   9.548  21.180  0.00  0.00    +0.000 C 
ATOM     20  O   UNL     1       0.250  10.310  20.076  0.00  0.00    +0.000 OA
ENDBRANCH   1  17
TORSDOF 2
ENDMDL
MODEL 9
REMARK VINA RESULT:      -7.2      3.151      5.614
REMARK  Name = 
REMARK  2 active torsions:
REMARK  status: ('A' for Active; 'I' for Inactive)
REMARK    1  A    between atoms: C_6  and  C_7
REMARK    2  A    between atoms: C_7  and  N_8
REMARK                            x       y       z     vdW  Elec       q    Type
REMARK                         _______ _______ _______ _____ _____    ______ ____
ROOT
ATOM      1  C   UNL     1       3.274   6.798  17.627  0.00  0.00    +0.000 C 
ENDROOT
BRANCH   1   2
ATOM      2  N   UNL     1       4.651   6.367  17.927  0.00  0.00    +0.000 NA
ATOM      3  C   UNL     1       5.513   6.225  16.744  0.00  0.00    +0.000 C 
ATOM      4  C   UNL     1       5.197   5.043  15.808  0.00  0.00    +0.000 C 
ATOM      5  C   UNL     1       4.944   3.703  16.514  0.00  0.00    +0.000 C 
ATOM      6  C   UNL     1       4.084   3.833  17.774  0.00  0.00    +0.000 C 
ATOM      7  C   UNL     1       4.604   5.046  18.615  0.00  0.00    +0.000 C 
ATOM      8  O   UNL     1       4.194   2.636  18.553  0.00  0.00    +0.000 OA
ATOM      9  C   UNL     1       2.903   2.039  18.607  0.00  0.00    +0.000 C 
ATOM     10  C   UNL     1       1.939   3.008  17.981  0.00  0.00    +0.000 C 
ATOM     11  O   UNL     1       2.724   4.004  17.361  0.00  0.00    +0.000 OA
ENDBRANCH   1   2
BRANCH   1  17
ATOM     12  C   UNL     1       2.044   8.970  17.734  0.00  0.00    +0.000 A 
ATOM     13  C   UNL     1       1.153   9.877  18.307  0.00  0.00    +0.000 A 
ATOM     14  C   UNL     1       0.775   9.651  19.607  0.00  0.00    +0.000 A 
ATOM     15  C   UNL     1       1.284   8.595  20.354  0.00  0.00    +0.000 A 
ATOM     16  C   UNL     1       2.202   7.694  19.804  0.00  0.00    +0.000 A 
ATOM     17  C   UNL     1       2.567   7.867  18.458  0.00  0.00    +0.000 A 
ATOM     18  C   UNL     1       0.681   8.670  21.710  0.00  0.00    +0.000 C 
ATOM     19  C   UNL     1      -0.520   9.566  21.383  0.00  0.00    +0.000 C 
ATOM     20  O   UNL     1      -0.157  10.411  20.268  0.00  0.00    +0.000 OA
ENDBRANCH   1  17
TORSDOF 2
ENDMDL
