MODEL 1
REMARK VINA RESULT:      -7.6      0.000      0.000
REMARK  Name = 
REMARK  10 active torsions:
REMARK  status: ('A' for Active; 'I' for Inactive)
REMARK    1  A    between atoms: C_1  and  C_2
REMARK    2  A    between atoms: C_4  and  C_5
REMARK    3  A    between atoms: C_6  and  C_7
REMARK    4  A    between atoms: C_11  and  C_12
REMARK    5  A    between atoms: C_12  and  N_13
REMARK    6  A    between atoms: N_13  and  C_14
REMARK    7  A    between atoms: C_14  and  C_15
REMARK    8  A    between atoms: C_15  and  C_16
REMARK    9  A    between atoms: C_16  and  N_17
REMARK   10  A    between atoms: N_17  and  C_18
REMARK                            x       y       z     vdW  Elec       q    Type
REMARK                         _______ _______ _______ _____ _____    ______ ____
ROOT
ATOM      1  C   UNL     1       1.410   3.850  18.981  0.00  0.00    +0.000 C 
ENDROOT
BRANCH   1   2
ATOM      2  C   UNL     1       1.374   4.219  20.465  0.00  0.00    +0.000 C 
BRANCH   2   3
ATOM      3  N   UNL     1       0.869   5.581  20.614  0.00  0.00    +0.000 NA
ATOM      4  H   UNL     1       0.362   5.807  19.728  0.00  0.00    +0.000 HD
BRANCH   3   5
ATOM      5  C   UNL     1       1.966   6.539  20.746  0.00  0.00    +0.000 C 
BRANCH   5  12
ATOM      6  C   UNL     1       3.239   6.943  17.752  0.00  0.00    +0.000 C 
ATOM      7  C   UNL     1       2.370   7.886  18.533  0.00  0.00    +0.000 A 
ATOM      8  S   UNL     1       1.905   9.365  17.908  0.00  0.00    +0.000 S 
ATOM      9  C   UNL     1       1.024   9.880  19.235  0.00  0.00    +0.000 A 
ATOM     10  C   UNL     1       0.349  11.213  19.291  0.00  0.00    +0.000 C 
ATOM     11  C   UNL     1       1.053   8.882  20.221  0.00  0.00    +0.000 A 
ATOM     12  C   UNL     1       1.816   7.743  19.827  0.00  0.00    +0.000 A 
BRANCH  11  13
ATOM     13  C   UNL     1       0.363   8.988  21.570  0.00  0.00    +0.000 C 
ATOM     14  F   UNL     1      -0.152  10.248  21.805  0.00  0.00    +0.000 F 
ATOM     15  F   UNL     1      -0.681   8.085  21.635  0.00  0.00    +0.000 F 
ATOM     16  F   UNL     1       1.267   8.711  22.581  0.00  0.00    +0.000 F 
ENDBRANCH  11  13
ENDBRANCH   5  12
ENDBRANCH   3   5
ENDBRANCH   2   3
ENDBRANCH   1   2
BRANCH   1  17
ATOM     17  C   UNL     1       1.636   2.350  18.826  0.00  0.00    +0.000 C 
BRANCH  17  18
ATOM     18  N   UNL     1       3.039   2.004  18.932  0.00  0.00    +0.000 N 
ATOM     19  H   UNL     1       3.308   1.088  19.323  0.00  0.00    +0.000 HD
BRANCH  18  20
ATOM     20  C   UNL     1       4.064   2.890  18.490  0.00  0.00    +0.000 A 
ATOM     21  C   UNL     1       4.815   3.654  19.404  0.00  0.00    +0.000 A 
ATOM     22  C   UNL     1       5.802   4.519  18.948  0.00  0.00    +0.000 A 
ATOM     23  O   UNL     1       6.443   5.172  19.755  0.00  0.00    +0.000 OA
ATOM     24  C   UNL     1       6.046   4.632  17.571  0.00  0.00    +0.000 A 
ATOM     25  C   UNL     1       7.028   5.503  17.066  0.00  0.00    +0.000 A 
ATOM     26  C   UNL     1       7.242   5.597  15.690  0.00  0.00    +0.000 A 
ATOM     27  C   UNL     1       6.485   4.824  14.806  0.00  0.00    +0.000 A 
ATOM     28  C   UNL     1       5.506   3.955  15.292  0.00  0.00    +0.000 A 
ATOM     29  C   UNL     1       5.278   3.851  16.675  0.00  0.00    +0.000 A 
ATOM     30  N   UNL     1       4.317   3.008  17.153  0.00  0.00    +0.000 N 
ATOM     31  H   UNL     1       3.755   2.438  16.482  0.00  0.00    +0.000 HD
ENDBRANCH  18  20
ENDBRANCH  17  18
ENDBRANCH   1  17
TORSDOF 8
ENDMDL
MODEL 2
REMARK VINA RESULT:      -7.5      1.323      2.071
REMARK  Name = 
REMARK  10 active torsions:
REMARK  status: ('A' for Active; 'I' for Inactive)
REMARK    1  A    between atoms: C_1  and  C_2
REMARK    2  A    between atoms: C_4  and  C_5
REMARK    3  A    between atoms: C_6  and  C_7
REMARK    4  A    between atoms: C_11  and  C_12
REMARK    5  A    between atoms: C_12  and  N_13
REMARK    6  A    between atoms: N_13  and  C_14
REMARK    7  A    between atoms: C_14  and  C_15
REMARK    8  A    between atoms: C_15  and  C_16
REMARK    9  A    between atoms: C_16  and  N_17
REMARK   10  A    between atoms: N_17  and  C_18
REMARK                            x       y       z     vdW  Elec       q    Type
REMARK                         _______ _______ _______ _____ _____    ______ ____
ROOT
ATOM      1  C   UNL     1       1.520   3.476  19.955  0.00  0.00    +0.000 C 
ENDROOT
BRANCH   1   2
ATOM      2  C   UNL     1       2.092   4.431  21.004  0.00  0.00    +0.000 C 
BRANCH   2   3
ATOM      3  N   UNL     1       2.485   5.681  20.358  0.00  0.00    +0.000 NA
ATOM      4  H   UNL     1       3.513   5.785  20.516  0.00  0.00    +0.000 HD
BRANCH   3   5
ATOM      5  C   UNL     1       1.829   6.827  20.984  0.00  0.00    +0.000 C 
BRANCH   5  12
ATOM      6  C   UNL     1       3.095   7.198  17.982  0.00  0.00    +0.000 C 
ATOM      7  C   UNL     1       2.168   8.116  18.726  0.00  0.00    +0.000 A 
ATOM      8  S   UNL     1       1.623   9.543  18.046  0.00  0.00    +0.000 S 
ATOM      9  C   UNL     1       0.704  10.052  19.350  0.00  0.00    +0.000 A 
ATOM     10  C   UNL     1      -0.047  11.345  19.355  0.00  0.00    +0.000 C 
ATOM     11  C   UNL     1       0.786   9.093  20.371  0.00  0.00    +0.000 A 
ATOM     12  C   UNL     1       1.615   7.987  20.022  0.00  0.00    +0.000 A 
BRANCH  11  13
ATOM     13  C   UNL     1       0.082   9.207  21.713  0.00  0.00    +0.000 C 
ATOM     14  F   UNL     1       0.956   9.133  22.779  0.00  0.00    +0.000 F 
ATOM     15  F   UNL     1      -0.582  10.416  21.793  0.00  0.00    +0.000 F 
ATOM     16  F   UNL     1      -0.833   8.177  21.850  0.00  0.00    +0.000 F 
ENDBRANCH  11  13
ENDBRANCH   5  12
ENDBRANCH   3   5
ENDBRANCH   2   3
ENDBRANCH   1   2
BRANCH   1  17
ATOM     17  C   UNL     1       2.507   2.342  19.695  0.00  0.00    +0.000 C 
BRANCH  17  18
ATOM     18  N   UNL     1       2.996   2.359  18.331  0.00  0.00    +0.000 N 
ATOM     19  H   UNL     1       2.613   1.689  17.646  0.00  0.00    +0.000 HD
BRANCH  18  20
ATOM     20  C   UNL     1       3.983   3.293  17.902  0.00  0.00    +0.000 A 
ATOM     21  C   UNL     1       4.125   3.632  16.543  0.00  0.00    +0.000 A 
ATOM     22  C   UNL     1       5.102   4.538  16.145  0.00  0.00    +0.000 A 
ATOM     23  O   UNL     1       5.209   4.821  14.965  0.00  0.00    +0.000 OA
ATOM     24  C   UNL     1       5.950   5.111  17.106  0.00  0.00    +0.000 A 
ATOM     25  C   UNL     1       6.958   6.024  16.747  0.00  0.00    +0.000 A 
ATOM     26  C   UNL     1       7.789   6.572  17.726  0.00  0.00    +0.000 A 
ATOM     27  C   UNL     1       7.623   6.219  19.067  0.00  0.00    +0.000 A 
ATOM     28  C   UNL     1       6.626   5.315  19.439  0.00  0.00    +0.000 A 
ATOM     29  C   UNL     1       5.782   4.753  18.465  0.00  0.00    +0.000 A 
ATOM     30  N   UNL     1       4.812   3.863  18.824  0.00  0.00    +0.000 N 
ATOM     31  H   UNL     1       4.700   3.605  19.830  0.00  0.00    +0.000 HD
ENDBRANCH  18  20
ENDBRANCH  17  18
ENDBRANCH   1  17
TORSDOF 8
ENDMDL
MODEL 3
REMARK VINA RESULT:      -7.5      2.340      3.236
REMARK  Name = 
REMARK  10 active torsions:
REMARK  status: ('A' for Active; 'I' for Inactive)
REMARK    1  A    between atoms: C_1  and  C_2
REMARK    2  A    between atoms: C_4  and  C_5
REMARK    3  A    between atoms: C_6  and  C_7
REMARK    4  A    between atoms: C_11  and  C_12
REMARK    5  A    between atoms: C_12  and  N_13
REMARK    6  A    between atoms: N_13  and  C_14
REMARK    7  A    between atoms: C_14  and  C_15
REMARK    8  A    between atoms: C_15  and  C_16
REMARK    9  A    between atoms: C_16  and  N_17
REMARK   10  A    between atoms: N_17  and  C_18
REMARK                            x       y       z     vdW  Elec       q    Type
REMARK                         _______ _______ _______ _____ _____    ______ ____
ROOT
ATOM      1  C   UNL     1       2.425   3.285  20.024  0.00  0.00    +0.000 C 
ENDROOT
BRANCH   1   2
ATOM      2  C   UNL     1       1.264   4.145  19.521  0.00  0.00    +0.000 C 
BRANCH   2   3
ATOM      3  N   UNL     1       0.794   5.006  20.603  0.00  0.00    +0.000 NA
ATOM      4  H   UNL     1      -0.036   5.522  20.231  0.00  0.00    +0.000 HD
BRANCH   3   5
ATOM      5  C   UNL     1       1.802   6.001  20.962  0.00  0.00    +0.000 C 
BRANCH   5  12
ATOM      6  C   UNL     1      -0.172   8.236  22.325  0.00  0.00    +0.000 C 
ATOM      7  C   UNL     1       0.625   8.342  21.057  0.00  0.00    +0.000 A 
ATOM      8  S   UNL     1       0.603   9.731  20.126  0.00  0.00    +0.000 S 
ATOM      9  C   UNL     1       1.629   9.185  18.921  0.00  0.00    +0.000 A 
ATOM     10  C   UNL     1       1.993  10.014  17.730  0.00  0.00    +0.000 C 
ATOM     11  C   UNL     1       2.041   7.878  19.225  0.00  0.00    +0.000 A 
ATOM     12  C   UNL     1       1.475   7.393  20.441  0.00  0.00    +0.000 A 
BRANCH  11  13
ATOM     13  C   UNL     1       2.978   7.052  18.362  0.00  0.00    +0.000 C 
ATOM     14  F   UNL     1       2.303   6.183  17.527  0.00  0.00    +0.000 F 
ATOM     15  F   UNL     1       3.747   7.886  17.573  0.00  0.00    +0.000 F 
ATOM     16  F   UNL     1       3.810   6.295  19.168  0.00  0.00    +0.000 F 
ENDBRANCH  11  13
ENDBRANCH   5  12
ENDBRANCH   3   5
ENDBRANCH   2   3
ENDBRANCH   1   2
BRANCH   1  17
ATOM     17  C   UNL     1       2.726   2.181  19.016  0.00  0.00    +0.000 C 
BRANCH  17  18
ATOM     18  N   UNL     1       4.132   2.145  18.665  0.00  0.00    +0.000 N 
ATOM     19  H   UNL     1       4.657   1.262  18.764  0.00  0.00    +0.000 HD
BRANCH  18  20
ATOM     20  C   UNL     1       4.808   3.295  18.164  0.00  0.00    +0.000 A 
ATOM     21  C   UNL     1       4.535   3.801  16.879  0.00  0.00    +0.000 A 
ATOM     22  C   UNL     1       5.215   4.918  16.407  0.00  0.00    +0.000 A 
ATOM     23  O   UNL     1       4.965   5.344  15.292  0.00  0.00    +0.000 OA
ATOM     24  C   UNL     1       6.180   5.537  17.216  0.00  0.00    +0.000 A 
ATOM     25  C   UNL     1       6.898   6.663  16.776  0.00  0.00    +0.000 A 
ATOM     26  C   UNL     1       7.856   7.253  17.603  0.00  0.00    +0.000 A 
ATOM     27  C   UNL     1       8.103   6.731  18.875  0.00  0.00    +0.000 A 
ATOM     28  C   UNL     1       7.398   5.614  19.327  0.00  0.00    +0.000 A 
ATOM     29  C   UNL     1       6.431   5.008  18.505  0.00  0.00    +0.000 A 
ATOM     30  N   UNL     1       5.745   3.912  18.941  0.00  0.00    +0.000 N 
ATOM     31  H   UNL     1       5.942   3.529  19.893  0.00  0.00    +0.000 HD
ENDBRANCH  18  20
ENDBRANCH  17  18
ENDBRANCH   1  17
TORSDOF 8
ENDMDL
MODEL 4
REMARK VINA RESULT:      -7.4      6.385      8.118
REMARK  Name = 
REMARK  10 active torsions:
REMARK  status: ('A' for Active; 'I' for Inactive)
REMARK    1  A    between atoms: C_1  and  C_2
REMARK    2  A    between atoms: C_4  and  C_5
REMARK    3  A    between atoms: C_6  and  C_7
REMARK    4  A    between atoms: C_11  and  C_12
REMARK    5  A    between atoms: C_12  and  N_13
REMARK    6  A    between atoms: N_13  and  C_14
REMARK    7  A    between atoms: C_14  and  C_15
REMARK    8  A    between atoms: C_15  and  C_16
REMARK    9  A    between atoms: C_16  and  N_17
REMARK   10  A    between atoms: N_17  and  C_18
REMARK                            x       y       z     vdW  Elec       q    Type
REMARK                         _______ _______ _______ _____ _____    ______ ____
ROOT
ATOM      1  C   UNL     1       7.753   6.998  18.124  0.00  0.00    +0.000 C 
ENDROOT
BRANCH   1   2
ATOM      2  C   UNL     1       6.866   6.544  16.963  0.00  0.00    +0.000 C 
BRANCH   2   3
ATOM      3  N   UNL     1       5.506   7.036  17.172  0.00  0.00    +0.000 NA
ATOM      4  H   UNL     1       5.476   7.418  18.144  0.00  0.00    +0.000 HD
BRANCH   3   5
ATOM      5  C   UNL     1       4.534   5.947  17.100  0.00  0.00    +0.000 C 
BRANCH   5  12
ATOM      6  C   UNL     1       2.388   8.218  18.093  0.00  0.00    +0.000 C 
ATOM      7  C   UNL     1       2.690   6.883  18.710  0.00  0.00    +0.000 A 
ATOM      8  S   UNL     1       1.890   6.356  20.081  0.00  0.00    +0.000 S 
ATOM      9  C   UNL     1       2.687   4.891  20.231  0.00  0.00    +0.000 A 
ATOM     10  C   UNL     1       2.412   3.930  21.343  0.00  0.00    +0.000 C 
ATOM     11  C   UNL     1       3.610   4.761  19.182  0.00  0.00    +0.000 A 
ATOM     12  C   UNL     1       3.615   5.890  18.311  0.00  0.00    +0.000 A 
BRANCH  11  13
ATOM     13  C   UNL     1       4.519   3.560  18.984  0.00  0.00    +0.000 C 
ATOM     14  F   UNL     1       4.531   2.717  20.078  0.00  0.00    +0.000 F 
ATOM     15  F   UNL     1       4.097   2.828  17.890  0.00  0.00    +0.000 F 
ATOM     16  F   UNL     1       5.818   3.987  18.771  0.00  0.00    +0.000 F 
ENDBRANCH  11  13
ENDBRANCH   5  12
ENDBRANCH   3   5
ENDBRANCH   2   3
ENDBRANCH   1   2
BRANCH   1  17
ATOM     17  C   UNL     1       8.114   8.470  17.955  0.00  0.00    +0.000 C 
BRANCH  17  18
ATOM     18  N   UNL     1       8.902   8.960  19.068  0.00  0.00    +0.000 N 
ATOM     19  H   UNL     1       9.188   8.307  19.814  0.00  0.00    +0.000 HD
BRANCH  18  20
ATOM     20  C   UNL     1       9.313  10.321  19.152  0.00  0.00    +0.000 A 
ATOM     21  C   UNL     1       9.816  11.004  18.028  0.00  0.00    +0.000 A 
ATOM     22  C   UNL     1      10.221  12.329  18.136  0.00  0.00    +0.000 A 
ATOM     23  O   UNL     1      10.653  12.905  17.152  0.00  0.00    +0.000 OA
ATOM     24  C   UNL     1      10.130  12.984  19.374  0.00  0.00    +0.000 A 
ATOM     25  C   UNL     1      10.538  14.321  19.531  0.00  0.00    +0.000 A 
ATOM     26  C   UNL     1      10.439  14.943  20.777  0.00  0.00    +0.000 A 
ATOM     27  C   UNL     1       9.934  14.243  21.874  0.00  0.00    +0.000 A 
ATOM     28  C   UNL     1       9.524  12.915  21.734  0.00  0.00    +0.000 A 
ATOM     29  C   UNL     1       9.618  12.275  20.486  0.00  0.00    +0.000 A 
ATOM     30  N   UNL     1       9.226  10.975  20.348  0.00  0.00    +0.000 N 
ATOM     31  H   UNL     1       8.852  10.461  21.177  0.00  0.00    +0.000 HD
ENDBRANCH  18  20
ENDBRANCH  17  18
ENDBRANCH   1  17
TORSDOF 8
ENDMDL
MODEL 5
REMARK VINA RESULT:      -7.3      6.230      7.875
REMARK  Name = 
REMARK  10 active torsions:
REMARK  status: ('A' for Active; 'I' for Inactive)
REMARK    1  A    between atoms: C_1  and  C_2
REMARK    2  A    between atoms: C_4  and  C_5
REMARK    3  A    between atoms: C_6  and  C_7
REMARK    4  A    between atoms: C_11  and  C_12
REMARK    5  A    between atoms: C_12  and  N_13
REMARK    6  A    between atoms: N_13  and  C_14
REMARK    7  A    between atoms: C_14  and  C_15
REMARK    8  A    between atoms: C_15  and  C_16
REMARK    9  A    between atoms: C_16  and  N_17
REMARK   10  A    between atoms: N_17  and  C_18
REMARK                            x       y       z     vdW  Elec       q    Type
REMARK                         _______ _______ _______ _____ _____    ______ ____
ROOT
ATOM      1  C   UNL     1       7.616   7.128  17.709  0.00  0.00    +0.000 C 
ENDROOT
BRANCH   1   2
ATOM      2  C   UNL     1       6.207   6.925  17.151  0.00  0.00    +0.000 C 
BRANCH   2   3
ATOM      3  N   UNL     1       5.858   5.508  17.220  0.00  0.00    +0.000 NA
ATOM      4  H   UNL     1       6.411   5.030  16.472  0.00  0.00    +0.000 HD
BRANCH   3   5
ATOM      5  C   UNL     1       4.443   5.298  16.918  0.00  0.00    +0.000 C 
BRANCH   5  12
ATOM      6  C   UNL     1       2.915   8.029  17.896  0.00  0.00    +0.000 C 
ATOM      7  C   UNL     1       2.889   6.667  18.525  0.00  0.00    +0.000 A 
ATOM      8  S   UNL     1       1.993   6.360  19.904  0.00  0.00    +0.000 S 
ATOM      9  C   UNL     1       2.412   4.748  20.065  0.00  0.00    +0.000 A 
ATOM     10  C   UNL     1       1.919   3.891  21.188  0.00  0.00    +0.000 C 
ATOM     11  C   UNL     1       3.271   4.389  19.015  0.00  0.00    +0.000 A 
ATOM     12  C   UNL     1       3.544   5.476  18.134  0.00  0.00    +0.000 A 
BRANCH  11  13
ATOM     13  C   UNL     1       3.862   3.002  18.826  0.00  0.00    +0.000 C 
ATOM     14  F   UNL     1       4.958   2.777  19.636  0.00  0.00    +0.000 F 
ATOM     15  F   UNL     1       2.912   2.044  19.123  0.00  0.00    +0.000 F 
ATOM     16  F   UNL     1       4.272   2.844  17.514  0.00  0.00    +0.000 F 
ENDBRANCH  11  13
ENDBRANCH   5  12
ENDBRANCH   3   5
ENDBRANCH   2   3
ENDBRANCH   1   2
BRANCH   1  17
ATOM     17  C   UNL     1       7.918   8.618  17.822  0.00  0.00    +0.000 C 
BRANCH  17  18
ATOM     18  N   UNL     1       8.853   8.897  18.894  0.00  0.00    +0.000 N 
ATOM     19  H   UNL     1       9.174   8.126  19.500  0.00  0.00    +0.000 HD
BRANCH  18  20
ATOM     20  C   UNL     1       9.359  10.209  19.124  0.00  0.00    +0.000 A 
ATOM     21  C   UNL     1       9.397  10.762  20.418  0.00  0.00    +0.000 A 
ATOM     22  C   UNL     1       9.885  12.048  20.616  0.00  0.00    +0.000 A 
ATOM     23  O   UNL     1       9.911  12.509  21.744  0.00  0.00    +0.000 OA
ATOM     24  C   UNL     1      10.337  12.796  19.519  0.00  0.00    +0.000 A 
ATOM     25  C   UNL     1      10.830  14.104  19.673  0.00  0.00    +0.000 A 
ATOM     26  C   UNL     1      11.267  14.825  18.560  0.00  0.00    +0.000 A 
ATOM     27  C   UNL     1      11.221  14.250  17.288  0.00  0.00    +0.000 A 
ATOM     28  C   UNL     1      10.736  12.952  17.119  0.00  0.00    +0.000 A 
ATOM     29  C   UNL     1      10.290  12.214  18.230  0.00  0.00    +0.000 A 
ATOM     30  N   UNL     1       9.808  10.948  18.067  0.00  0.00    +0.000 N 
ATOM     31  H   UNL     1       9.776  10.530  17.110  0.00  0.00    +0.000 HD
ENDBRANCH  18  20
ENDBRANCH  17  18
ENDBRANCH   1  17
TORSDOF 8
ENDMDL
MODEL 6
REMARK VINA RESULT:      -7.3      1.029      1.286
REMARK  Name = 
REMARK  10 active torsions:
REMARK  status: ('A' for Active; 'I' for Inactive)
REMARK    1  A    between atoms: C_1  and  C_2
REMARK    2  A    between atoms: C_4  and  C_5
REMARK    3  A    between atoms: C_6  and  C_7
REMARK    4  A    between atoms: C_11  and  C_12
REMARK    5  A    between atoms: C_12  and  N_13
REMARK    6  A    between atoms: N_13  and  C_14
REMARK    7  A    between atoms: C_14  and  C_15
REMARK    8  A    between atoms: C_15  and  C_16
REMARK    9  A    between atoms: C_16  and  N_17
REMARK   10  A    between atoms: N_17  and  C_18
REMARK                            x       y       z     vdW  Elec       q    Type
REMARK                         _______ _______ _______ _____ _____    ______ ____
ROOT
ATOM      1  C   UNL     1       1.252   4.170  20.035  0.00  0.00    +0.000 C 
ENDROOT
BRANCH   1   2
ATOM      2  C   UNL     1       1.804   5.375  20.798  0.00  0.00    +0.000 C 
BRANCH   2   3
ATOM      3  N   UNL     1       0.977   6.546  20.520  0.00  0.00    +0.000 NA
ATOM      4  H   UNL     1       0.842   6.574  19.484  0.00  0.00    +0.000 HD
BRANCH   3   5
ATOM      5  C   UNL     1       1.662   7.779  20.905  0.00  0.00    +0.000 C 
BRANCH   5  12
ATOM      6  C   UNL     1       2.025   8.978  17.874  0.00  0.00    +0.000 C 
ATOM      7  C   UNL     1       1.185   9.514  18.998  0.00  0.00    +0.000 A 
ATOM      8  S   UNL     1       0.253  10.890  18.810  0.00  0.00    +0.000 S 
ATOM      9  C   UNL     1      -0.365  10.930  20.365  0.00  0.00    +0.000 A 
ATOM     10  C   UNL     1      -1.293  12.004  20.840  0.00  0.00    +0.000 C 
ATOM     11  C   UNL     1       0.136   9.837  21.088  0.00  0.00    +0.000 A 
ATOM     12  C   UNL     1       1.017   9.025  20.315  0.00  0.00    +0.000 A 
BRANCH  11  13
ATOM     13  C   UNL     1      -0.203   9.539  22.539  0.00  0.00    +0.000 C 
ATOM     14  F   UNL     1      -0.944  10.545  23.128  0.00  0.00    +0.000 F 
ATOM     15  F   UNL     1      -0.937   8.371  22.617  0.00  0.00    +0.000 F 
ATOM     16  F   UNL     1       0.962   9.393  23.271  0.00  0.00    +0.000 F 
ENDBRANCH  11  13
ENDBRANCH   5  12
ENDBRANCH   3   5
ENDBRANCH   2   3
ENDBRANCH   1   2
BRANCH   1  17
ATOM     17  C   UNL     1       2.070   2.927  20.366  0.00  0.00    +0.000 C 
BRANCH  17  18
ATOM     18  N   UNL     1       2.820   2.456  19.219  0.00  0.00    +0.000 N 
ATOM     19  H   UNL     1       2.546   1.572  18.762  0.00  0.00    +0.000 HD
BRANCH  18  20
ATOM     20  C   UNL     1       3.918   3.192  18.689  0.00  0.00    +0.000 A 
ATOM     21  C   UNL     1       4.785   3.917  19.527  0.00  0.00    +0.000 A 
ATOM     22  C   UNL     1       5.844   4.637  18.986  0.00  0.00    +0.000 A 
ATOM     23  O   UNL     1       6.586   5.258  19.728  0.00  0.00    +0.000 OA
ATOM     24  C   UNL     1       6.042   4.642  17.597  0.00  0.00    +0.000 A 
ATOM     25  C   UNL     1       7.094   5.364  17.005  0.00  0.00    +0.000 A 
ATOM     26  C   UNL     1       7.261   5.353  15.619  0.00  0.00    +0.000 A 
ATOM     27  C   UNL     1       6.387   4.622  14.812  0.00  0.00    +0.000 A 
ATOM     28  C   UNL     1       5.339   3.899  15.384  0.00  0.00    +0.000 A 
ATOM     29  C   UNL     1       5.156   3.901  16.778  0.00  0.00    +0.000 A 
ATOM     30  N   UNL     1       4.128   3.202  17.340  0.00  0.00    +0.000 N 
ATOM     31  H   UNL     1       3.479   2.662  16.725  0.00  0.00    +0.000 HD
ENDBRANCH  18  20
ENDBRANCH  17  18
ENDBRANCH   1  17
TORSDOF 8
ENDMDL
MODEL 7
REMARK VINA RESULT:      -7.2      1.577      2.162
REMARK  Name = 
REMARK  10 active torsions:
REMARK  status: ('A' for Active; 'I' for Inactive)
REMARK    1  A    between atoms: C_1  and  C_2
REMARK    2  A    between atoms: C_4  and  C_5
REMARK    3  A    between atoms: C_6  and  C_7
REMARK    4  A    between atoms: C_11  and  C_12
REMARK    5  A    between atoms: C_12  and  N_13
REMARK    6  A    between atoms: N_13  and  C_14
REMARK    7  A    between atoms: C_14  and  C_15
REMARK    8  A    between atoms: C_15  and  C_16
REMARK    9  A    between atoms: C_16  and  N_17
REMARK   10  A    between atoms: N_17  and  C_18
REMARK                            x       y       z     vdW  Elec       q    Type
REMARK                         _______ _______ _______ _____ _____    ______ ____
ROOT
ATOM      1  C   UNL     1       2.484   3.985  21.010  0.00  0.00    +0.000 C 
ENDROOT
BRANCH   1   2
ATOM      2  C   UNL     1       1.645   5.047  20.297  0.00  0.00    +0.000 C 
BRANCH   2   3
ATOM      3  N   UNL     1       2.147   6.374  20.642  0.00  0.00    +0.000 NA
ATOM      4  H   UNL     1       2.819   6.240  21.433  0.00  0.00    +0.000 HD
BRANCH   3   5
ATOM      5  C   UNL     1       1.070   7.236  21.126  0.00  0.00    +0.000 C 
BRANCH   5  12
ATOM      6  C   UNL     1       2.169   8.058  18.148  0.00  0.00    +0.000 C 
ATOM      7  C   UNL     1       1.558   8.942  19.196  0.00  0.00    +0.000 A 
ATOM      8  S   UNL     1       1.339  10.580  18.936  0.00  0.00    +0.000 S 
ATOM      9  C   UNL     1       0.675  10.936  20.430  0.00  0.00    +0.000 A 
ATOM     10  C   UNL     1       0.274  12.322  20.828  0.00  0.00    +0.000 C 
ATOM     11  C   UNL     1       0.587   9.758  21.187  0.00  0.00    +0.000 A 
ATOM     12  C   UNL     1       1.085   8.619  20.489  0.00  0.00    +0.000 A 
BRANCH  11  13
ATOM     13  C   UNL     1       0.033   9.685  22.600  0.00  0.00    +0.000 C 
ATOM     14  F   UNL     1      -0.530  10.878  23.011  0.00  0.00    +0.000 F 
ATOM     15  F   UNL     1      -0.943   8.710  22.671  0.00  0.00    +0.000 F 
ATOM     16  F   UNL     1       1.050   9.375  23.485  0.00  0.00    +0.000 F 
ENDBRANCH  11  13
ENDBRANCH   5  12
ENDBRANCH   3   5
ENDBRANCH   2   3
ENDBRANCH   1   2
BRANCH   1  17
ATOM     17  C   UNL     1       2.458   2.684  20.214  0.00  0.00    +0.000 C 
BRANCH  17  18
ATOM     18  N   UNL     1       3.756   2.373  19.652  0.00  0.00    +0.000 N 
ATOM     19  H   UNL     1       4.169   1.440  19.813  0.00  0.00    +0.000 HD
BRANCH  18  20
ATOM     20  C   UNL     1       4.475   3.314  18.860  0.00  0.00    +0.000 A 
ATOM     21  C   UNL     1       4.208   3.470  17.486  0.00  0.00    +0.000 A 
ATOM     22  C   UNL     1       4.929   4.387  16.731  0.00  0.00    +0.000 A 
ATOM     23  O   UNL     1       4.683   4.509  15.544  0.00  0.00    +0.000 OA
ATOM     24  C   UNL     1       5.929   5.157  17.344  0.00  0.00    +0.000 A 
ATOM     25  C   UNL     1       6.690   6.090  16.617  0.00  0.00    +0.000 A 
ATOM     26  C   UNL     1       7.682   6.837  17.255  0.00  0.00    +0.000 A 
ATOM     27  C   UNL     1       7.923   6.665  18.620  0.00  0.00    +0.000 A 
ATOM     28  C   UNL     1       7.176   5.743  19.356  0.00  0.00    +0.000 A 
ATOM     29  C   UNL     1       6.174   4.983  18.727  0.00  0.00    +0.000 A 
ATOM     30  N   UNL     1       5.448   4.075  19.442  0.00  0.00    +0.000 N 
ATOM     31  H   UNL     1       5.640   3.953  20.462  0.00  0.00    +0.000 HD
ENDBRANCH  18  20
ENDBRANCH  17  18
ENDBRANCH   1  17
TORSDOF 8
ENDMDL
MODEL 8
REMARK VINA RESULT:      -7.0      3.874      5.535
REMARK  Name = 
REMARK  10 active torsions:
REMARK  status: ('A' for Active; 'I' for Inactive)
REMARK    1  A    between atoms: C_1  and  C_2
REMARK    2  A    between atoms: C_4  and  C_5
REMARK    3  A    between atoms: C_6  and  C_7
REMARK    4  A    between atoms: C_11  and  C_12
REMARK    5  A    between atoms: C_12  and  N_13
REMARK    6  A    between atoms: N_13  and  C_14
REMARK    7  A    between atoms: C_14  and  C_15
REMARK    8  A    between atoms: C_15  and  C_16
REMARK    9  A    between atoms: C_16  and  N_17
REMARK   10  A    between atoms: N_17  and  C_18
REMARK                            x       y       z     vdW  Elec       q    Type
REMARK                         _______ _______ _______ _____ _____    ______ ____
ROOT
ATOM      1  C   UNL     1       0.068   8.873  21.023  0.00  0.00    +0.000 C 
ENDROOT
BRANCH   1   2
ATOM      2  C   UNL     1      -0.005  10.273  20.411  0.00  0.00    +0.000 C 
BRANCH   2   3
ATOM      3  N   UNL     1      -0.670  10.200  19.112  0.00  0.00    +0.000 NA
ATOM      4  H   UNL     1       0.040   9.836  18.437  0.00  0.00    +0.000 HD
BRANCH   3   5
ATOM      5  C   UNL     1      -1.072  11.528  18.650  0.00  0.00    +0.000 C 
BRANCH   5  12
ATOM      6  C   UNL     1      -2.265  13.084  21.277  0.00  0.00    +0.000 C 
ATOM      7  C   UNL     1      -3.012  12.532  20.098  0.00  0.00    +0.000 A 
ATOM      8  S   UNL     1      -4.674  12.671  19.976  0.00  0.00    +0.000 S 
ATOM      9  C   UNL     1      -4.840  11.866  18.517  0.00  0.00    +0.000 A 
ATOM     10  C   UNL     1      -6.167  11.633  17.867  0.00  0.00    +0.000 C 
ATOM     11  C   UNL     1      -3.572  11.471  18.065  0.00  0.00    +0.000 A 
ATOM     12  C   UNL     1      -2.527  11.849  18.958  0.00  0.00    +0.000 A 
BRANCH  11  13
ATOM     13  C   UNL     1      -3.320  10.714  16.772  0.00  0.00    +0.000 C 
ATOM     14  F   UNL     1      -2.960   9.398  16.988  0.00  0.00    +0.000 F 
ATOM     15  F   UNL     1      -4.464  10.717  15.997  0.00  0.00    +0.000 F 
ATOM     16  F   UNL     1      -2.293  11.318  16.069  0.00  0.00    +0.000 F 
ENDBRANCH  11  13
ENDBRANCH   5  12
ENDBRANCH   3   5
ENDBRANCH   2   3
ENDBRANCH   1   2
BRANCH   1  17
ATOM     17  C   UNL     1       1.464   8.294  20.825  0.00  0.00    +0.000 C 
BRANCH  17  18
ATOM     18  N   UNL     1       1.848   8.283  19.427  0.00  0.00    +0.000 N 
ATOM     19  H   UNL     1       1.643   9.106  18.838  0.00  0.00    +0.000 HD
BRANCH  18  20
ATOM     20  C   UNL     1       2.521   7.171  18.844  0.00  0.00    +0.000 A 
ATOM     21  C   UNL     1       2.319   5.862  19.321  0.00  0.00    +0.000 A 
ATOM     22  C   UNL     1       2.996   4.794  18.743  0.00  0.00    +0.000 A 
ATOM     23  O   UNL     1       2.807   3.667  19.169  0.00  0.00    +0.000 OA
ATOM     24  C   UNL     1       3.886   5.027  17.684  0.00  0.00    +0.000 A 
ATOM     25  C   UNL     1       4.599   3.977  17.077  0.00  0.00    +0.000 A 
ATOM     26  C   UNL     1       5.481   4.243  16.028  0.00  0.00    +0.000 A 
ATOM     27  C   UNL     1       5.660   5.551  15.574  0.00  0.00    +0.000 A 
ATOM     28  C   UNL     1       4.959   6.603  16.165  0.00  0.00    +0.000 A 
ATOM     29  C   UNL     1       4.067   6.353  17.223  0.00  0.00    +0.000 A 
ATOM     30  N   UNL     1       3.387   7.380  17.809  0.00  0.00    +0.000 N 
ATOM     31  H   UNL     1       3.531   8.355  17.462  0.00  0.00    +0.000 HD
ENDBRANCH  18  20
ENDBRANCH  17  18
ENDBRANCH   1  17
TORSDOF 8
ENDMDL
MODEL 9
REMARK VINA RESULT:      -7.0      2.238      3.140
REMARK  Name = 
REMARK  10 active torsions:
REMARK  status: ('A' for Active; 'I' for Inactive)
REMARK    1  A    between atoms: C_1  and  C_2
REMARK    2  A    between atoms: C_4  and  C_5
REMARK    3  A    between atoms: C_6  and  C_7
REMARK    4  A    between atoms: C_11  and  C_12
REMARK    5  A    between atoms: C_12  and  N_13
REMARK    6  A    between atoms: N_13  and  C_14
REMARK    7  A    between atoms: C_14  and  C_15
REMARK    8  A    between atoms: C_15  and  C_16
REMARK    9  A    between atoms: C_16  and  N_17
REMARK   10  A    between atoms: N_17  and  C_18
REMARK                            x       y       z     vdW  Elec       q    Type
REMARK                         _______ _______ _______ _____ _____    ______ ____
ROOT
ATOM      1  C   UNL     1       1.384   4.105  20.316  0.00  0.00    +0.000 C 
ENDROOT
BRANCH   1   2
ATOM      2  C   UNL     1       2.039   5.368  20.878  0.00  0.00    +0.000 C 
BRANCH   2   3
ATOM      3  N   UNL     1       1.161   6.512  20.646  0.00  0.00    +0.000 NA
ATOM      4  H   UNL     1       0.915   6.496  19.630  0.00  0.00    +0.000 HD
BRANCH   3   5
ATOM      5  C   UNL     1       1.856   7.772  20.907  0.00  0.00    +0.000 C 
BRANCH   5  12
ATOM      6  C   UNL     1      -0.064   9.211  23.142  0.00  0.00    +0.000 C 
ATOM      7  C   UNL     1       0.154   9.598  21.707  0.00  0.00    +0.000 A 
ATOM      8  S   UNL     1      -0.612  10.924  21.035  0.00  0.00    +0.000 S 
ATOM      9  C   UNL     1       0.024  10.768  19.495  0.00  0.00    +0.000 A 
ATOM     10  C   UNL     1      -0.329  11.696  18.376  0.00  0.00    +0.000 C 
ATOM     11  C   UNL     1       0.885   9.661  19.464  0.00  0.00    +0.000 A 
ATOM     12  C   UNL     1       0.966   8.992  20.720  0.00  0.00    +0.000 A 
BRANCH  11  13
ATOM     13  C   UNL     1       1.650   9.203  18.233  0.00  0.00    +0.000 C 
ATOM     14  F   UNL     1       2.676   8.331  18.539  0.00  0.00    +0.000 F 
ATOM     15  F   UNL     1       0.793   8.560  17.361  0.00  0.00    +0.000 F 
ATOM     16  F   UNL     1       2.208  10.298  17.596  0.00  0.00    +0.000 F 
ENDBRANCH  11  13
ENDBRANCH   5  12
ENDBRANCH   3   5
ENDBRANCH   2   3
ENDBRANCH   1   2
BRANCH   1  17
ATOM     17  C   UNL     1       2.333   2.920  20.464  0.00  0.00    +0.000 C 
BRANCH  17  18
ATOM     18  N   UNL     1       2.902   2.526  19.191  0.00  0.00    +0.000 N 
ATOM     19  H   UNL     1       2.595   1.645  18.749  0.00  0.00    +0.000 HD
BRANCH  18  20
ATOM     20  C   UNL     1       3.863   3.334  18.518  0.00  0.00    +0.000 A 
ATOM     21  C   UNL     1       3.877   3.437  17.114  0.00  0.00    +0.000 A 
ATOM     22  C   UNL     1       4.831   4.223  16.479  0.00  0.00    +0.000 A 
ATOM     23  O   UNL     1       4.826   4.302  15.262  0.00  0.00    +0.000 OA
ATOM     24  C   UNL     1       5.785   4.911  17.243  0.00  0.00    +0.000 A 
ATOM     25  C   UNL     1       6.775   5.709  16.642  0.00  0.00    +0.000 A 
ATOM     26  C   UNL     1       7.714   6.377  17.431  0.00  0.00    +0.000 A 
ATOM     27  C   UNL     1       7.675   6.258  18.822  0.00  0.00    +0.000 A 
ATOM     28  C   UNL     1       6.698   5.470  19.434  0.00  0.00    +0.000 A 
ATOM     29  C   UNL     1       5.746   4.791  18.653  0.00  0.00    +0.000 A 
ATOM     30  N   UNL     1       4.796   4.013  19.248  0.00  0.00    +0.000 N 
ATOM     31  H   UNL     1       4.779   3.931  20.289  0.00  0.00    +0.000 HD
ENDBRANCH  18  20
ENDBRANCH  17  18
ENDBRANCH   1  17
TORSDOF 8
ENDMDL
