MODEL 1
REMARK VINA RESULT:      -8.5      0.000      0.000
REMARK  Name = 
REMARK  8 active torsions:
REMARK  status: ('A' for Active; 'I' for Inactive)
REMARK    1  A    between atoms: C_1  and  C_2
REMARK    2  A    between atoms: C_3  and  N_4
REMARK    3  A    between atoms: N_4  and  C_5
REMARK    4  A    between atoms: C_6  and  C_7
REMARK    5  A    between atoms: C_12  and  C_13
REMARK    6  A    between atoms: C_14  and  C_15
REMARK    7  A    between atoms: C_15  and  N_16
REMARK    8  A    between atoms: C_19  and  N_20
REMARK                            x       y       z     vdW  Elec       q    Type
REMARK                         _______ _______ _______ _____ _____    ______ ____
ROOT
ATOM      1  C   UNL     1       3.244   4.751  20.147  0.00  0.00    +0.000 A 
ATOM      2  C   UNL     1       3.115   3.339  20.150  0.00  0.00    +0.000 A 
ATOM      3  C   UNL     1       1.848   2.774  20.138  0.00  0.00    +0.000 A 
ATOM      4  N   UNL     1       0.704   3.482  20.179  0.00  0.00    +0.000 NA
ATOM      5  C   UNL     1       0.843   4.822  20.290  0.00  0.00    +0.000 A 
ATOM      6  C   UNL     1       2.061   5.514  20.319  0.00  0.00    +0.000 A 
ENDROOT
BRANCH   1   7
ATOM      7  N   UNL     1       4.531   5.364  19.988  0.00  0.00    +0.000 N 
ATOM      8  H   UNL     1       4.500   6.355  20.237  0.00  0.00    +0.000 HD
BRANCH   7  11
ATOM      9  C   UNL     1       3.419   6.004  17.325  0.00  0.00    +0.000 C 
ATOM     10  C   UNL     1       4.816   5.478  17.525  0.00  0.00    +0.000 A 
ATOM     11  C   UNL     1       5.359   5.256  18.819  0.00  0.00    +0.000 A 
ATOM     12  C   UNL     1       6.699   4.845  18.949  0.00  0.00    +0.000 A 
ATOM     13  C   UNL     1       7.546   4.699  17.851  0.00  0.00    +0.000 A 
ATOM     14  C   UNL     1       6.977   4.850  16.589  0.00  0.00    +0.000 A 
ATOM     15  N   UNL     1       7.548   4.698  15.346  0.00  0.00    +0.000 N 
ATOM     16  C   UNL     1       6.607   4.871  14.369  0.00  0.00    +0.000 A 
ATOM     17  C   UNL     1       5.426   5.212  14.987  0.00  0.00    +0.000 A 
ATOM     18  C   UNL     1       5.643   5.206  16.400  0.00  0.00    +0.000 A 
ATOM     19  H   UNL     1       8.517   4.458  15.189  0.00  0.00    +0.000 HD
ENDBRANCH   7  11
ENDBRANCH   1   7
BRANCH   2  20
ATOM     20  C   UNL     1       4.226   2.439  20.169  0.00  0.00    +0.000 C 
ATOM     21  N   UNL     1       5.175   1.766  20.155  0.00  0.00    +0.000 NA
ENDBRANCH   2  20
BRANCH   6  22
ATOM     22  C   UNL     1       1.942   6.980  20.463  0.00  0.00    +0.000 C 
ATOM     23  C   UNL     1       1.048   7.638  21.218  0.00  0.00    +0.000 C 
BRANCH  23  24
ATOM     24  C   UNL     1       0.977   9.142  21.297  0.00  0.00    +0.000 C 
BRANCH  24  25
ATOM     25  N   UNL     1       0.023   9.686  20.319  0.00  0.00    +0.000 NA
ATOM     26  C   UNL     1       0.642   9.749  18.982  0.00  0.00    +0.000 C 
ATOM     27  C   UNL     1      -0.341  10.277  17.931  0.00  0.00    +0.000 C 
ATOM     28  C   UNL     1      -0.885  11.647  18.343  0.00  0.00    +0.000 C 
ATOM     29  C   UNL     1      -1.491  11.560  19.739  0.00  0.00    +0.000 C 
ATOM     30  C   UNL     1      -0.466  11.015  20.727  0.00  0.00    +0.000 C 
BRANCH  28  31
ATOM     31  N   UNL     1      -1.884  12.139  17.395  0.00  0.00    +0.000 NA
ATOM     32  H   UNL     1      -2.799  11.758  17.633  0.00  0.00    +0.000 HD
ATOM     33  H   UNL     1      -1.671  11.799  16.459  0.00  0.00    +0.000 HD
ENDBRANCH  28  31
ENDBRANCH  24  25
ENDBRANCH  23  24
ENDBRANCH   6  22
TORSDOF 7
ENDMDL
MODEL 2
REMARK VINA RESULT:      -8.4      1.404      1.662
REMARK  Name = 
REMARK  8 active torsions:
REMARK  status: ('A' for Active; 'I' for Inactive)
REMARK    1  A    between atoms: C_1  and  C_2
REMARK    2  A    between atoms: C_3  and  N_4
REMARK    3  A    between atoms: N_4  and  C_5
REMARK    4  A    between atoms: C_6  and  C_7
REMARK    5  A    between atoms: C_12  and  C_13
REMARK    6  A    between atoms: C_14  and  C_15
REMARK    7  A    between atoms: C_15  and  N_16
REMARK    8  A    between atoms: C_19  and  N_20
REMARK                            x       y       z     vdW  Elec       q    Type
REMARK                         _______ _______ _______ _____ _____    ______ ____
ROOT
ATOM      1  C   UNL     1       3.641   4.477  19.825  0.00  0.00    +0.000 A 
ATOM      2  C   UNL     1       3.323   3.175  20.285  0.00  0.00    +0.000 A 
ATOM      3  C   UNL     1       1.993   2.782  20.342  0.00  0.00    +0.000 A 
ATOM      4  N   UNL     1       0.955   3.582  20.036  0.00  0.00    +0.000 NA
ATOM      5  C   UNL     1       1.268   4.855  19.707  0.00  0.00    +0.000 A 
ATOM      6  C   UNL     1       2.565   5.377  19.620  0.00  0.00    +0.000 A 
ENDROOT
BRANCH   1   7
ATOM      7  N   UNL     1       5.006   4.853  19.593  0.00  0.00    +0.000 N 
ATOM      8  H   UNL     1       5.281   5.631  20.197  0.00  0.00    +0.000 HD
BRANCH   7  11
ATOM      9  C   UNL     1       4.113   3.300  17.243  0.00  0.00    +0.000 C 
ATOM     10  C   UNL     1       5.230   4.308  17.183  0.00  0.00    +0.000 A 
ATOM     11  C   UNL     1       5.588   5.104  18.304  0.00  0.00    +0.000 A 
ATOM     12  C   UNL     1       6.583   6.091  18.167  0.00  0.00    +0.000 A 
ATOM     13  C   UNL     1       7.201   6.364  16.948  0.00  0.00    +0.000 A 
ATOM     14  C   UNL     1       6.890   5.527  15.879  0.00  0.00    +0.000 A 
ATOM     15  N   UNL     1       7.393   5.518  14.597  0.00  0.00    +0.000 N 
ATOM     16  C   UNL     1       6.861   4.476  13.889  0.00  0.00    +0.000 A 
ATOM     17  C   UNL     1       5.948   3.845  14.702  0.00  0.00    +0.000 A 
ATOM     18  C   UNL     1       5.951   4.502  15.971  0.00  0.00    +0.000 A 
ATOM     19  H   UNL     1       8.080   6.171  14.250  0.00  0.00    +0.000 HD
ENDBRANCH   7  11
ENDBRANCH   1   7
BRANCH   2  20
ATOM     20  C   UNL     1       4.299   2.219  20.708  0.00  0.00    +0.000 C 
ATOM     21  N   UNL     1       5.150   1.492  21.026  0.00  0.00    +0.000 NA
ENDBRANCH   2  20
BRANCH   6  22
ATOM     22  C   UNL     1       2.639   6.807  19.256  0.00  0.00    +0.000 C 
ATOM     23  C   UNL     1       2.251   7.357  18.092  0.00  0.00    +0.000 C 
BRANCH  23  24
ATOM     24  C   UNL     1       2.378   8.828  17.788  0.00  0.00    +0.000 C 
BRANCH  24  25
ATOM     25  N   UNL     1       1.372   9.615  18.516  0.00  0.00    +0.000 NA
ATOM     26  C   UNL     1       0.059   9.502  17.855  0.00  0.00    +0.000 C 
ATOM     27  C   UNL     1      -1.021  10.282  18.612  0.00  0.00    +0.000 C 
ATOM     28  C   UNL     1      -0.617  11.749  18.767  0.00  0.00    +0.000 C 
ATOM     29  C   UNL     1       0.756  11.837  19.425  0.00  0.00    +0.000 C 
ATOM     30  C   UNL     1       1.775  11.028  18.629  0.00  0.00    +0.000 C 
BRANCH  28  31
ATOM     31  N   UNL     1      -1.595  12.499  19.554  0.00  0.00    +0.000 NA
ATOM     32  H   UNL     1      -1.184  12.768  20.448  0.00  0.00    +0.000 HD
ATOM     33  H   UNL     1      -2.391  11.904  19.776  0.00  0.00    +0.000 HD
ENDBRANCH  28  31
ENDBRANCH  24  25
ENDBRANCH  23  24
ENDBRANCH   6  22
TORSDOF 7
ENDMDL
MODEL 3
REMARK VINA RESULT:      -8.3      1.553      2.091
REMARK  Name = 
REMARK  8 active torsions:
REMARK  status: ('A' for Active; 'I' for Inactive)
REMARK    1  A    between atoms: C_1  and  C_2
REMARK    2  A    between atoms: C_3  and  N_4
REMARK    3  A    between atoms: N_4  and  C_5
REMARK    4  A    between atoms: C_6  and  C_7
REMARK    5  A    between atoms: C_12  and  C_13
REMARK    6  A    between atoms: C_14  and  C_15
REMARK    7  A    between atoms: C_15  and  N_16
REMARK    8  A    between atoms: C_19  and  N_20
REMARK                            x       y       z     vdW  Elec       q    Type
REMARK                         _______ _______ _______ _____ _____    ______ ____
ROOT
ATOM      1  C   UNL     1       3.594   4.150  19.733  0.00  0.00    +0.000 A 
ATOM      2  C   UNL     1       3.437   2.813  20.178  0.00  0.00    +0.000 A 
ATOM      3  C   UNL     1       2.172   2.242  20.176  0.00  0.00    +0.000 A 
ATOM      4  N   UNL     1       1.049   2.895  19.824  0.00  0.00    +0.000 NA
ATOM      5  C   UNL     1       1.199   4.201  19.511  0.00  0.00    +0.000 A 
ATOM      6  C   UNL     1       2.415   4.896  19.481  0.00  0.00    +0.000 A 
ENDROOT
BRANCH   1   7
ATOM      7  N   UNL     1       4.904   4.711  19.563  0.00  0.00    +0.000 N 
ATOM      8  H   UNL     1       5.028   5.539  20.148  0.00  0.00    +0.000 HD
BRANCH   7  11
ATOM      9  C   UNL     1       4.091   3.217  17.146  0.00  0.00    +0.000 C 
ATOM     10  C   UNL     1       5.203   4.233  17.146  0.00  0.00    +0.000 A 
ATOM     11  C   UNL     1       5.521   5.000  18.299  0.00  0.00    +0.000 A 
ATOM     12  C   UNL     1       6.513   5.996  18.219  0.00  0.00    +0.000 A 
ATOM     13  C   UNL     1       7.166   6.306  17.026  0.00  0.00    +0.000 A 
ATOM     14  C   UNL     1       6.893   5.497  15.926  0.00  0.00    +0.000 A 
ATOM     15  N   UNL     1       7.433   5.526  14.660  0.00  0.00    +0.000 N 
ATOM     16  C   UNL     1       6.929   4.500  13.909  0.00  0.00    +0.000 A 
ATOM     17  C   UNL     1       5.996   3.842  14.676  0.00  0.00    +0.000 A 
ATOM     18  C   UNL     1       5.958   4.464  15.962  0.00  0.00    +0.000 A 
ATOM     19  H   UNL     1       8.126   6.193  14.351  0.00  0.00    +0.000 HD
ENDBRANCH   7  11
ENDBRANCH   1   7
BRANCH   2  20
ATOM     20  C   UNL     1       4.515   1.997  20.643  0.00  0.00    +0.000 C 
ATOM     21  N   UNL     1       5.359   1.335  21.095  0.00  0.00    +0.000 NA
ENDBRANCH   2  20
BRANCH   6  22
ATOM     22  C   UNL     1       2.308   6.325  19.122  0.00  0.00    +0.000 C 
ATOM     23  C   UNL     1       1.809   7.307  19.891  0.00  0.00    +0.000 C 
BRANCH  23  24
ATOM     24  C   UNL     1       1.714   8.744  19.443  0.00  0.00    +0.000 C 
BRANCH  24  25
ATOM     25  N   UNL     1       1.249   9.616  20.532  0.00  0.00    +0.000 NA
ATOM     26  C   UNL     1       0.573   8.818  21.572  0.00  0.00    +0.000 C 
ATOM     27  C   UNL     1       0.110   9.694  22.740  0.00  0.00    +0.000 C 
ATOM     28  C   UNL     1      -0.801  10.819  22.242  0.00  0.00    +0.000 C 
ATOM     29  C   UNL     1      -0.090  11.608  21.148  0.00  0.00    +0.000 C 
ATOM     30  C   UNL     1       0.355  10.674  20.028  0.00  0.00    +0.000 C 
BRANCH  28  31
ATOM     31  N   UNL     1      -1.195  11.716  23.328  0.00  0.00    +0.000 NA
ATOM     32  H   UNL     1      -0.372  12.192  23.696  0.00  0.00    +0.000 HD
ATOM     33  H   UNL     1      -1.580  11.177  24.101  0.00  0.00    +0.000 HD
ENDBRANCH  28  31
ENDBRANCH  24  25
ENDBRANCH  23  24
ENDBRANCH   6  22
TORSDOF 7
ENDMDL
MODEL 4
REMARK VINA RESULT:      -8.3      1.448      2.013
REMARK  Name = 
REMARK  8 active torsions:
REMARK  status: ('A' for Active; 'I' for Inactive)
REMARK    1  A    between atoms: C_1  and  C_2
REMARK    2  A    between atoms: C_3  and  N_4
REMARK    3  A    between atoms: N_4  and  C_5
REMARK    4  A    between atoms: C_6  and  C_7
REMARK    5  A    between atoms: C_12  and  C_13
REMARK    6  A    between atoms: C_14  and  C_15
REMARK    7  A    between atoms: C_15  and  N_16
REMARK    8  A    between atoms: C_19  and  N_20
REMARK                            x       y       z     vdW  Elec       q    Type
REMARK                         _______ _______ _______ _____ _____    ______ ____
ROOT
ATOM      1  C   UNL     1       3.483   4.045  19.316  0.00  0.00    +0.000 A 
ATOM      2  C   UNL     1       3.307   2.799  19.969  0.00  0.00    +0.000 A 
ATOM      3  C   UNL     1       2.069   2.173  19.914  0.00  0.00    +0.000 A 
ATOM      4  N   UNL     1       0.983   2.697  19.317  0.00  0.00    +0.000 NA
ATOM      5  C   UNL     1       1.136   3.935  18.796  0.00  0.00    +0.000 A 
ATOM      6  C   UNL     1       2.326   4.675  18.792  0.00  0.00    +0.000 A 
ENDROOT
BRANCH   1   7
ATOM      7  N   UNL     1       4.787   4.633  19.210  0.00  0.00    +0.000 N 
ATOM      8  H   UNL     1       4.864   5.464  19.799  0.00  0.00    +0.000 HD
BRANCH   7  11
ATOM      9  C   UNL     1       4.152   3.097  16.766  0.00  0.00    +0.000 C 
ATOM     10  C   UNL     1       5.228   4.149  16.817  0.00  0.00    +0.000 A 
ATOM     11  C   UNL     1       5.460   4.934  17.977  0.00  0.00    +0.000 A 
ATOM     12  C   UNL     1       6.422   5.962  17.941  0.00  0.00    +0.000 A 
ATOM     13  C   UNL     1       7.125   6.286  16.782  0.00  0.00    +0.000 A 
ATOM     14  C   UNL     1       6.938   5.461  15.676  0.00  0.00    +0.000 A 
ATOM     15  N   UNL     1       7.542   5.500  14.440  0.00  0.00    +0.000 N 
ATOM     16  C   UNL     1       7.114   4.453  13.672  0.00  0.00    +0.000 A 
ATOM     17  C   UNL     1       6.164   3.769  14.395  0.00  0.00    +0.000 A 
ATOM     18  C   UNL     1       6.037   4.398  15.672  0.00  0.00    +0.000 A 
ATOM     19  H   UNL     1       8.229   6.187  14.162  0.00  0.00    +0.000 HD
ENDBRANCH   7  11
ENDBRANCH   1   7
BRANCH   2  20
ATOM     20  C   UNL     1       4.338   2.132  20.701  0.00  0.00    +0.000 C 
ATOM     21  N   UNL     1       5.217   1.579  21.227  0.00  0.00    +0.000 NA
ENDBRANCH   2  20
BRANCH   6  22
ATOM     22  C   UNL     1       2.226   6.013  18.173  0.00  0.00    +0.000 C 
ATOM     23  C   UNL     1       2.430   7.192  18.783  0.00  0.00    +0.000 C 
BRANCH  23  24
ATOM     24  C   UNL     1       2.288   8.521  18.085  0.00  0.00    +0.000 C 
BRANCH  24  25
ATOM     25  N   UNL     1       1.624   9.511  18.946  0.00  0.00    +0.000 NA
ATOM     26  C   UNL     1       1.318   8.919  20.262  0.00  0.00    +0.000 C 
ATOM     27  C   UNL     1       0.658   9.939  21.197  0.00  0.00    +0.000 C 
ATOM     28  C   UNL     1      -0.605  10.519  20.557  0.00  0.00    +0.000 C 
ATOM     29  C   UNL     1      -0.267  11.095  19.186  0.00  0.00    +0.000 C 
ATOM     30  C   UNL     1       0.398  10.034  18.316  0.00  0.00    +0.000 C 
BRANCH  28  31
ATOM     31  N   UNL     1      -1.211  11.551  21.396  0.00  0.00    +0.000 NA
ATOM     32  H   UNL     1      -0.529  11.885  22.077  0.00  0.00    +0.000 HD
ATOM     33  H   UNL     1      -1.978  11.154  21.935  0.00  0.00    +0.000 HD
ENDBRANCH  28  31
ENDBRANCH  24  25
ENDBRANCH  23  24
ENDBRANCH   6  22
TORSDOF 7
ENDMDL
MODEL 5
REMARK VINA RESULT:      -8.2      1.611      2.391
REMARK  Name = 
REMARK  8 active torsions:
REMARK  status: ('A' for Active; 'I' for Inactive)
REMARK    1  A    between atoms: C_1  and  C_2
REMARK    2  A    between atoms: C_3  and  N_4
REMARK    3  A    between atoms: N_4  and  C_5
REMARK    4  A    between atoms: C_6  and  C_7
REMARK    5  A    between atoms: C_12  and  C_13
REMARK    6  A    between atoms: C_14  and  C_15
REMARK    7  A    between atoms: C_15  and  N_16
REMARK    8  A    between atoms: C_19  and  N_20
REMARK                            x       y       z     vdW  Elec       q    Type
REMARK                         _______ _______ _______ _____ _____    ______ ____
ROOT
ATOM      1  C   UNL     1       3.417   4.177  20.080  0.00  0.00    +0.000 A 
ATOM      2  C   UNL     1       3.312   2.885  20.655  0.00  0.00    +0.000 A 
ATOM      3  C   UNL     1       2.069   2.430  21.075  0.00  0.00    +0.000 A 
ATOM      4  N   UNL     1       0.940   3.160  21.023  0.00  0.00    +0.000 NA
ATOM      5  C   UNL     1       1.077   4.428  20.576  0.00  0.00    +0.000 A 
ATOM      6  C   UNL     1       2.271   5.010  20.131  0.00  0.00    +0.000 A 
ENDROOT
BRANCH   1   7
ATOM      7  N   UNL     1       4.649   4.609  19.484  0.00  0.00    +0.000 N 
ATOM      8  H   UNL     1       4.835   5.591  19.695  0.00  0.00    +0.000 HD
BRANCH   7  11
ATOM      9  C   UNL     1       7.308   5.474  18.527  0.00  0.00    +0.000 C 
ATOM     10  C   UNL     1       6.260   4.888  17.618  0.00  0.00    +0.000 A 
ATOM     11  C   UNL     1       5.021   4.402  18.112  0.00  0.00    +0.000 A 
ATOM     12  C   UNL     1       4.113   3.787  17.228  0.00  0.00    +0.000 A 
ATOM     13  C   UNL     1       4.407   3.580  15.881  0.00  0.00    +0.000 A 
ATOM     14  C   UNL     1       5.593   4.126  15.400  0.00  0.00    +0.000 A 
ATOM     15  N   UNL     1       6.099   4.138  14.120  0.00  0.00    +0.000 N 
ATOM     16  C   UNL     1       7.265   4.850  14.079  0.00  0.00    +0.000 A 
ATOM     17  C   UNL     1       7.556   5.244  15.364  0.00  0.00    +0.000 A 
ATOM     18  C   UNL     1       6.505   4.790  16.219  0.00  0.00    +0.000 A 
ATOM     19  H   UNL     1       5.647   3.708  13.325  0.00  0.00    +0.000 HD
ENDBRANCH   7  11
ENDBRANCH   1   7
BRANCH   2  20
ATOM     20  C   UNL     1       4.421   2.004  20.842  0.00  0.00    +0.000 C 
ATOM     21  N   UNL     1       5.364   1.347  21.030  0.00  0.00    +0.000 NA
ENDBRANCH   2  20
BRANCH   6  22
ATOM     22  C   UNL     1       2.158   6.421  19.708  0.00  0.00    +0.000 C 
ATOM     23  C   UNL     1       1.621   7.427  20.418  0.00  0.00    +0.000 C 
BRANCH  23  24
ATOM     24  C   UNL     1       1.523   8.842  19.906  0.00  0.00    +0.000 C 
BRANCH  24  25
ATOM     25  N   UNL     1       1.046   9.758  20.952  0.00  0.00    +0.000 NA
ATOM     26  C   UNL     1       0.094   9.067  21.842  0.00  0.00    +0.000 C 
ATOM     27  C   UNL     1      -0.394   9.986  22.966  0.00  0.00    +0.000 C 
ATOM     28  C   UNL     1      -1.017  11.259  22.389  0.00  0.00    +0.000 C 
ATOM     29  C   UNL     1      -0.025  11.937  21.451  0.00  0.00    +0.000 C 
ATOM     30  C   UNL     1       0.428  10.963  20.369  0.00  0.00    +0.000 C 
BRANCH  28  31
ATOM     31  N   UNL     1      -1.422  12.189  23.443  0.00  0.00    +0.000 NA
ATOM     32  H   UNL     1      -1.017  13.108  23.264  0.00  0.00    +0.000 HD
ATOM     33  H   UNL     1      -1.044  11.884  24.338  0.00  0.00    +0.000 HD
ENDBRANCH  28  31
ENDBRANCH  24  25
ENDBRANCH  23  24
ENDBRANCH   6  22
TORSDOF 7
ENDMDL
MODEL 6
REMARK VINA RESULT:      -8.1      1.247      1.922
REMARK  Name = 
REMARK  8 active torsions:
REMARK  status: ('A' for Active; 'I' for Inactive)
REMARK    1  A    between atoms: C_1  and  C_2
REMARK    2  A    between atoms: C_3  and  N_4
REMARK    3  A    between atoms: N_4  and  C_5
REMARK    4  A    between atoms: C_6  and  C_7
REMARK    5  A    between atoms: C_12  and  C_13
REMARK    6  A    between atoms: C_14  and  C_15
REMARK    7  A    between atoms: C_15  and  N_16
REMARK    8  A    between atoms: C_19  and  N_20
REMARK                            x       y       z     vdW  Elec       q    Type
REMARK                         _______ _______ _______ _____ _____    ______ ____
ROOT
ATOM      1  C   UNL     1       3.485   4.479  19.912  0.00  0.00    +0.000 A 
ATOM      2  C   UNL     1       3.329   3.172  20.438  0.00  0.00    +0.000 A 
ATOM      3  C   UNL     1       2.080   2.766  20.887  0.00  0.00    +0.000 A 
ATOM      4  N   UNL     1       0.991   3.557  20.909  0.00  0.00    +0.000 NA
ATOM      5  C   UNL     1       1.181   4.834  20.510  0.00  0.00    +0.000 A 
ATOM      6  C   UNL     1       2.389   5.369  20.042  0.00  0.00    +0.000 A 
ENDROOT
BRANCH   1   7
ATOM      7  N   UNL     1       4.715   4.869  19.286  0.00  0.00    +0.000 N 
ATOM      8  H   UNL     1       4.918   5.856  19.458  0.00  0.00    +0.000 HD
BRANCH   7  11
ATOM      9  C   UNL     1       7.398   5.602  18.285  0.00  0.00    +0.000 C 
ATOM     10  C   UNL     1       6.321   5.028  17.401  0.00  0.00    +0.000 A 
ATOM     11  C   UNL     1       5.068   4.605  17.919  0.00  0.00    +0.000 A 
ATOM     12  C   UNL     1       4.131   3.997  17.062  0.00  0.00    +0.000 A 
ATOM     13  C   UNL     1       4.406   3.736  15.720  0.00  0.00    +0.000 A 
ATOM     14  C   UNL     1       5.608   4.221  15.214  0.00  0.00    +0.000 A 
ATOM     15  N   UNL     1       6.104   4.172  13.931  0.00  0.00    +0.000 N 
ATOM     16  C   UNL     1       7.296   4.838  13.859  0.00  0.00    +0.000 A 
ATOM     17  C   UNL     1       7.612   5.262  15.129  0.00  0.00    +0.000 A 
ATOM     18  C   UNL     1       6.551   4.876  16.005  0.00  0.00    +0.000 A 
ATOM     19  H   UNL     1       5.630   3.735  13.153  0.00  0.00    +0.000 HD
ENDBRANCH   7  11
ENDBRANCH   1   7
BRANCH   2  20
ATOM     20  C   UNL     1       4.394   2.224  20.545  0.00  0.00    +0.000 C 
ATOM     21  N   UNL     1       5.263   1.450  20.551  0.00  0.00    +0.000 NA
ENDBRANCH   2  20
BRANCH   6  22
ATOM     22  C   UNL     1       2.339   6.801  19.682  0.00  0.00    +0.000 C 
ATOM     23  C   UNL     1       2.196   7.310  18.447  0.00  0.00    +0.000 C 
BRANCH  23  24
ATOM     24  C   UNL     1       2.175   8.789  18.157  0.00  0.00    +0.000 C 
BRANCH  24  25
ATOM     25  N   UNL     1       1.001   9.437  18.761  0.00  0.00    +0.000 NA
ATOM     26  C   UNL     1      -0.038   9.665  17.740  0.00  0.00    +0.000 C 
ATOM     27  C   UNL     1      -1.291  10.306  18.347  0.00  0.00    +0.000 C 
ATOM     28  C   UNL     1      -0.936  11.612  19.062  0.00  0.00    +0.000 C 
ATOM     29  C   UNL     1       0.160  11.353  20.089  0.00  0.00    +0.000 C 
ATOM     30  C   UNL     1       1.367  10.704  19.421  0.00  0.00    +0.000 C 
BRANCH  28  31
ATOM     31  N   UNL     1      -2.103  12.204  19.716  0.00  0.00    +0.000 NA
ATOM     32  H   UNL     1      -2.933  11.653  19.501  0.00  0.00    +0.000 HD
ATOM     33  H   UNL     1      -2.275  13.135  19.341  0.00  0.00    +0.000 HD
ENDBRANCH  28  31
ENDBRANCH  24  25
ENDBRANCH  23  24
ENDBRANCH   6  22
TORSDOF 7
ENDMDL
MODEL 7
REMARK VINA RESULT:      -8.1      1.783      5.078
REMARK  Name = 
REMARK  8 active torsions:
REMARK  status: ('A' for Active; 'I' for Inactive)
REMARK    1  A    between atoms: C_1  and  C_2
REMARK    2  A    between atoms: C_3  and  N_4
REMARK    3  A    between atoms: N_4  and  C_5
REMARK    4  A    between atoms: C_6  and  C_7
REMARK    5  A    between atoms: C_12  and  C_13
REMARK    6  A    between atoms: C_14  and  C_15
REMARK    7  A    between atoms: C_15  and  N_16
REMARK    8  A    between atoms: C_19  and  N_20
REMARK                            x       y       z     vdW  Elec       q    Type
REMARK                         _______ _______ _______ _____ _____    ______ ____
ROOT
ATOM      1  C   UNL     1       5.227   4.972  16.666  0.00  0.00    +0.000 A 
ATOM      2  C   UNL     1       6.172   4.941  15.610  0.00  0.00    +0.000 A 
ATOM      3  C   UNL     1       7.190   5.884  15.582  0.00  0.00    +0.000 A 
ATOM      4  N   UNL     1       7.319   6.883  16.476  0.00  0.00    +0.000 NA
ATOM      5  C   UNL     1       6.347   6.967  17.411  0.00  0.00    +0.000 A 
ATOM      6  C   UNL     1       5.266   6.085  17.543  0.00  0.00    +0.000 A 
ENDROOT
BRANCH   1   7
ATOM      7  N   UNL     1       4.270   3.914  16.817  0.00  0.00    +0.000 N 
ATOM      8  H   UNL     1       3.442   4.083  16.242  0.00  0.00    +0.000 HD
BRANCH   7  11
ATOM      9  C   UNL     1       1.414   4.144  17.544  0.00  0.00    +0.000 C 
ATOM     10  C   UNL     1       2.453   3.572  18.472  0.00  0.00    +0.000 A 
ATOM     11  C   UNL     1       3.804   3.393  18.072  0.00  0.00    +0.000 A 
ATOM     12  C   UNL     1       4.713   2.775  18.952  0.00  0.00    +0.000 A 
ATOM     13  C   UNL     1       4.327   2.271  20.193  0.00  0.00    +0.000 A 
ATOM     14  C   UNL     1       3.018   2.519  20.597  0.00  0.00    +0.000 A 
ATOM     15  N   UNL     1       2.391   2.205  21.782  0.00  0.00    +0.000 N 
ATOM     16  C   UNL     1       1.117   2.700  21.787  0.00  0.00    +0.000 A 
ATOM     17  C   UNL     1       0.891   3.280  20.560  0.00  0.00    +0.000 A 
ATOM     18  C   UNL     1       2.089   3.171  19.789  0.00  0.00    +0.000 A 
ATOM     19  H   UNL     1       2.830   1.710  22.545  0.00  0.00    +0.000 HD
ENDBRANCH   7  11
ENDBRANCH   1   7
BRANCH   2  20
ATOM     20  C   UNL     1       6.145   3.986  14.546  0.00  0.00    +0.000 C 
ATOM     21  N   UNL     1       6.159   3.265  13.632  0.00  0.00    +0.000 NA
ENDBRANCH   2  20
BRANCH   6  22
ATOM     22  C   UNL     1       4.330   6.406  18.641  0.00  0.00    +0.000 C 
ATOM     23  C   UNL     1       3.151   7.040  18.526  0.00  0.00    +0.000 C 
BRANCH  23  24
ATOM     24  C   UNL     1       2.260   7.350  19.701  0.00  0.00    +0.000 C 
BRANCH  24  25
ATOM     25  N   UNL     1       1.844   8.760  19.702  0.00  0.00    +0.000 NA
ATOM     26  C   UNL     1       0.793   8.983  20.713  0.00  0.00    +0.000 C 
ATOM     27  C   UNL     1       0.365  10.453  20.765  0.00  0.00    +0.000 C 
ATOM     28  C   UNL     1      -0.099  10.928  19.386  0.00  0.00    +0.000 C 
ATOM     29  C   UNL     1       0.993  10.659  18.356  0.00  0.00    +0.000 C 
ATOM     30  C   UNL     1       1.379   9.184  18.369  0.00  0.00    +0.000 C 
BRANCH  28  31
ATOM     31  N   UNL     1      -0.441  12.350  19.391  0.00  0.00    +0.000 NA
ATOM     32  H   UNL     1      -1.360  12.481  19.811  0.00  0.00    +0.000 HD
ATOM     33  H   UNL     1      -0.516  12.691  18.434  0.00  0.00    +0.000 HD
ENDBRANCH  28  31
ENDBRANCH  24  25
ENDBRANCH  23  24
ENDBRANCH   6  22
TORSDOF 7
ENDMDL
MODEL 8
REMARK VINA RESULT:      -8.0      1.384      1.761
REMARK  Name = 
REMARK  8 active torsions:
REMARK  status: ('A' for Active; 'I' for Inactive)
REMARK    1  A    between atoms: C_1  and  C_2
REMARK    2  A    between atoms: C_3  and  N_4
REMARK    3  A    between atoms: N_4  and  C_5
REMARK    4  A    between atoms: C_6  and  C_7
REMARK    5  A    between atoms: C_12  and  C_13
REMARK    6  A    between atoms: C_14  and  C_15
REMARK    7  A    between atoms: C_15  and  N_16
REMARK    8  A    between atoms: C_19  and  N_20
REMARK                            x       y       z     vdW  Elec       q    Type
REMARK                         _______ _______ _______ _____ _____    ______ ____
ROOT
ATOM      1  C   UNL     1       3.721   4.528  19.646  0.00  0.00    +0.000 A 
ATOM      2  C   UNL     1       3.267   3.326  20.244  0.00  0.00    +0.000 A 
ATOM      3  C   UNL     1       1.902   3.087  20.335  0.00  0.00    +0.000 A 
ATOM      4  N   UNL     1       0.955   3.956  19.935  0.00  0.00    +0.000 NA
ATOM      5  C   UNL     1       1.402   5.143  19.471  0.00  0.00    +0.000 A 
ATOM      6  C   UNL     1       2.748   5.510  19.335  0.00  0.00    +0.000 A 
ENDROOT
BRANCH   1   7
ATOM      7  N   UNL     1       5.118   4.727  19.384  0.00  0.00    +0.000 N 
ATOM      8  H   UNL     1       5.520   5.404  20.034  0.00  0.00    +0.000 HD
BRANCH   7  11
ATOM      9  C   UNL     1       4.192   3.226  17.012  0.00  0.00    +0.000 C 
ATOM     10  C   UNL     1       5.313   4.231  16.961  0.00  0.00    +0.000 A 
ATOM     11  C   UNL     1       5.686   5.002  18.093  0.00  0.00    +0.000 A 
ATOM     12  C   UNL     1       6.684   5.987  17.966  0.00  0.00    +0.000 A 
ATOM     13  C   UNL     1       7.290   6.282  16.746  0.00  0.00    +0.000 A 
ATOM     14  C   UNL     1       6.964   5.470  15.664  0.00  0.00    +0.000 A 
ATOM     15  N   UNL     1       7.452   5.485  14.377  0.00  0.00    +0.000 N 
ATOM     16  C   UNL     1       6.908   4.460  13.653  0.00  0.00    +0.000 A 
ATOM     17  C   UNL     1       6.001   3.816  14.463  0.00  0.00    +0.000 A 
ATOM     18  C   UNL     1       6.021   4.446  15.745  0.00  0.00    +0.000 A 
ATOM     19  H   UNL     1       8.139   6.142  14.035  0.00  0.00    +0.000 HD
ENDBRANCH   7  11
ENDBRANCH   1   7
BRANCH   2  20
ATOM     20  C   UNL     1       4.136   2.323  20.777  0.00  0.00    +0.000 C 
ATOM     21  N   UNL     1       4.901   1.563  21.215  0.00  0.00    +0.000 NA
ENDBRANCH   2  20
BRANCH   6  22
ATOM     22  C   UNL     1       2.973   6.875  18.817  0.00  0.00    +0.000 C 
ATOM     23  C   UNL     1       2.031   7.802  18.572  0.00  0.00    +0.000 C 
BRANCH  23  24
ATOM     24  C   UNL     1       2.341   9.171  18.021  0.00  0.00    +0.000 C 
BRANCH  24  25
ATOM     25  N   UNL     1       1.189  10.075  18.154  0.00  0.00    +0.000 NA
ATOM     26  C   UNL     1       1.126  10.625  19.521  0.00  0.00    +0.000 C 
ATOM     27  C   UNL     1      -0.043  11.602  19.681  0.00  0.00    +0.000 C 
ATOM     28  C   UNL     1      -1.365  10.927  19.307  0.00  0.00    +0.000 C 
ATOM     29  C   UNL     1      -1.262  10.342  17.903  0.00  0.00    +0.000 C 
ATOM     30  C   UNL     1      -0.072   9.393  17.812  0.00  0.00    +0.000 C 
BRANCH  28  31
ATOM     31  N   UNL     1      -2.488  11.861  19.377  0.00  0.00    +0.000 NA
ATOM     32  H   UNL     1      -2.450  12.503  18.586  0.00  0.00    +0.000 HD
ATOM     33  H   UNL     1      -2.408  12.437  20.213  0.00  0.00    +0.000 HD
ENDBRANCH  28  31
ENDBRANCH  24  25
ENDBRANCH  23  24
ENDBRANCH   6  22
TORSDOF 7
ENDMDL
MODEL 9
REMARK VINA RESULT:      -8.0      2.814      9.002
REMARK  Name = 
REMARK  8 active torsions:
REMARK  status: ('A' for Active; 'I' for Inactive)
REMARK    1  A    between atoms: C_1  and  C_2
REMARK    2  A    between atoms: C_3  and  N_4
REMARK    3  A    between atoms: N_4  and  C_5
REMARK    4  A    between atoms: C_6  and  C_7
REMARK    5  A    between atoms: C_12  and  C_13
REMARK    6  A    between atoms: C_14  and  C_15
REMARK    7  A    between atoms: C_15  and  N_16
REMARK    8  A    between atoms: C_19  and  N_20
REMARK                            x       y       z     vdW  Elec       q    Type
REMARK                         _______ _______ _______ _____ _____    ______ ____
ROOT
ATOM      1  C   UNL     1      -0.428  10.784  21.026  0.00  0.00    +0.000 A 
ATOM      2  C   UNL     1      -1.118  11.239  22.178  0.00  0.00    +0.000 A 
ATOM      3  C   UNL     1      -0.835  10.664  23.409  0.00  0.00    +0.000 A 
ATOM      4  N   UNL     1       0.029   9.646  23.587  0.00  0.00    +0.000 NA
ATOM      5  C   UNL     1       0.594   9.149  22.465  0.00  0.00    +0.000 A 
ATOM      6  C   UNL     1       0.387   9.633  21.166  0.00  0.00    +0.000 A 
ENDROOT
BRANCH   1   7
ATOM      7  N   UNL     1      -0.572  11.470  19.774  0.00  0.00    +0.000 N 
ATOM      8  H   UNL     1      -0.491  12.481  19.897  0.00  0.00    +0.000 HD
BRANCH   7  11
ATOM      9  C   UNL     1      -0.148   9.663  17.474  0.00  0.00    +0.000 C 
ATOM     10  C   UNL     1      -1.414  10.453  17.673  0.00  0.00    +0.000 A 
ATOM     11  C   UNL     1      -1.631  11.250  18.829  0.00  0.00    +0.000 A 
ATOM     12  C   UNL     1      -2.868  11.899  19.004  0.00  0.00    +0.000 A 
ATOM     13  C   UNL     1      -3.926  11.745  18.108  0.00  0.00    +0.000 A 
ATOM     14  C   UNL     1      -3.672  11.020  16.947  0.00  0.00    +0.000 A 
ATOM     15  N   UNL     1      -4.494  10.769  15.872  0.00  0.00    +0.000 N 
ATOM     16  C   UNL     1      -3.815  10.071  14.912  0.00  0.00    +0.000 A 
ATOM     17  C   UNL     1      -2.558   9.805  15.402  0.00  0.00    +0.000 A 
ATOM     18  C   UNL     1      -2.449  10.398  16.697  0.00  0.00    +0.000 A 
ATOM     19  H   UNL     1      -5.450  11.087  15.799  0.00  0.00    +0.000 HD
ENDBRANCH   7  11
ENDBRANCH   1   7
BRANCH   2  20
ATOM     20  C   UNL     1      -2.110  12.268  22.158  0.00  0.00    +0.000 C 
ATOM     21  N   UNL     1      -2.931  13.091  22.219  0.00  0.00    +0.000 NA
ENDBRANCH   2  20
BRANCH   6  22
ATOM     22  C   UNL     1       1.113   8.903  20.106  0.00  0.00    +0.000 C 
ATOM     23  C   UNL     1       1.826   7.775  20.258  0.00  0.00    +0.000 C 
BRANCH  23  24
ATOM     24  C   UNL     1       2.557   7.099  19.126  0.00  0.00    +0.000 C 
BRANCH  24  25
ATOM     25  N   UNL     1       2.397   5.638  19.180  0.00  0.00    +0.000 NA
ATOM     26  C   UNL     1       3.639   5.005  19.659  0.00  0.00    +0.000 C 
ATOM     27  C   UNL     1       3.491   3.483  19.762  0.00  0.00    +0.000 C 
ATOM     28  C   UNL     1       3.064   2.891  18.418  0.00  0.00    +0.000 C 
ATOM     29  C   UNL     1       1.796   3.583  17.931  0.00  0.00    +0.000 C 
ATOM     30  C   UNL     1       2.010   5.092  17.866  0.00  0.00    +0.000 C 
BRANCH  28  31
ATOM     31  N   UNL     1       2.841   1.448  18.509  0.00  0.00    +0.000 NA
ATOM     32  H   UNL     1       3.210   1.099  19.393  0.00  0.00    +0.000 HD
ATOM     33  H   UNL     1       3.361   0.970  17.776  0.00  0.00    +0.000 HD
ENDBRANCH  28  31
ENDBRANCH  24  25
ENDBRANCH  23  24
ENDBRANCH   6  22
TORSDOF 7
ENDMDL
