MODEL 1
REMARK VINA RESULT:      -7.1      0.000      0.000
REMARK  Name = 
REMARK  3 active torsions:
REMARK  status: ('A' for Active; 'I' for Inactive)
REMARK    1  A    between atoms: O_1  and  C_2
REMARK    2  A    between atoms: C_2  and  CA_3
REMARK    3  A    between atoms: C_5  and  C_6
REMARK                            x       y       z     vdW  Elec       q    Type
REMARK                         _______ _______ _______ _____ _____    ______ ____
ROOT
ATOM      1  CA  UNL     1       6.387   4.283  14.127  0.00  0.00    +0.000 A 
ATOM      2  C   UNL     1       5.404   4.000  15.073  0.00  0.00    +0.000 A 
ATOM      3  C   UNL     1       5.474   4.582  16.344  0.00  0.00    +0.000 A 
ATOM      4  C   UNL     1       6.543   5.438  16.612  0.00  0.00    +0.000 A 
ATOM      5  C   UNL     1       7.466   5.687  15.611  0.00  0.00    +0.000 A 
ATOM      6  N   UNL     1       7.407   5.140  14.379  0.00  0.00    +0.000 NA
ENDROOT
BRANCH   3   7
ATOM      7  C   UNL     1       4.423   4.311  17.340  0.00  0.00    +0.000 A 
ATOM      8  C   UNL     1       3.293   3.530  17.205  0.00  0.00    +0.000 A 
ATOM      9  C   UNL     1       2.470   3.494  18.377  0.00  0.00    +0.000 A 
ATOM     10  C   UNL     1       1.248   2.826  18.623  0.00  0.00    +0.000 A 
ATOM     11  C   UNL     1       0.616   2.944  19.865  0.00  0.00    +0.000 A 
ATOM     12  C   UNL     1       1.180   3.724  20.865  0.00  0.00    +0.000 A 
ATOM     13  C   UNL     1       2.384   4.396  20.650  0.00  0.00    +0.000 A 
ATOM     14  C   UNL     1       3.020   4.267  19.401  0.00  0.00    +0.000 A 
ATOM     15  S   UNL     1       4.501   4.983  18.914  0.00  0.00    +0.000 S 
ENDBRANCH   3   7
BRANCH   1  16
ATOM     16  C   UNL     1       6.333   3.671  12.749  0.00  0.00    +0.000 C 
BRANCH  16  17
ATOM     17  O   UNL     1       7.280   4.269  11.866  0.00  0.00    +0.000 OA
ATOM     18  H   UNL     1       7.974   4.650  12.426  0.00  0.00    +0.000 HD
ENDBRANCH  16  17
ENDBRANCH   1  16
TORSDOF 3
ENDMDL
MODEL 2
REMARK VINA RESULT:      -6.9      1.360      1.798
REMARK  Name = 
REMARK  3 active torsions:
REMARK  status: ('A' for Active; 'I' for Inactive)
REMARK    1  A    between atoms: O_1  and  C_2
REMARK    2  A    between atoms: C_2  and  CA_3
REMARK    3  A    between atoms: C_5  and  C_6
REMARK                            x       y       z     vdW  Elec       q    Type
REMARK                         _______ _______ _______ _____ _____    ______ ____
ROOT
ATOM      1  CA  UNL     1       6.731   5.104  15.406  0.00  0.00    +0.000 A 
ATOM      2  C   UNL     1       5.718   4.587  16.212  0.00  0.00    +0.000 A 
ATOM      3  C   UNL     1       5.578   5.038  17.529  0.00  0.00    +0.000 A 
ATOM      4  C   UNL     1       6.473   6.006  17.986  0.00  0.00    +0.000 A 
ATOM      5  C   UNL     1       7.437   6.487  17.117  0.00  0.00    +0.000 A 
ATOM      6  N   UNL     1       7.579   6.067  15.842  0.00  0.00    +0.000 NA
ENDROOT
BRANCH   3   7
ATOM      7  C   UNL     1       4.492   4.519  18.377  0.00  0.00    +0.000 A 
ATOM      8  C   UNL     1       4.587   3.738  19.512  0.00  0.00    +0.000 A 
ATOM      9  C   UNL     1       3.321   3.397  20.089  0.00  0.00    +0.000 A 
ATOM     10  C   UNL     1       3.008   2.620  21.229  0.00  0.00    +0.000 A 
ATOM     11  C   UNL     1       1.676   2.419  21.602  0.00  0.00    +0.000 A 
ATOM     12  C   UNL     1       0.648   2.976  20.854  0.00  0.00    +0.000 A 
ATOM     13  C   UNL     1       0.927   3.746  19.724  0.00  0.00    +0.000 A 
ATOM     14  C   UNL     1       2.269   3.952  19.356  0.00  0.00    +0.000 A 
ATOM     15  S   UNL     1       2.852   4.866  18.025  0.00  0.00    +0.000 S 
ENDBRANCH   3   7
BRANCH   1  16
ATOM     16  C   UNL     1       6.902   4.635  13.982  0.00  0.00    +0.000 C 
BRANCH  16  17
ATOM     17  O   UNL     1       7.815   5.459  13.260  0.00  0.00    +0.000 OA
ATOM     18  H   UNL     1       7.754   6.344  13.650  0.00  0.00    +0.000 HD
ENDBRANCH  16  17
ENDBRANCH   1  16
TORSDOF 3
ENDMDL
MODEL 3
REMARK VINA RESULT:      -6.9      2.370      3.264
REMARK  Name = 
REMARK  3 active torsions:
REMARK  status: ('A' for Active; 'I' for Inactive)
REMARK    1  A    between atoms: O_1  and  C_2
REMARK    2  A    between atoms: C_2  and  CA_3
REMARK    3  A    between atoms: C_5  and  C_6
REMARK                            x       y       z     vdW  Elec       q    Type
REMARK                         _______ _______ _______ _____ _____    ______ ____
ROOT
ATOM      1  CA  UNL     1       7.159   6.757  17.092  0.00  0.00    +0.000 A 
ATOM      2  C   UNL     1       6.080   6.230  17.800  0.00  0.00    +0.000 A 
ATOM      3  C   UNL     1       5.437   5.078  17.333  0.00  0.00    +0.000 A 
ATOM      4  C   UNL     1       5.916   4.495  16.158  0.00  0.00    +0.000 A 
ATOM      5  C   UNL     1       7.008   5.065  15.527  0.00  0.00    +0.000 A 
ATOM      6  N   UNL     1       7.642   6.170  15.970  0.00  0.00    +0.000 NA
ENDROOT
BRANCH   3   7
ATOM      7  C   UNL     1       4.316   4.498  18.090  0.00  0.00    +0.000 A 
ATOM      8  C   UNL     1       4.125   4.472  19.457  0.00  0.00    +0.000 A 
ATOM      9  C   UNL     1       2.921   3.811  19.863  0.00  0.00    +0.000 A 
ATOM     10  C   UNL     1       2.389   3.575  21.152  0.00  0.00    +0.000 A 
ATOM     11  C   UNL     1       1.179   2.892  21.302  0.00  0.00    +0.000 A 
ATOM     12  C   UNL     1       0.491   2.432  20.187  0.00  0.00    +0.000 A 
ATOM     13  C   UNL     1       0.993   2.649  18.903  0.00  0.00    +0.000 A 
ATOM     14  C   UNL     1       2.208   3.344  18.756  0.00  0.00    +0.000 A 
ATOM     15  S   UNL     1       3.007   3.737  17.289  0.00  0.00    +0.000 S 
ENDBRANCH   3   7
BRANCH   1  16
ATOM     16  C   UNL     1       7.870   7.997  17.577  0.00  0.00    +0.000 C 
BRANCH  16  17
ATOM     17  O   UNL     1       8.567   7.763  18.799  0.00  0.00    +0.000 OA
ATOM     18  H   UNL     1       7.963   8.017  19.514  0.00  0.00    +0.000 HD
ENDBRANCH  16  17
ENDBRANCH   1  16
TORSDOF 3
ENDMDL
MODEL 4
REMARK VINA RESULT:      -6.7      2.259      2.943
REMARK  Name = 
REMARK  3 active torsions:
REMARK  status: ('A' for Active; 'I' for Inactive)
REMARK    1  A    between atoms: O_1  and  C_2
REMARK    2  A    between atoms: C_2  and  CA_3
REMARK    3  A    between atoms: C_5  and  C_6
REMARK                            x       y       z     vdW  Elec       q    Type
REMARK                         _______ _______ _______ _____ _____    ______ ____
ROOT
ATOM      1  CA  UNL     1       7.212   6.848  17.056  0.00  0.00    +0.000 A 
ATOM      2  C   UNL     1       6.124   6.318  17.747  0.00  0.00    +0.000 A 
ATOM      3  C   UNL     1       5.470   5.184  17.251  0.00  0.00    +0.000 A 
ATOM      4  C   UNL     1       5.947   4.622  16.066  0.00  0.00    +0.000 A 
ATOM      5  C   UNL     1       7.049   5.193  15.452  0.00  0.00    +0.000 A 
ATOM      6  N   UNL     1       7.694   6.281  15.923  0.00  0.00    +0.000 NA
ENDROOT
BRANCH   3   7
ATOM      7  C   UNL     1       4.338   4.601  17.990  0.00  0.00    +0.000 A 
ATOM      8  C   UNL     1       3.412   3.676  17.551  0.00  0.00    +0.000 A 
ATOM      9  C   UNL     1       2.427   3.330  18.533  0.00  0.00    +0.000 A 
ATOM     10  C   UNL     1       1.328   2.443  18.462  0.00  0.00    +0.000 A 
ATOM     11  C   UNL     1       0.488   2.270  19.566  0.00  0.00    +0.000 A 
ATOM     12  C   UNL     1       0.722   2.972  20.740  0.00  0.00    +0.000 A 
ATOM     13  C   UNL     1       1.798   3.855  20.838  0.00  0.00    +0.000 A 
ATOM     14  C   UNL     1       2.645   4.021  19.727  0.00  0.00    +0.000 A 
ATOM     15  S   UNL     1       4.027   5.033  19.618  0.00  0.00    +0.000 S 
ENDBRANCH   3   7
BRANCH   1  16
ATOM     16  C   UNL     1       7.935   8.068  17.572  0.00  0.00    +0.000 C 
BRANCH  16  17
ATOM     17  O   UNL     1       8.584   7.811  18.816  0.00  0.00    +0.000 OA
ATOM     18  H   UNL     1       8.757   8.676  19.219  0.00  0.00    +0.000 HD
ENDBRANCH  16  17
ENDBRANCH   1  16
TORSDOF 3
ENDMDL
MODEL 5
REMARK VINA RESULT:      -6.7      1.091      1.485
REMARK  Name = 
REMARK  3 active torsions:
REMARK  status: ('A' for Active; 'I' for Inactive)
REMARK    1  A    between atoms: O_1  and  C_2
REMARK    2  A    between atoms: C_2  and  CA_3
REMARK    3  A    between atoms: C_5  and  C_6
REMARK                            x       y       z     vdW  Elec       q    Type
REMARK                         _______ _______ _______ _____ _____    ______ ____
ROOT
ATOM      1  CA  UNL     1       6.344   4.225  14.037  0.00  0.00    +0.000 A 
ATOM      2  C   UNL     1       5.354   3.945  14.977  0.00  0.00    +0.000 A 
ATOM      3  C   UNL     1       5.438   4.496  16.261  0.00  0.00    +0.000 A 
ATOM      4  C   UNL     1       6.529   5.319  16.547  0.00  0.00    +0.000 A 
ATOM      5  C   UNL     1       7.457   5.568  15.551  0.00  0.00    +0.000 A 
ATOM      6  N   UNL     1       7.385   5.050  14.307  0.00  0.00    +0.000 NA
ENDROOT
BRANCH   3   7
ATOM      7  C   UNL     1       4.382   4.229  17.251  0.00  0.00    +0.000 A 
ATOM      8  C   UNL     1       3.710   5.130  18.053  0.00  0.00    +0.000 A 
ATOM      9  C   UNL     1       2.742   4.526  18.919  0.00  0.00    +0.000 A 
ATOM     10  C   UNL     1       1.876   5.103  19.877  0.00  0.00    +0.000 A 
ATOM     11  C   UNL     1       1.007   4.297  20.619  0.00  0.00    +0.000 A 
ATOM     12  C   UNL     1       0.990   2.923  20.427  0.00  0.00    +0.000 A 
ATOM     13  C   UNL     1       1.835   2.326  19.489  0.00  0.00    +0.000 A 
ATOM     14  C   UNL     1       2.702   3.141  18.740  0.00  0.00    +0.000 A 
ATOM     15  S   UNL     1       3.812   2.638  17.531  0.00  0.00    +0.000 S 
ENDBRANCH   3   7
BRANCH   1  16
ATOM     16  C   UNL     1       6.274   3.645  12.645  0.00  0.00    +0.000 C 
BRANCH  16  17
ATOM     17  O   UNL     1       4.927   3.484  12.206  0.00  0.00    +0.000 OA
ATOM     18  H   UNL     1       4.396   3.319  13.002  0.00  0.00    +0.000 HD
ENDBRANCH  16  17
ENDBRANCH   1  16
TORSDOF 3
ENDMDL
MODEL 6
REMARK VINA RESULT:      -6.7      1.212      1.313
REMARK  Name = 
REMARK  3 active torsions:
REMARK  status: ('A' for Active; 'I' for Inactive)
REMARK    1  A    between atoms: O_1  and  C_2
REMARK    2  A    between atoms: C_2  and  CA_3
REMARK    3  A    between atoms: C_5  and  C_6
REMARK                            x       y       z     vdW  Elec       q    Type
REMARK                         _______ _______ _______ _____ _____    ______ ____
ROOT
ATOM      1  CA  UNL     1       6.747   5.002  15.256  0.00  0.00    +0.000 A 
ATOM      2  C   UNL     1       5.742   4.479  16.068  0.00  0.00    +0.000 A 
ATOM      3  C   UNL     1       5.608   4.930  17.385  0.00  0.00    +0.000 A 
ATOM      4  C   UNL     1       6.500   5.904  17.836  0.00  0.00    +0.000 A 
ATOM      5  C   UNL     1       7.455   6.391  16.961  0.00  0.00    +0.000 A 
ATOM      6  N   UNL     1       7.592   5.971  15.686  0.00  0.00    +0.000 NA
ENDROOT
BRANCH   3   7
ATOM      7  C   UNL     1       4.530   4.405  18.240  0.00  0.00    +0.000 A 
ATOM      8  C   UNL     1       3.167   4.436  18.021  0.00  0.00    +0.000 A 
ATOM      9  C   UNL     1       2.397   3.840  19.071  0.00  0.00    +0.000 A 
ATOM     10  C   UNL     1       0.998   3.689  19.216  0.00  0.00    +0.000 A 
ATOM     11  C   UNL     1       0.468   3.067  20.350  0.00  0.00    +0.000 A 
ATOM     12  C   UNL     1       1.311   2.596  21.348  0.00  0.00    +0.000 A 
ATOM     13  C   UNL     1       2.695   2.732  21.233  0.00  0.00    +0.000 A 
ATOM     14  C   UNL     1       3.224   3.353  20.086  0.00  0.00    +0.000 A 
ATOM     15  S   UNL     1       4.880   3.618  19.721  0.00  0.00    +0.000 S 
ENDBRANCH   3   7
BRANCH   1  16
ATOM     16  C   UNL     1       6.912   4.533  13.831  0.00  0.00    +0.000 C 
BRANCH  16  17
ATOM     17  O   UNL     1       7.761   5.402  13.083  0.00  0.00    +0.000 OA
ATOM     18  H   UNL     1       8.426   5.738  13.704  0.00  0.00    +0.000 HD
ENDBRANCH  16  17
ENDBRANCH   1  16
TORSDOF 3
ENDMDL
MODEL 7
REMARK VINA RESULT:      -6.7      1.124      1.397
REMARK  Name = 
REMARK  3 active torsions:
REMARK  status: ('A' for Active; 'I' for Inactive)
REMARK    1  A    between atoms: O_1  and  C_2
REMARK    2  A    between atoms: C_2  and  CA_3
REMARK    3  A    between atoms: C_5  and  C_6
REMARK                            x       y       z     vdW  Elec       q    Type
REMARK                         _______ _______ _______ _____ _____    ______ ____
ROOT
ATOM      1  CA  UNL     1       6.097   4.298  14.408  0.00  0.00    +0.000 A 
ATOM      2  C   UNL     1       5.204   4.002  15.437  0.00  0.00    +0.000 A 
ATOM      3  C   UNL     1       5.476   4.432  16.740  0.00  0.00    +0.000 A 
ATOM      4  C   UNL     1       6.650   5.156  16.956  0.00  0.00    +0.000 A 
ATOM      5  C   UNL     1       7.473   5.430  15.878  0.00  0.00    +0.000 A 
ATOM      6  N   UNL     1       7.220   5.028  14.615  0.00  0.00    +0.000 NA
ENDROOT
BRANCH   3   7
ATOM      7  C   UNL     1       4.524   4.149  17.827  0.00  0.00    +0.000 A 
ATOM      8  C   UNL     1       4.677   3.297  18.902  0.00  0.00    +0.000 A 
ATOM      9  C   UNL     1       3.538   3.250  19.771  0.00  0.00    +0.000 A 
ATOM     10  C   UNL     1       3.311   2.504  20.951  0.00  0.00    +0.000 A 
ATOM     11  C   UNL     1       2.099   2.621  21.638  0.00  0.00    +0.000 A 
ATOM     12  C   UNL     1       1.106   3.467  21.165  0.00  0.00    +0.000 A 
ATOM     13  C   UNL     1       1.301   4.215  20.003  0.00  0.00    +0.000 A 
ATOM     14  C   UNL     1       2.526   4.098  19.319  0.00  0.00    +0.000 A 
ATOM     15  S   UNL     1       2.996   4.921  17.888  0.00  0.00    +0.000 S 
ENDBRANCH   3   7
BRANCH   1  16
ATOM     16  C   UNL     1       5.824   3.846  12.995  0.00  0.00    +0.000 C 
BRANCH  16  17
ATOM     17  O   UNL     1       6.716   2.809  12.590  0.00  0.00    +0.000 OA
ATOM     18  H   UNL     1       7.297   2.635  13.347  0.00  0.00    +0.000 HD
ENDBRANCH  16  17
ENDBRANCH   1  16
TORSDOF 3
ENDMDL
MODEL 8
REMARK VINA RESULT:      -6.5      1.300      1.426
REMARK  Name = 
REMARK  3 active torsions:
REMARK  status: ('A' for Active; 'I' for Inactive)
REMARK    1  A    between atoms: O_1  and  C_2
REMARK    2  A    between atoms: C_2  and  CA_3
REMARK    3  A    between atoms: C_5  and  C_6
REMARK                            x       y       z     vdW  Elec       q    Type
REMARK                         _______ _______ _______ _____ _____    ______ ____
ROOT
ATOM      1  CA  UNL     1       5.846   3.843  13.227  0.00  0.00    +0.000 A 
ATOM      2  C   UNL     1       5.009   3.895  14.339  0.00  0.00    +0.000 A 
ATOM      3  C   UNL     1       5.449   4.515  15.514  0.00  0.00    +0.000 A 
ATOM      4  C   UNL     1       6.731   5.068  15.518  0.00  0.00    +0.000 A 
ATOM      5  C   UNL     1       7.493   4.997  14.365  0.00  0.00    +0.000 A 
ATOM      6  N   UNL     1       7.078   4.409  13.223  0.00  0.00    +0.000 NA
ENDROOT
BRANCH   3   7
ATOM      7  C   UNL     1       4.560   4.600  16.684  0.00  0.00    +0.000 A 
ATOM      8  C   UNL     1       3.860   3.585  17.306  0.00  0.00    +0.000 A 
ATOM      9  C   UNL     1       3.072   4.022  18.420  0.00  0.00    +0.000 A 
ATOM     10  C   UNL     1       2.225   3.297  19.290  0.00  0.00    +0.000 A 
ATOM     11  C   UNL     1       1.545   3.951  20.321  0.00  0.00    +0.000 A 
ATOM     12  C   UNL     1       1.690   5.320  20.497  0.00  0.00    +0.000 A 
ATOM     13  C   UNL     1       2.518   6.062  19.653  0.00  0.00    +0.000 A 
ATOM     14  C   UNL     1       3.206   5.397  18.621  0.00  0.00    +0.000 A 
ATOM     15  S   UNL     1       4.281   6.092  17.477  0.00  0.00    +0.000 S 
ENDBRANCH   3   7
BRANCH   1  16
ATOM     16  C   UNL     1       5.393   3.182  11.948  0.00  0.00    +0.000 C 
BRANCH  16  17
ATOM     17  O   UNL     1       5.941   1.873  11.807  0.00  0.00    +0.000 OA
ATOM     18  H   UNL     1       5.189   1.260  11.795  0.00  0.00    +0.000 HD
ENDBRANCH  16  17
ENDBRANCH   1  16
TORSDOF 3
ENDMDL
MODEL 9
REMARK VINA RESULT:      -6.4      4.703      6.001
REMARK  Name = 
REMARK  3 active torsions:
REMARK  status: ('A' for Active; 'I' for Inactive)
REMARK    1  A    between atoms: O_1  and  C_2
REMARK    2  A    between atoms: C_2  and  CA_3
REMARK    3  A    between atoms: C_5  and  C_6
REMARK                            x       y       z     vdW  Elec       q    Type
REMARK                         _______ _______ _______ _____ _____    ______ ____
ROOT
ATOM      1  CA  UNL     1       3.795   3.932  19.191  0.00  0.00    +0.000 A 
ATOM      2  C   UNL     1       3.058   4.993  19.715  0.00  0.00    +0.000 A 
ATOM      3  C   UNL     1       3.009   6.211  19.029  0.00  0.00    +0.000 A 
ATOM      4  C   UNL     1       3.710   6.312  17.826  0.00  0.00    +0.000 A 
ATOM      5  C   UNL     1       4.398   5.205  17.360  0.00  0.00    +0.000 A 
ATOM      6  N   UNL     1       4.448   4.022  18.007  0.00  0.00    +0.000 NA
ENDROOT
BRANCH   3   7
ATOM      7  C   UNL     1       2.208   7.327  19.560  0.00  0.00    +0.000 A 
ATOM      8  C   UNL     1       1.671   7.473  20.823  0.00  0.00    +0.000 A 
ATOM      9  C   UNL     1       0.930   8.687  21.002  0.00  0.00    +0.000 A 
ATOM     10  C   UNL     1       0.235   9.184  22.128  0.00  0.00    +0.000 A 
ATOM     11  C   UNL     1      -0.429  10.412  22.063  0.00  0.00    +0.000 A 
ATOM     12  C   UNL     1      -0.418  11.152  20.889  0.00  0.00    +0.000 A 
ATOM     13  C   UNL     1       0.258  10.686  19.761  0.00  0.00    +0.000 A 
ATOM     14  C   UNL     1       0.932   9.452  19.834  0.00  0.00    +0.000 A 
ATOM     15  S   UNL     1       1.835   8.689  18.590  0.00  0.00    +0.000 S 
ENDBRANCH   3   7
BRANCH   1  16
ATOM     16  C   UNL     1       3.862   2.608  19.911  0.00  0.00    +0.000 C 
BRANCH  16  17
ATOM     17  O   UNL     1       5.189   2.087  19.939  0.00  0.00    +0.000 OA
ATOM     18  H   UNL     1       5.115   1.159  20.213  0.00  0.00    +0.000 HD
ENDBRANCH  16  17
ENDBRANCH   1  16
TORSDOF 3
ENDMDL
