MODEL 1
REMARK VINA RESULT:      -9.1      0.000      0.000
REMARK  Name = 
REMARK  5 active torsions:
REMARK  status: ('A' for Active; 'I' for Inactive)
REMARK    1  A    between atoms: C_2  and  C_4
REMARK    2  A    between atoms: C_8  and  N_9
REMARK    3  A    between atoms: N_14  and  C_15
REMARK    4  A    between atoms: N_18  and  C_19
REMARK    5  A    between atoms: C_19  and  C_20
REMARK                            x       y       z     vdW  Elec       q    Type
REMARK                         _______ _______ _______ _____ _____    ______ ____
ROOT
ATOM      1  N   UNL     1       6.536   4.545  16.079  0.00  0.00    +0.000 N 
ATOM      2  C   UNL     1       7.691   5.089  16.816  0.00  0.00    +0.000 C 
ATOM      3  C   UNL     1       7.750   4.765  18.315  0.00  0.00    +0.000 C 
ATOM      4  C   UNL     1       6.668   5.494  19.115  0.00  0.00    +0.000 C 
ATOM      5  C   UNL     1       5.317   4.775  19.080  0.00  0.00    +0.000 C 
ATOM      6  N   UNL     1       5.054   4.136  17.805  0.00  0.00    +0.000 N 
ATOM      7  C   UNL     1       5.297   4.899  16.661  0.00  0.00    +0.000 C 
ATOM      8  O   UNL     1       4.592   5.848  16.346  0.00  0.00    +0.000 OA
ENDROOT
BRANCH   1  13
ATOM      9  C   UNL     1       6.127   3.537  12.480  0.00  0.00    +0.000 A 
ATOM     10  C   UNL     1       7.104   4.310  11.851  0.00  0.00    +0.000 A 
ATOM     11  C   UNL     1       7.834   5.229  12.598  0.00  0.00    +0.000 A 
ATOM     12  C   UNL     1       7.631   5.338  13.979  0.00  0.00    +0.000 A 
ATOM     13  C   UNL     1       6.710   4.520  14.644  0.00  0.00    +0.000 A 
ATOM     14  C   UNL     1       5.912   3.668  13.859  0.00  0.00    +0.000 A 
BRANCH   9  16
ATOM     15  N   UNL     1       5.802   1.384  11.449  0.00  0.00    +0.000 NA
ATOM     16  C   UNL     1       5.324   2.560  11.691  0.00  0.00    +0.000 C 
ATOM     17  N   UNL     1       4.099   2.919  11.209  0.00  0.00    +0.000 N 
ATOM     18  H   UNL     1       5.110   0.829  10.939  0.00  0.00    +0.000 HD
ATOM     19  H   UNL     1       3.754   2.366  10.433  0.00  0.00    +0.000 HD
ATOM     20  H   UNL     1       3.971   3.912  11.043  0.00  0.00    +0.000 HD
ENDBRANCH   9  16
ENDBRANCH   1  13
BRANCH   6  21
ATOM     21  C   UNL     1       4.245   2.895  17.780  0.00  0.00    +0.000 C 
ATOM     22  C   UNL     1       2.880   3.003  17.100  0.00  0.00    +0.000 C 
ATOM     23  C   UNL     1       1.846   3.707  17.974  0.00  0.00    +0.000 C 
ATOM     24  N   UNL     1       1.719   3.190  19.347  0.00  0.00    +0.000 NA
ATOM     25  C   UNL     1       3.020   2.982  20.003  0.00  0.00    +0.000 C 
ATOM     26  C   UNL     1       4.034   2.230  19.146  0.00  0.00    +0.000 C 
BRANCH  24  27
ATOM     27  C   UNL     1       0.937   4.148  20.176  0.00  0.00    +0.000 C 
BRANCH  27  28
ATOM     28  C   UNL     1       1.428   5.575  20.068  0.00  0.00    +0.000 A 
ATOM     29  C   UNL     1       1.171   6.490  21.091  0.00  0.00    +0.000 A 
ATOM     30  C   UNL     1       1.522   7.814  20.891  0.00  0.00    +0.000 A 
ATOM     31  N   UNL     1       2.119   8.277  19.771  0.00  0.00    +0.000 NA
ATOM     32  C   UNL     1       2.376   7.371  18.804  0.00  0.00    +0.000 A 
ATOM     33  C   UNL     1       2.060   6.027  18.905  0.00  0.00    +0.000 A 
ENDBRANCH  27  28
ENDBRANCH  24  27
ENDBRANCH   6  21
TORSDOF 5
ENDMDL
MODEL 2
REMARK VINA RESULT:      -8.8      0.135      1.053
REMARK  Name = 
REMARK  5 active torsions:
REMARK  status: ('A' for Active; 'I' for Inactive)
REMARK    1  A    between atoms: C_2  and  C_4
REMARK    2  A    between atoms: C_8  and  N_9
REMARK    3  A    between atoms: N_14  and  C_15
REMARK    4  A    between atoms: N_18  and  C_19
REMARK    5  A    between atoms: C_19  and  C_20
REMARK                            x       y       z     vdW  Elec       q    Type
REMARK                         _______ _______ _______ _____ _____    ______ ____
ROOT
ATOM      1  N   UNL     1       6.527   4.548  16.102  0.00  0.00    +0.000 N 
ATOM      2  C   UNL     1       7.657   5.136  16.844  0.00  0.00    +0.000 C 
ATOM      3  C   UNL     1       7.721   4.819  18.344  0.00  0.00    +0.000 C 
ATOM      4  C   UNL     1       6.608   5.507  19.137  0.00  0.00    +0.000 C 
ATOM      5  C   UNL     1       5.286   4.738  19.097  0.00  0.00    +0.000 C 
ATOM      6  N   UNL     1       5.054   4.087  17.823  0.00  0.00    +0.000 N 
ATOM      7  C   UNL     1       5.273   4.856  16.678  0.00  0.00    +0.000 C 
ATOM      8  O   UNL     1       4.535   5.777  16.357  0.00  0.00    +0.000 OA
ENDROOT
BRANCH   1  13
ATOM      9  C   UNL     1       6.149   3.539  12.500  0.00  0.00    +0.000 A 
ATOM     10  C   UNL     1       7.120   4.325  11.878  0.00  0.00    +0.000 A 
ATOM     11  C   UNL     1       7.835   5.251  12.629  0.00  0.00    +0.000 A 
ATOM     12  C   UNL     1       7.624   5.356  14.009  0.00  0.00    +0.000 A 
ATOM     13  C   UNL     1       6.709   4.526  14.669  0.00  0.00    +0.000 A 
ATOM     14  C   UNL     1       5.925   3.666  13.879  0.00  0.00    +0.000 A 
BRANCH   9  16
ATOM     15  N   UNL     1       4.190   2.875  11.265  0.00  0.00    +0.000 NA
ATOM     16  C   UNL     1       5.361   2.553  11.707  0.00  0.00    +0.000 C 
ATOM     17  N   UNL     1       5.868   1.309  11.473  0.00  0.00    +0.000 N 
ATOM     18  H   UNL     1       3.809   2.107  10.708  0.00  0.00    +0.000 HD
ATOM     19  H   UNL     1       5.189   0.596  11.231  0.00  0.00    +0.000 HD
ATOM     20  H   UNL     1       6.529   0.971  12.165  0.00  0.00    +0.000 HD
ENDBRANCH   9  16
ENDBRANCH   1  13
BRANCH   6  21
ATOM     21  C   UNL     1       4.292   2.816  17.797  0.00  0.00    +0.000 C 
ATOM     22  C   UNL     1       2.931   2.870  17.103  0.00  0.00    +0.000 C 
ATOM     23  C   UNL     1       1.862   3.539  17.962  0.00  0.00    +0.000 C 
ATOM     24  N   UNL     1       1.741   3.024  19.337  0.00  0.00    +0.000 NA
ATOM     25  C   UNL     1       3.042   2.869  20.007  0.00  0.00    +0.000 C 
ATOM     26  C   UNL     1       4.092   2.151  19.164  0.00  0.00    +0.000 C 
BRANCH  24  27
ATOM     27  C   UNL     1       0.916   3.956  20.153  0.00  0.00    +0.000 C 
BRANCH  27  28
ATOM     28  C   UNL     1       1.302   5.409  19.981  0.00  0.00    +0.000 A 
ATOM     29  C   UNL     1       1.905   5.844  18.799  0.00  0.00    +0.000 A 
ATOM     30  C   UNL     1       2.361   7.150  18.736  0.00  0.00    +0.000 A 
ATOM     31  N   UNL     1       2.242   8.041  19.744  0.00  0.00    +0.000 NA
ATOM     32  C   UNL     1       1.638   7.604  20.869  0.00  0.00    +0.000 A 
ATOM     33  C   UNL     1       1.153   6.318  21.033  0.00  0.00    +0.000 A 
ENDBRANCH  27  28
ENDBRANCH  24  27
ENDBRANCH   6  21
TORSDOF 5
ENDMDL
MODEL 3
REMARK VINA RESULT:      -8.6      2.790      7.458
REMARK  Name = 
REMARK  5 active torsions:
REMARK  status: ('A' for Active; 'I' for Inactive)
REMARK    1  A    between atoms: C_2  and  C_4
REMARK    2  A    between atoms: C_8  and  N_9
REMARK    3  A    between atoms: N_14  and  C_15
REMARK    4  A    between atoms: N_18  and  C_19
REMARK    5  A    between atoms: C_19  and  C_20
REMARK                            x       y       z     vdW  Elec       q    Type
REMARK                         _______ _______ _______ _____ _____    ______ ____
ROOT
ATOM      1  N   UNL     1       3.165   5.653  18.803  0.00  0.00    +0.000 N 
ATOM      2  C   UNL     1       3.329   4.885  20.051  0.00  0.00    +0.000 C 
ATOM      3  C   UNL     1       4.349   3.739  20.012  0.00  0.00    +0.000 C 
ATOM      4  C   UNL     1       3.883   2.569  19.142  0.00  0.00    +0.000 C 
ATOM      5  C   UNL     1       4.167   2.785  17.654  0.00  0.00    +0.000 C 
ATOM      6  N   UNL     1       4.022   4.170  17.250  0.00  0.00    +0.000 N 
ATOM      7  C   UNL     1       2.874   4.833  17.688  0.00  0.00    +0.000 C 
ATOM      8  O   UNL     1       1.761   4.574  17.250  0.00  0.00    +0.000 OA
ENDROOT
BRANCH   1  13
ATOM      9  C   UNL     1       1.383   8.524  20.450  0.00  0.00    +0.000 A 
ATOM     10  C   UNL     1       1.127   9.365  19.366  0.00  0.00    +0.000 A 
ATOM     11  C   UNL     1       1.622   9.030  18.109  0.00  0.00    +0.000 A 
ATOM     12  C   UNL     1       2.321   7.831  17.921  0.00  0.00    +0.000 A 
ATOM     13  C   UNL     1       2.524   6.936  18.978  0.00  0.00    +0.000 A 
ATOM     14  C   UNL     1       2.104   7.337  20.260  0.00  0.00    +0.000 A 
BRANCH   9  16
ATOM     15  N   UNL     1       1.694   9.316  22.704  0.00  0.00    +0.000 NA
ATOM     16  C   UNL     1       0.875   8.876  21.807  0.00  0.00    +0.000 C 
ATOM     17  N   UNL     1      -0.446   8.708  22.103  0.00  0.00    +0.000 N 
ATOM     18  H   UNL     1       1.180   9.549  23.556  0.00  0.00    +0.000 HD
ATOM     19  H   UNL     1      -0.670   8.644  23.089  0.00  0.00    +0.000 HD
ATOM     20  H   UNL     1      -0.925   7.992  21.567  0.00  0.00    +0.000 HD
ENDBRANCH   9  16
ENDBRANCH   1  13
BRANCH   6  21
ATOM     21  C   UNL     1       4.873   4.688  16.153  0.00  0.00    +0.000 C 
ATOM     22  C   UNL     1       6.308   4.162  16.118  0.00  0.00    +0.000 C 
ATOM     23  C   UNL     1       7.197   4.818  17.171  0.00  0.00    +0.000 C 
ATOM     24  N   UNL     1       7.168   6.291  17.197  0.00  0.00    +0.000 NA
ATOM     25  C   UNL     1       5.803   6.837  17.136  0.00  0.00    +0.000 C 
ATOM     26  C   UNL     1       4.934   6.217  16.047  0.00  0.00    +0.000 C 
BRANCH  24  27
ATOM     27  C   UNL     1       7.802   6.785  18.450  0.00  0.00    +0.000 C 
BRANCH  27  28
ATOM     28  C   UNL     1       8.237   8.232  18.373  0.00  0.00    +0.000 A 
ATOM     29  C   UNL     1       9.072   8.773  19.353  0.00  0.00    +0.000 A 
ATOM     30  C   UNL     1       9.336  10.131  19.315  0.00  0.00    +0.000 A 
ATOM     31  N   UNL     1       8.852  10.969  18.373  0.00  0.00    +0.000 NA
ATOM     32  C   UNL     1       8.063  10.420  17.423  0.00  0.00    +0.000 A 
ATOM     33  C   UNL     1       7.736   9.076  17.376  0.00  0.00    +0.000 A 
ENDBRANCH  27  28
ENDBRANCH  24  27
ENDBRANCH   6  21
TORSDOF 5
ENDMDL
MODEL 4
REMARK VINA RESULT:      -8.4      1.798      8.057
REMARK  Name = 
REMARK  5 active torsions:
REMARK  status: ('A' for Active; 'I' for Inactive)
REMARK    1  A    between atoms: C_2  and  C_4
REMARK    2  A    between atoms: C_8  and  N_9
REMARK    3  A    between atoms: N_14  and  C_15
REMARK    4  A    between atoms: N_18  and  C_19
REMARK    5  A    between atoms: C_19  and  C_20
REMARK                            x       y       z     vdW  Elec       q    Type
REMARK                         _______ _______ _______ _____ _____    ______ ____
ROOT
ATOM      1  N   UNL     1       2.471   5.915  19.791  0.00  0.00    +0.000 N 
ATOM      2  C   UNL     1       1.602   5.202  20.747  0.00  0.00    +0.000 C 
ATOM      3  C   UNL     1       2.194   3.940  21.389  0.00  0.00    +0.000 C 
ATOM      4  C   UNL     1       2.345   2.790  20.391  0.00  0.00    +0.000 C 
ATOM      5  C   UNL     1       3.626   2.888  19.559  0.00  0.00    +0.000 C 
ATOM      6  N   UNL     1       3.984   4.256  19.239  0.00  0.00    +0.000 N 
ATOM      7  C   UNL     1       2.959   5.076  18.763  0.00  0.00    +0.000 C 
ATOM      8  O   UNL     1       2.468   4.931  17.652  0.00  0.00    +0.000 OA
ENDROOT
BRANCH   1  13
ATOM      9  C   UNL     1       1.009   9.341  20.303  0.00  0.00    +0.000 A 
ATOM     10  C   UNL     1       1.099   9.886  19.021  0.00  0.00    +0.000 A 
ATOM     11  C   UNL     1       1.723   9.161  18.012  0.00  0.00    +0.000 A 
ATOM     12  C   UNL     1       2.206   7.872  18.262  0.00  0.00    +0.000 A 
ATOM     13  C   UNL     1       2.061   7.273  19.520  0.00  0.00    +0.000 A 
ATOM     14  C   UNL     1       1.517   8.058  20.554  0.00  0.00    +0.000 A 
BRANCH   9  16
ATOM     15  N   UNL     1       0.758   9.950  22.620  0.00  0.00    +0.000 NA
ATOM     16  C   UNL     1       0.359  10.111  21.402  0.00  0.00    +0.000 C 
ATOM     17  N   UNL     1      -0.669  10.961  21.119  0.00  0.00    +0.000 N 
ATOM     18  H   UNL     1       0.241  10.581  23.238  0.00  0.00    +0.000 HD
ATOM     19  H   UNL     1      -1.272  11.195  21.899  0.00  0.00    +0.000 HD
ATOM     20  H   UNL     1      -1.208  10.733  20.290  0.00  0.00    +0.000 HD
ENDBRANCH   9  16
ENDBRANCH   1  13
BRANCH   6  21
ATOM     21  C   UNL     1       5.417   4.607  19.100  0.00  0.00    +0.000 C 
ATOM     22  C   UNL     1       5.717   6.075  18.795  0.00  0.00    +0.000 C 
ATOM     23  C   UNL     1       5.445   6.436  17.337  0.00  0.00    +0.000 C 
ATOM     24  N   UNL     1       6.062   5.546  16.338  0.00  0.00    +0.000 NA
ATOM     25  C   UNL     1       5.875   4.120  16.650  0.00  0.00    +0.000 C 
ATOM     26  C   UNL     1       6.199   3.753  18.095  0.00  0.00    +0.000 C 
BRANCH  24  27
ATOM     27  C   UNL     1       5.466   5.802  14.998  0.00  0.00    +0.000 C 
BRANCH  27  28
ATOM     28  C   UNL     1       6.019   4.905  13.913  0.00  0.00    +0.000 A 
ATOM     29  C   UNL     1       7.281   5.150  13.369  0.00  0.00    +0.000 A 
ATOM     30  C   UNL     1       7.691   4.386  12.289  0.00  0.00    +0.000 A 
ATOM     31  N   UNL     1       6.951   3.400  11.737  0.00  0.00    +0.000 NA
ATOM     32  C   UNL     1       5.742   3.168  12.293  0.00  0.00    +0.000 A 
ATOM     33  C   UNL     1       5.240   3.878  13.370  0.00  0.00    +0.000 A 
ENDBRANCH  27  28
ENDBRANCH  24  27
ENDBRANCH   6  21
TORSDOF 5
ENDMDL
MODEL 5
REMARK VINA RESULT:      -8.4      2.255      8.744
REMARK  Name = 
REMARK  5 active torsions:
REMARK  status: ('A' for Active; 'I' for Inactive)
REMARK    1  A    between atoms: C_2  and  C_4
REMARK    2  A    between atoms: C_8  and  N_9
REMARK    3  A    between atoms: N_14  and  C_15
REMARK    4  A    between atoms: N_18  and  C_19
REMARK    5  A    between atoms: C_19  and  C_20
REMARK                            x       y       z     vdW  Elec       q    Type
REMARK                         _______ _______ _______ _____ _____    ______ ____
ROOT
ATOM      1  N   UNL     1       2.056   6.927  20.070  0.00  0.00    +0.000 N 
ATOM      2  C   UNL     1       1.454   5.909  20.950  0.00  0.00    +0.000 C 
ATOM      3  C   UNL     1       2.293   4.647  21.197  0.00  0.00    +0.000 C 
ATOM      4  C   UNL     1       2.405   3.764  19.952  0.00  0.00    +0.000 C 
ATOM      5  C   UNL     1       3.503   4.227  18.993  0.00  0.00    +0.000 C 
ATOM      6  N   UNL     1       3.638   5.670  18.946  0.00  0.00    +0.000 N 
ATOM      7  C   UNL     1       2.456   6.404  18.819  0.00  0.00    +0.000 C 
ATOM      8  O   UNL     1       1.803   6.418  17.785  0.00  0.00    +0.000 OA
ENDROOT
BRANCH   1  13
ATOM      9  C   UNL     1       0.248   9.882  21.531  0.00  0.00    +0.000 A 
ATOM     10  C   UNL     1       0.110  10.714  20.419  0.00  0.00    +0.000 A 
ATOM     11  C   UNL     1       0.693  10.344  19.212  0.00  0.00    +0.000 A 
ATOM     12  C   UNL     1       1.362   9.120  19.096  0.00  0.00    +0.000 A 
ATOM     13  C   UNL     1       1.448   8.234  20.177  0.00  0.00    +0.000 A 
ATOM     14  C   UNL     1       0.940   8.668  21.415  0.00  0.00    +0.000 A 
BRANCH   9  16
ATOM     15  N   UNL     1       0.018   9.673  23.921  0.00  0.00    +0.000 NA
ATOM     16  C   UNL     1      -0.355  10.272  22.838  0.00  0.00    +0.000 C 
ATOM     17  N   UNL     1      -1.316  11.240  22.881  0.00  0.00    +0.000 N 
ATOM     18  H   UNL     1      -0.457  10.088  24.725  0.00  0.00    +0.000 HD
ATOM     19  H   UNL     1      -1.908  11.234  23.704  0.00  0.00    +0.000 HD
ATOM     20  H   UNL     1      -1.862  11.349  22.033  0.00  0.00    +0.000 HD
ENDBRANCH   9  16
ENDBRANCH   1  13
BRANCH   6  21
ATOM     21  C   UNL     1       4.974   6.257  18.690  0.00  0.00    +0.000 C 
ATOM     22  C   UNL     1       5.175   6.874  17.305  0.00  0.00    +0.000 C 
ATOM     23  C   UNL     1       5.385   5.821  16.221  0.00  0.00    +0.000 C 
ATOM     24  N   UNL     1       6.417   4.810  16.511  0.00  0.00    +0.000 NA
ATOM     25  C   UNL     1       6.313   4.261  17.872  0.00  0.00    +0.000 C 
ATOM     26  C   UNL     1       6.157   5.319  18.959  0.00  0.00    +0.000 C 
BRANCH  24  27
ATOM     27  C   UNL     1       6.297   3.679  15.551  0.00  0.00    +0.000 C 
BRANCH  27  28
ATOM     28  C   UNL     1       6.593   4.071  14.120  0.00  0.00    +0.000 A 
ATOM     29  C   UNL     1       6.000   3.382  13.061  0.00  0.00    +0.000 A 
ATOM     30  C   UNL     1       6.400   3.688  11.771  0.00  0.00    +0.000 A 
ATOM     31  N   UNL     1       7.320   4.630  11.469  0.00  0.00    +0.000 NA
ATOM     32  C   UNL     1       7.866   5.297  12.508  0.00  0.00    +0.000 A 
ATOM     33  C   UNL     1       7.538   5.063  13.832  0.00  0.00    +0.000 A 
ENDBRANCH  27  28
ENDBRANCH  24  27
ENDBRANCH   6  21
TORSDOF 5
ENDMDL
MODEL 6
REMARK VINA RESULT:      -8.4      6.224     10.102
REMARK  Name = 
REMARK  5 active torsions:
REMARK  status: ('A' for Active; 'I' for Inactive)
REMARK    1  A    between atoms: C_2  and  C_4
REMARK    2  A    between atoms: C_8  and  N_9
REMARK    3  A    between atoms: N_14  and  C_15
REMARK    4  A    between atoms: N_18  and  C_19
REMARK    5  A    between atoms: C_19  and  C_20
REMARK                            x       y       z     vdW  Elec       q    Type
REMARK                         _______ _______ _______ _____ _____    ______ ____
ROOT
ATOM      1  N   UNL     1       0.471   9.504  20.618  0.00  0.00    +0.000 N 
ATOM      2  C   UNL     1       0.291   8.767  21.883  0.00  0.00    +0.000 C 
ATOM      3  C   UNL     1      -0.900   9.192  22.751  0.00  0.00    +0.000 C 
ATOM      4  C   UNL     1      -0.707  10.576  23.376  0.00  0.00    +0.000 C 
ATOM      5  C   UNL     1      -1.077  11.715  22.424  0.00  0.00    +0.000 C 
ATOM      6  N   UNL     1      -0.745  11.424  21.043  0.00  0.00    +0.000 N 
ATOM      7  C   UNL     1       0.529  10.904  20.803  0.00  0.00    +0.000 C 
ATOM      8  O   UNL     1       1.543  11.578  20.919  0.00  0.00    +0.000 OA
ENDROOT
BRANCH   1  13
ATOM      9  C   UNL     1       2.827   6.978  19.133  0.00  0.00    +0.000 A 
ATOM     10  C   UNL     1       3.125   7.554  17.897  0.00  0.00    +0.000 A 
ATOM     11  C   UNL     1       2.480   8.726  17.516  0.00  0.00    +0.000 A 
ATOM     12  C   UNL     1       1.582   9.355  18.387  0.00  0.00    +0.000 A 
ATOM     13  C   UNL     1       1.324   8.837  19.662  0.00  0.00    +0.000 A 
ATOM     14  C   UNL     1       1.909   7.600  19.992  0.00  0.00    +0.000 A 
BRANCH   9  16
ATOM     15  N   UNL     1       4.581   5.335  18.960  0.00  0.00    +0.000 NA
ATOM     16  C   UNL     1       3.496   5.713  19.551  0.00  0.00    +0.000 C 
ATOM     17  N   UNL     1       2.946   4.948  20.538  0.00  0.00    +0.000 N 
ATOM     18  H   UNL     1       4.930   4.478  19.394  0.00  0.00    +0.000 HD
ATOM     19  H   UNL     1       3.238   3.977  20.553  0.00  0.00    +0.000 HD
ATOM     20  H   UNL     1       1.941   5.035  20.647  0.00  0.00    +0.000 HD
ENDBRANCH   9  16
ENDBRANCH   1  13
BRANCH   6  21
ATOM     21  C   UNL     1      -1.590  11.993  19.967  0.00  0.00    +0.000 C 
ATOM     22  C   UNL     1      -0.866  12.349  18.669  0.00  0.00    +0.000 C 
ATOM     23  C   UNL     1      -0.068  13.645  18.782  0.00  0.00    +0.000 C 
ATOM     24  N   UNL     1      -0.809  14.801  19.315  0.00  0.00    +0.000 NA
ATOM     25  C   UNL     1      -1.596  14.473  20.514  0.00  0.00    +0.000 C 
ATOM     26  C   UNL     1      -2.434  13.205  20.379  0.00  0.00    +0.000 C 
BRANCH  24  27
ATOM     27  C   UNL     1       0.144  15.886  19.677  0.00  0.00    +0.000 C 
BRANCH  27  28
ATOM     28  C   UNL     1       0.340  16.905  18.576  0.00  0.00    +0.000 A 
ATOM     29  C   UNL     1      -0.754  17.587  18.041  0.00  0.00    +0.000 A 
ATOM     30  C   UNL     1      -0.545  18.411  16.948  0.00  0.00    +0.000 A 
ATOM     31  N   UNL     1       0.661  18.613  16.374  0.00  0.00    +0.000 NA
ATOM     32  C   UNL     1       1.708  17.959  16.921  0.00  0.00    +0.000 A 
ATOM     33  C   UNL     1       1.603  17.110  18.010  0.00  0.00    +0.000 A 
ENDBRANCH  27  28
ENDBRANCH  24  27
ENDBRANCH   6  21
TORSDOF 5
ENDMDL
MODEL 7
REMARK VINA RESULT:      -8.2      1.849      8.170
REMARK  Name = 
REMARK  5 active torsions:
REMARK  status: ('A' for Active; 'I' for Inactive)
REMARK    1  A    between atoms: C_2  and  C_4
REMARK    2  A    between atoms: C_8  and  N_9
REMARK    3  A    between atoms: N_14  and  C_15
REMARK    4  A    between atoms: N_18  and  C_19
REMARK    5  A    between atoms: C_19  and  C_20
REMARK                            x       y       z     vdW  Elec       q    Type
REMARK                         _______ _______ _______ _____ _____    ______ ____
ROOT
ATOM      1  N   UNL     1       2.375   5.828  19.976  0.00  0.00    +0.000 N 
ATOM      2  C   UNL     1       1.540   5.050  20.910  0.00  0.00    +0.000 C 
ATOM      3  C   UNL     1       2.146   3.740  21.429  0.00  0.00    +0.000 C 
ATOM      4  C   UNL     1       2.245   2.668  20.341  0.00  0.00    +0.000 C 
ATOM      5  C   UNL     1       3.490   2.821  19.466  0.00  0.00    +0.000 C 
ATOM      6  N   UNL     1       3.849   4.207  19.236  0.00  0.00    +0.000 N 
ATOM      7  C   UNL     1       2.812   5.067  18.867  0.00  0.00    +0.000 C 
ATOM      8  O   UNL     1       2.274   5.010  17.770  0.00  0.00    +0.000 OA
ENDROOT
BRANCH   1  13
ATOM      9  C   UNL     1       0.862   9.178  20.765  0.00  0.00    +0.000 A 
ATOM     10  C   UNL     1       1.008   9.853  19.552  0.00  0.00    +0.000 A 
ATOM     11  C   UNL     1       1.686   9.238  18.504  0.00  0.00    +0.000 A 
ATOM     12  C   UNL     1       2.168   7.931  18.645  0.00  0.00    +0.000 A 
ATOM     13  C   UNL     1       1.967   7.206  19.826  0.00  0.00    +0.000 A 
ATOM     14  C   UNL     1       1.368   7.878  20.907  0.00  0.00    +0.000 A 
BRANCH   9  16
ATOM     15  N   UNL     1       0.257  11.105  22.079  0.00  0.00    +0.000 NA
ATOM     16  C   UNL     1       0.153   9.829  21.903  0.00  0.00    +0.000 C 
ATOM     17  N   UNL     1      -0.580   9.071  22.769  0.00  0.00    +0.000 N 
ATOM     18  H   UNL     1      -0.322  11.392  22.871  0.00  0.00    +0.000 HD
ATOM     19  H   UNL     1      -0.757   9.489  23.676  0.00  0.00    +0.000 HD
ATOM     20  H   UNL     1      -0.286   8.104  22.858  0.00  0.00    +0.000 HD
ENDBRANCH   9  16
ENDBRANCH   1  13
BRANCH   6  21
ATOM     21  C   UNL     1       5.277   4.559  19.064  0.00  0.00    +0.000 C 
ATOM     22  C   UNL     1       5.570   6.029  18.764  0.00  0.00    +0.000 C 
ATOM     23  C   UNL     1       5.262   6.403  17.316  0.00  0.00    +0.000 C 
ATOM     24  N   UNL     1       5.853   5.521  16.294  0.00  0.00    +0.000 NA
ATOM     25  C   UNL     1       5.673   4.093  16.599  0.00  0.00    +0.000 C 
ATOM     26  C   UNL     1       6.033   3.713  18.032  0.00  0.00    +0.000 C 
BRANCH  24  27
ATOM     27  C   UNL     1       5.223   5.790  14.973  0.00  0.00    +0.000 C 
BRANCH  27  28
ATOM     28  C   UNL     1       5.826   4.982  13.845  0.00  0.00    +0.000 A 
ATOM     29  C   UNL     1       5.088   3.971  13.226  0.00  0.00    +0.000 A 
ATOM     30  C   UNL     1       5.724   3.172  12.291  0.00  0.00    +0.000 A 
ATOM     31  N   UNL     1       7.015   3.321  11.922  0.00  0.00    +0.000 NA
ATOM     32  C   UNL     1       7.703   4.318  12.519  0.00  0.00    +0.000 A 
ATOM     33  C   UNL     1       7.161   5.167  13.468  0.00  0.00    +0.000 A 
ENDBRANCH  27  28
ENDBRANCH  24  27
ENDBRANCH   6  21
TORSDOF 5
ENDMDL
MODEL 8
REMARK VINA RESULT:      -8.2      3.006      7.253
REMARK  Name = 
REMARK  5 active torsions:
REMARK  status: ('A' for Active; 'I' for Inactive)
REMARK    1  A    between atoms: C_2  and  C_4
REMARK    2  A    between atoms: C_8  and  N_9
REMARK    3  A    between atoms: N_14  and  C_15
REMARK    4  A    between atoms: N_18  and  C_19
REMARK    5  A    between atoms: C_19  and  C_20
REMARK                            x       y       z     vdW  Elec       q    Type
REMARK                         _______ _______ _______ _____ _____    ______ ____
ROOT
ATOM      1  N   UNL     1       3.265   5.592  18.965  0.00  0.00    +0.000 N 
ATOM      2  C   UNL     1       3.707   4.688  20.043  0.00  0.00    +0.000 C 
ATOM      3  C   UNL     1       4.879   3.756  19.706  0.00  0.00    +0.000 C 
ATOM      4  C   UNL     1       4.491   2.665  18.706  0.00  0.00    +0.000 C 
ATOM      5  C   UNL     1       4.542   3.145  17.254  0.00  0.00    +0.000 C 
ATOM      6  N   UNL     1       4.132   4.528  17.105  0.00  0.00    +0.000 N 
ATOM      7  C   UNL     1       2.962   4.907  17.765  0.00  0.00    +0.000 C 
ATOM      8  O   UNL     1       1.856   4.527  17.407  0.00  0.00    +0.000 OA
ENDROOT
BRANCH   1  13
ATOM      9  C   UNL     1       1.496   8.909  18.979  0.00  0.00    +0.000 A 
ATOM     10  C   UNL     1       1.021   8.977  20.290  0.00  0.00    +0.000 A 
ATOM     11  C   UNL     1       1.204   7.891  21.140  0.00  0.00    +0.000 A 
ATOM     12  C   UNL     1       1.909   6.763  20.704  0.00  0.00    +0.000 A 
ATOM     13  C   UNL     1       2.460   6.703  19.418  0.00  0.00    +0.000 A 
ATOM     14  C   UNL     1       2.180   7.766  18.541  0.00  0.00    +0.000 A 
BRANCH   9  16
ATOM     15  N   UNL     1       2.317  10.651  17.531  0.00  0.00    +0.000 NA
ATOM     16  C   UNL     1       1.293  10.056  18.049  0.00  0.00    +0.000 C 
ATOM     17  N   UNL     1       0.030  10.488  17.768  0.00  0.00    +0.000 N 
ATOM     18  H   UNL     1       2.003  11.381  16.887  0.00  0.00    +0.000 HD
ATOM     19  H   UNL     1      -0.041  11.436  17.415  0.00  0.00    +0.000 HD
ATOM     20  H   UNL     1      -0.662  10.308  18.488  0.00  0.00    +0.000 HD
ENDBRANCH   9  16
ENDBRANCH   1  13
BRANCH   6  21
ATOM     21  C   UNL     1       4.742   5.343  16.028  0.00  0.00    +0.000 C 
ATOM     22  C   UNL     1       6.182   4.987  15.657  0.00  0.00    +0.000 C 
ATOM     23  C   UNL     1       7.193   5.504  16.677  0.00  0.00    +0.000 C 
ATOM     24  N   UNL     1       7.069   6.930  17.026  0.00  0.00    +0.000 NA
ATOM     25  C   UNL     1       5.680   7.332  17.298  0.00  0.00    +0.000 C 
ATOM     26  C   UNL     1       4.679   6.859  16.248  0.00  0.00    +0.000 C 
BRANCH  24  27
ATOM     27  C   UNL     1       7.876   7.223  18.242  0.00  0.00    +0.000 C 
BRANCH  27  28
ATOM     28  C   UNL     1       8.332   8.663  18.327  0.00  0.00    +0.000 A 
ATOM     29  C   UNL     1       9.142   9.086  19.382  0.00  0.00    +0.000 A 
ATOM     30  C   UNL     1       9.426  10.437  19.492  0.00  0.00    +0.000 A 
ATOM     31  N   UNL     1       8.984  11.375  18.626  0.00  0.00    +0.000 NA
ATOM     32  C   UNL     1       8.219  10.939  17.602  0.00  0.00    +0.000 A 
ATOM     33  C   UNL     1       7.875   9.613  17.407  0.00  0.00    +0.000 A 
ENDBRANCH  27  28
ENDBRANCH  24  27
ENDBRANCH   6  21
TORSDOF 5
ENDMDL
MODEL 9
REMARK VINA RESULT:      -8.1      2.226      8.668
REMARK  Name = 
REMARK  5 active torsions:
REMARK  status: ('A' for Active; 'I' for Inactive)
REMARK    1  A    between atoms: C_2  and  C_4
REMARK    2  A    between atoms: C_8  and  N_9
REMARK    3  A    between atoms: N_14  and  C_15
REMARK    4  A    between atoms: N_18  and  C_19
REMARK    5  A    between atoms: C_19  and  C_20
REMARK                            x       y       z     vdW  Elec       q    Type
REMARK                         _______ _______ _______ _____ _____    ______ ____
ROOT
ATOM      1  N   UNL     1       2.088   6.858  20.043  0.00  0.00    +0.000 N 
ATOM      2  C   UNL     1       1.451   5.915  20.982  0.00  0.00    +0.000 C 
ATOM      3  C   UNL     1       2.252   4.650  21.319  0.00  0.00    +0.000 C 
ATOM      4  C   UNL     1       2.351   3.686  20.135  0.00  0.00    +0.000 C 
ATOM      5  C   UNL     1       3.469   4.055  19.158  0.00  0.00    +0.000 C 
ATOM      6  N   UNL     1       3.644   5.488  19.020  0.00  0.00    +0.000 N 
ATOM      7  C   UNL     1       2.484   6.243  18.833  0.00  0.00    +0.000 C 
ATOM      8  O   UNL     1       1.840   6.207  17.794  0.00  0.00    +0.000 OA
ENDROOT
BRANCH   1  13
ATOM      9  C   UNL     1       0.222   9.895  21.238  0.00  0.00    +0.000 A 
ATOM     10  C   UNL     1       0.242  10.710  20.106  0.00  0.00    +0.000 A 
ATOM     11  C   UNL     1       0.948  10.298  18.980  0.00  0.00    +0.000 A 
ATOM     12  C   UNL     1       1.585   9.052  18.961  0.00  0.00    +0.000 A 
ATOM     13  C   UNL     1       1.516   8.184  20.058  0.00  0.00    +0.000 A 
ATOM     14  C   UNL     1       0.882   8.658  21.222  0.00  0.00    +0.000 A 
BRANCH   9  16
ATOM     15  N   UNL     1      -1.200  11.423  22.442  0.00  0.00    +0.000 NA
ATOM     16  C   UNL     1      -0.515  10.327  22.460  0.00  0.00    +0.000 C 
ATOM     17  N   UNL     1      -0.444   9.578  23.598  0.00  0.00    +0.000 N 
ATOM     18  H   UNL     1      -1.675  11.548  23.338  0.00  0.00    +0.000 HD
ATOM     19  H   UNL     1      -0.674  10.063  24.457  0.00  0.00    +0.000 HD
ATOM     20  H   UNL     1       0.398   9.021  23.700  0.00  0.00    +0.000 HD
ENDBRANCH   9  16
ENDBRANCH   1  13
BRANCH   6  21
ATOM     21  C   UNL     1       4.998   6.020  18.739  0.00  0.00    +0.000 C 
ATOM     22  C   UNL     1       5.162   6.754  17.407  0.00  0.00    +0.000 C 
ATOM     23  C   UNL     1       5.248   5.798  16.220  0.00  0.00    +0.000 C 
ATOM     24  N   UNL     1       6.230   4.708  16.355  0.00  0.00    +0.000 NA
ATOM     25  C   UNL     1       6.166   4.038  17.663  0.00  0.00    +0.000 C 
ATOM     26  C   UNL     1       6.134   4.996  18.850  0.00  0.00    +0.000 C 
BRANCH  24  27
ATOM     27  C   UNL     1       5.990   3.681  15.304  0.00  0.00    +0.000 C 
BRANCH  27  28
ATOM     28  C   UNL     1       6.596   4.039  13.965  0.00  0.00    +0.000 A 
ATOM     29  C   UNL     1       7.529   5.073  13.865  0.00  0.00    +0.000 A 
ATOM     30  C   UNL     1       7.957   5.452  12.604  0.00  0.00    +0.000 A 
ATOM     31  N   UNL     1       7.542   4.870  11.458  0.00  0.00    +0.000 NA
ATOM     32  C   UNL     1       6.654   3.860  11.580  0.00  0.00    +0.000 A 
ATOM     33  C   UNL     1       6.162   3.409  12.793  0.00  0.00    +0.000 A 
ENDBRANCH  27  28
ENDBRANCH  24  27
ENDBRANCH   6  21
TORSDOF 5
ENDMDL
