MODEL 1
REMARK VINA RESULT:      -9.7      0.000      0.000
REMARK  Name = 
REMARK  6 active torsions:
REMARK  status: ('A' for Active; 'I' for Inactive)
REMARK    1  A    between atoms: C_5  and  C_6
REMARK    2  A    between atoms: N_9  and  C_10
REMARK    3  A    between atoms: C_10  and  C_11
REMARK    4  A    between atoms: C_11  and  C_12
REMARK    5  A    between atoms: C_12  and  C_13
REMARK    6  A    between atoms: C_25  and  C_26
REMARK                            x       y       z     vdW  Elec       q    Type
REMARK                         _______ _______ _______ _____ _____    ______ ____
ROOT
ATOM      1  C   UNL     1       4.367   5.795  17.577  0.00  0.00    +0.000 C 
ATOM      2  C   UNL     1       5.355   5.108  18.558  0.00  0.00    +0.000 C 
ATOM      3  C   UNL     1       6.631   5.889  18.929  0.00  0.00    +0.000 C 
ATOM      4  N   UNL     1       7.344   6.586  17.837  0.00  0.00    +0.000 NA
ATOM      5  C   UNL     1       6.401   7.244  16.895  0.00  0.00    +0.000 C 
ATOM      6  C   UNL     1       5.213   6.370  16.428  0.00  0.00    +0.000 C 
ENDROOT
BRANCH   1  11
ATOM      7  F   UNL     1       0.625   9.622  19.575  0.00  0.00    +0.000 F 
ATOM      8  C   UNL     1       1.489   8.706  19.117  0.00  0.00    +0.000 A 
ATOM      9  C   UNL     1       2.385   9.042  18.133  0.00  0.00    +0.000 A 
ATOM     10  C   UNL     1       3.275   8.073  17.678  0.00  0.00    +0.000 A 
ATOM     11  C   UNL     1       3.292   6.735  18.160  0.00  0.00    +0.000 A 
ATOM     12  C   UNL     1       2.331   6.378  19.169  0.00  0.00    +0.000 A 
ATOM     13  C   UNL     1       1.471   7.418  19.633  0.00  0.00    +0.000 A 
BRANCH  12  14
ATOM     14  C   UNL     1       2.111   5.034  19.822  0.00  0.00    +0.000 A 
ATOM     15  C   UNL     1       2.417   4.736  21.159  0.00  0.00    +0.000 A 
ATOM     16  C   UNL     1       2.153   3.475  21.724  0.00  0.00    +0.000 A 
ATOM     17  C   UNL     1       1.498   2.492  20.991  0.00  0.00    +0.000 A 
ATOM     18  C   UNL     1       1.128   2.761  19.685  0.00  0.00    +0.000 A 
ATOM     19  C   UNL     1       1.455   3.997  19.108  0.00  0.00    +0.000 A 
ENDBRANCH  12  14
ENDBRANCH   1  11
BRANCH   4  20
ATOM     20  C   UNL     1       8.314   7.544  18.438  0.00  0.00    +0.000 C 
BRANCH  20  21
ATOM     21  C   UNL     1       8.359   9.060  18.090  0.00  0.00    +0.000 C 
BRANCH  21  22
ATOM     22  C   UNL     1       8.968  10.047  19.104  0.00  0.00    +0.000 C 
BRANCH  22  23
ATOM     23  C   UNL     1       9.723  11.190  18.439  0.00  0.00    +0.000 A 
ATOM     24  C   UNL     1      11.049  11.032  18.064  0.00  0.00    +0.000 A 
ATOM     25  N   UNL     1      11.342  12.076  17.243  0.00  0.00    +0.000 N 
ATOM     26  C   UNL     1      10.567  13.146  17.615  0.00  0.00    +0.000 A 
ATOM     27  C   UNL     1      10.812  14.518  17.467  0.00  0.00    +0.000 A 
ATOM     28  C   UNL     1       9.745  15.376  17.708  0.00  0.00    +0.000 A 
ATOM     29  C   UNL     1       8.492  14.836  17.974  0.00  0.00    +0.000 A 
ATOM     30  F   UNL     1       7.444  15.674  18.042  0.00  0.00    +0.000 F 
ATOM     31  C   UNL     1       8.282  13.452  18.165  0.00  0.00    +0.000 A 
ATOM     32  C   UNL     1       9.389  12.574  18.103  0.00  0.00    +0.000 A 
ATOM     33  H   UNL     1      11.735  11.976  16.315  0.00  0.00    +0.000 HD
ENDBRANCH  22  23
ENDBRANCH  21  22
ENDBRANCH  20  21
ENDBRANCH   4  20
TORSDOF 6
ENDMDL
MODEL 2
REMARK VINA RESULT:      -9.5      5.100      8.040
REMARK  Name = 
REMARK  6 active torsions:
REMARK  status: ('A' for Active; 'I' for Inactive)
REMARK    1  A    between atoms: C_5  and  C_6
REMARK    2  A    between atoms: N_9  and  C_10
REMARK    3  A    between atoms: C_10  and  C_11
REMARK    4  A    between atoms: C_11  and  C_12
REMARK    5  A    between atoms: C_12  and  C_13
REMARK    6  A    between atoms: C_25  and  C_26
REMARK                            x       y       z     vdW  Elec       q    Type
REMARK                         _______ _______ _______ _____ _____    ______ ____
ROOT
ATOM      1  C   UNL     1       4.262   3.108  16.875  0.00  0.00    +0.000 C 
ATOM      2  C   UNL     1       2.799   3.620  16.766  0.00  0.00    +0.000 C 
ATOM      3  C   UNL     1       1.942   3.565  18.045  0.00  0.00    +0.000 C 
ATOM      4  N   UNL     1       2.031   2.344  18.875  0.00  0.00    +0.000 NA
ATOM      5  C   UNL     1       3.430   1.852  18.980  0.00  0.00    +0.000 C 
ATOM      6  C   UNL     1       4.209   1.778  17.646  0.00  0.00    +0.000 C 
ENDROOT
BRANCH   1  11
ATOM      7  F   UNL     1       8.066   6.859  18.899  0.00  0.00    +0.000 F 
ATOM      8  C   UNL     1       7.187   5.978  18.404  0.00  0.00    +0.000 A 
ATOM      9  C   UNL     1       6.286   5.366  19.239  0.00  0.00    +0.000 A 
ATOM     10  C   UNL     1       5.380   4.458  18.698  0.00  0.00    +0.000 A 
ATOM     11  C   UNL     1       5.353   4.104  17.320  0.00  0.00    +0.000 A 
ATOM     12  C   UNL     1       6.320   4.723  16.453  0.00  0.00    +0.000 A 
ATOM     13  C   UNL     1       7.196   5.680  17.049  0.00  0.00    +0.000 A 
BRANCH  12  14
ATOM     14  C   UNL     1       6.530   4.504  14.974  0.00  0.00    +0.000 A 
ATOM     15  C   UNL     1       5.700   3.723  14.156  0.00  0.00    +0.000 A 
ATOM     16  C   UNL     1       5.923   3.588  12.774  0.00  0.00    +0.000 A 
ATOM     17  C   UNL     1       6.943   4.295  12.147  0.00  0.00    +0.000 A 
ATOM     18  C   UNL     1       7.753   5.121  12.906  0.00  0.00    +0.000 A 
ATOM     19  C   UNL     1       7.566   5.199  14.294  0.00  0.00    +0.000 A 
ENDBRANCH  12  14
ENDBRANCH   1  11
BRANCH   4  20
ATOM     20  C   UNL     1       1.422   2.627  20.204  0.00  0.00    +0.000 C 
BRANCH  20  21
ATOM     21  C   UNL     1       0.931   4.036  20.648  0.00  0.00    +0.000 C 
BRANCH  21  22
ATOM     22  C   UNL     1       1.936   5.019  21.277  0.00  0.00    +0.000 C 
BRANCH  22  23
ATOM     23  C   UNL     1       1.784   6.440  20.751  0.00  0.00    +0.000 A 
ATOM     24  C   UNL     1       0.966   7.347  21.408  0.00  0.00    +0.000 A 
ATOM     25  N   UNL     1       1.271   8.573  20.902  0.00  0.00    +0.000 N 
ATOM     26  C   UNL     1       1.683   8.411  19.603  0.00  0.00    +0.000 A 
ATOM     27  C   UNL     1       1.621   9.310  18.530  0.00  0.00    +0.000 A 
ATOM     28  C   UNL     1       2.338   8.975  17.386  0.00  0.00    +0.000 A 
ATOM     29  C   UNL     1       3.146   7.844  17.405  0.00  0.00    +0.000 A 
ATOM     30  F   UNL     1       3.953   7.627  16.354  0.00  0.00    +0.000 F 
ATOM     31  C   UNL     1       3.153   6.929  18.481  0.00  0.00    +0.000 A 
ATOM     32  C   UNL     1       2.294   7.155  19.582  0.00  0.00    +0.000 A 
ATOM     33  H   UNL     1       1.529   9.372  21.467  0.00  0.00    +0.000 HD
ENDBRANCH  22  23
ENDBRANCH  21  22
ENDBRANCH  20  21
ENDBRANCH   4  20
TORSDOF 6
ENDMDL
MODEL 3
REMARK VINA RESULT:      -9.5      4.977      8.022
REMARK  Name = 
REMARK  6 active torsions:
REMARK  status: ('A' for Active; 'I' for Inactive)
REMARK    1  A    between atoms: C_5  and  C_6
REMARK    2  A    between atoms: N_9  and  C_10
REMARK    3  A    between atoms: C_10  and  C_11
REMARK    4  A    between atoms: C_11  and  C_12
REMARK    5  A    between atoms: C_12  and  C_13
REMARK    6  A    between atoms: C_25  and  C_26
REMARK                            x       y       z     vdW  Elec       q    Type
REMARK                         _______ _______ _______ _____ _____    ______ ____
ROOT
ATOM      1  C   UNL     1       4.218   3.197  17.308  0.00  0.00    +0.000 C 
ATOM      2  C   UNL     1       2.841   3.738  16.835  0.00  0.00    +0.000 C 
ATOM      3  C   UNL     1       1.849   4.179  17.929  0.00  0.00    +0.000 C 
ATOM      4  N   UNL     1       1.714   3.310  19.118  0.00  0.00    +0.000 NA
ATOM      5  C   UNL     1       3.030   2.791  19.572  0.00  0.00    +0.000 C 
ATOM      6  C   UNL     1       3.936   2.215  18.458  0.00  0.00    +0.000 C 
ENDROOT
BRANCH   1  11
ATOM      7  F   UNL     1       8.245   7.042  18.589  0.00  0.00    +0.000 F 
ATOM      8  C   UNL     1       7.311   6.136  18.267  0.00  0.00    +0.000 A 
ATOM      9  C   UNL     1       6.506   5.605  19.243  0.00  0.00    +0.000 A 
ATOM     10  C   UNL     1       5.541   4.670  18.880  0.00  0.00    +0.000 A 
ATOM     11  C   UNL     1       5.358   4.209  17.547  0.00  0.00    +0.000 A 
ATOM     12  C   UNL     1       6.224   4.744  16.531  0.00  0.00    +0.000 A 
ATOM     13  C   UNL     1       7.166   5.732  16.947  0.00  0.00    +0.000 A 
BRANCH  12  14
ATOM     14  C   UNL     1       6.266   4.406  15.060  0.00  0.00    +0.000 A 
ATOM     15  C   UNL     1       5.224   3.790  14.352  0.00  0.00    +0.000 A 
ATOM     16  C   UNL     1       5.304   3.535  12.971  0.00  0.00    +0.000 A 
ATOM     17  C   UNL     1       6.403   3.962  12.234  0.00  0.00    +0.000 A 
ATOM     18  C   UNL     1       7.432   4.624  12.882  0.00  0.00    +0.000 A 
ATOM     19  C   UNL     1       7.373   4.814  14.269  0.00  0.00    +0.000 A 
ENDBRANCH  12  14
ENDBRANCH   1  11
BRANCH   4  20
ATOM     20  C   UNL     1       1.000   4.068  20.182  0.00  0.00    +0.000 C 
BRANCH  20  21
ATOM     21  C   UNL     1       1.528   5.396  20.800  0.00  0.00    +0.000 C 
BRANCH  21  22
ATOM     22  C   UNL     1       2.469   6.290  19.970  0.00  0.00    +0.000 C 
BRANCH  22  23
ATOM     23  C   UNL     1       1.893   7.675  19.709  0.00  0.00    +0.000 A 
ATOM     24  C   UNL     1       2.121   8.314  18.500  0.00  0.00    +0.000 A 
ATOM     25  N   UNL     1       1.250   9.357  18.446  0.00  0.00    +0.000 N 
ATOM     26  C   UNL     1       1.008   9.780  19.729  0.00  0.00    +0.000 A 
ATOM     27  C   UNL     1       0.632  11.048  20.194  0.00  0.00    +0.000 A 
ATOM     28  C   UNL     1       0.212  11.134  21.517  0.00  0.00    +0.000 A 
ATOM     29  C   UNL     1       0.088   9.967  22.262  0.00  0.00    +0.000 A 
ATOM     30  F   UNL     1      -0.471  10.051  23.480  0.00  0.00    +0.000 F 
ATOM     31  C   UNL     1       0.520   8.708  21.786  0.00  0.00    +0.000 A 
ATOM     32  C   UNL     1       1.119   8.625  20.508  0.00  0.00    +0.000 A 
ATOM     33  H   UNL     1       0.609   9.523  17.681  0.00  0.00    +0.000 HD
ENDBRANCH  22  23
ENDBRANCH  21  22
ENDBRANCH  20  21
ENDBRANCH   4  20
TORSDOF 6
ENDMDL
MODEL 4
REMARK VINA RESULT:      -9.4      5.003      8.245
REMARK  Name = 
REMARK  6 active torsions:
REMARK  status: ('A' for Active; 'I' for Inactive)
REMARK    1  A    between atoms: C_5  and  C_6
REMARK    2  A    between atoms: N_9  and  C_10
REMARK    3  A    between atoms: C_10  and  C_11
REMARK    4  A    between atoms: C_11  and  C_12
REMARK    5  A    between atoms: C_12  and  C_13
REMARK    6  A    between atoms: C_25  and  C_26
REMARK                            x       y       z     vdW  Elec       q    Type
REMARK                         _______ _______ _______ _____ _____    ______ ____
ROOT
ATOM      1  C   UNL     1       4.309   3.268  16.995  0.00  0.00    +0.000 C 
ATOM      2  C   UNL     1       2.883   3.843  16.776  0.00  0.00    +0.000 C 
ATOM      3  C   UNL     1       1.977   3.959  18.017  0.00  0.00    +0.000 C 
ATOM      4  N   UNL     1       1.967   2.822  18.963  0.00  0.00    +0.000 NA
ATOM      5  C   UNL     1       3.330   2.269  19.174  0.00  0.00    +0.000 C 
ATOM      6  C   UNL     1       4.153   2.024  17.886  0.00  0.00    +0.000 C 
ENDROOT
BRANCH   1  11
ATOM      7  F   UNL     1       8.274   6.944  18.840  0.00  0.00    +0.000 F 
ATOM      8  C   UNL     1       7.356   6.081  18.385  0.00  0.00    +0.000 A 
ATOM      9  C   UNL     1       6.493   5.475  19.263  0.00  0.00    +0.000 A 
ATOM     10  C   UNL     1       5.545   4.585  18.764  0.00  0.00    +0.000 A 
ATOM     11  C   UNL     1       5.438   4.243  17.388  0.00  0.00    +0.000 A 
ATOM     12  C   UNL     1       6.365   4.856  16.474  0.00  0.00    +0.000 A 
ATOM     13  C   UNL     1       7.287   5.794  17.029  0.00  0.00    +0.000 A 
BRANCH  12  14
ATOM     14  C   UNL     1       6.492   4.647  14.984  0.00  0.00    +0.000 A 
ATOM     15  C   UNL     1       7.510   5.189  14.185  0.00  0.00    +0.000 A 
ATOM     16  C   UNL     1       7.599   4.927  12.806  0.00  0.00    +0.000 A 
ATOM     17  C   UNL     1       6.716   4.045  12.193  0.00  0.00    +0.000 A 
ATOM     18  C   UNL     1       5.730   3.443  12.954  0.00  0.00    +0.000 A 
ATOM     19  C   UNL     1       5.606   3.762  14.314  0.00  0.00    +0.000 A 
ENDBRANCH  12  14
ENDBRANCH   1  11
BRANCH   4  20
ATOM     20  C   UNL     1       1.326   3.265  20.232  0.00  0.00    +0.000 C 
BRANCH  20  21
ATOM     21  C   UNL     1       0.887   4.732  20.512  0.00  0.00    +0.000 C 
BRANCH  21  22
ATOM     22  C   UNL     1       1.941   5.758  20.970  0.00  0.00    +0.000 C 
BRANCH  22  23
ATOM     23  C   UNL     1       1.629   7.175  20.508  0.00  0.00    +0.000 A 
ATOM     24  C   UNL     1       2.217   7.684  19.359  0.00  0.00    +0.000 A 
ATOM     25  N   UNL     1       1.528   8.813  19.043  0.00  0.00    +0.000 N 
ATOM     26  C   UNL     1       1.049   9.363  20.206  0.00  0.00    +0.000 A 
ATOM     27  C   UNL     1       0.744  10.699  20.501  0.00  0.00    +0.000 A 
ATOM     28  C   UNL     1       0.040  10.939  21.676  0.00  0.00    +0.000 A 
ATOM     29  C   UNL     1      -0.407   9.858  22.427  0.00  0.00    +0.000 A 
ATOM     30  F   UNL     1      -1.221  10.104  23.466  0.00  0.00    +0.000 F 
ATOM     31  C   UNL     1      -0.044   8.524  22.134  0.00  0.00    +0.000 A 
ATOM     32  C   UNL     1       0.822   8.269  21.045  0.00  0.00    +0.000 A 
ATOM     33  H   UNL     1       1.111   8.990  18.138  0.00  0.00    +0.000 HD
ENDBRANCH  22  23
ENDBRANCH  21  22
ENDBRANCH  20  21
ENDBRANCH   4  20
TORSDOF 6
ENDMDL
MODEL 5
REMARK VINA RESULT:      -9.3      1.574      1.779
REMARK  Name = 
REMARK  6 active torsions:
REMARK  status: ('A' for Active; 'I' for Inactive)
REMARK    1  A    between atoms: C_5  and  C_6
REMARK    2  A    between atoms: N_9  and  C_10
REMARK    3  A    between atoms: C_10  and  C_11
REMARK    4  A    between atoms: C_11  and  C_12
REMARK    5  A    between atoms: C_12  and  C_13
REMARK    6  A    between atoms: C_25  and  C_26
REMARK                            x       y       z     vdW  Elec       q    Type
REMARK                         _______ _______ _______ _____ _____    ______ ____
ROOT
ATOM      1  C   UNL     1       4.058   5.790  17.381  0.00  0.00    +0.000 C 
ATOM      2  C   UNL     1       4.925   4.830  18.241  0.00  0.00    +0.000 C 
ATOM      3  C   UNL     1       6.277   5.370  18.744  0.00  0.00    +0.000 C 
ATOM      4  N   UNL     1       7.103   6.140  17.789  0.00  0.00    +0.000 NA
ATOM      5  C   UNL     1       6.276   7.059  16.964  0.00  0.00    +0.000 C 
ATOM      6  C   UNL     1       5.001   6.433  16.350  0.00  0.00    +0.000 C 
ENDROOT
BRANCH   1  11
ATOM      7  F   UNL     1       0.719   9.691  19.885  0.00  0.00    +0.000 F 
ATOM      8  C   UNL     1       1.489   8.758  19.310  0.00  0.00    +0.000 A 
ATOM      9  C   UNL     1       2.277   9.089  18.236  0.00  0.00    +0.000 A 
ATOM     10  C   UNL     1       3.072   8.102  17.659  0.00  0.00    +0.000 A 
ATOM     11  C   UNL     1       3.093   6.752  18.106  0.00  0.00    +0.000 A 
ATOM     12  C   UNL     1       2.242   6.402  19.212  0.00  0.00    +0.000 A 
ATOM     13  C   UNL     1       1.482   7.459  19.795  0.00  0.00    +0.000 A 
BRANCH  12  14
ATOM     14  C   UNL     1       2.049   5.049  19.856  0.00  0.00    +0.000 A 
ATOM     15  C   UNL     1       2.423   4.729  21.169  0.00  0.00    +0.000 A 
ATOM     16  C   UNL     1       2.181   3.462  21.729  0.00  0.00    +0.000 A 
ATOM     17  C   UNL     1       1.482   2.493  21.017  0.00  0.00    +0.000 A 
ATOM     18  C   UNL     1       1.044   2.785  19.737  0.00  0.00    +0.000 A 
ATOM     19  C   UNL     1       1.348   4.027  19.162  0.00  0.00    +0.000 A 
ENDBRANCH  12  14
ENDBRANCH   1  11
BRANCH   4  20
ATOM     20  C   UNL     1       8.168   6.853  18.548  0.00  0.00    +0.000 C 
BRANCH  20  21
ATOM     21  C   UNL     1       8.077   8.350  18.964  0.00  0.00    +0.000 C 
BRANCH  21  22
ATOM     22  C   UNL     1       8.768   9.417  18.094  0.00  0.00    +0.000 C 
BRANCH  22  23
ATOM     23  C   UNL     1       9.478  10.483  18.915  0.00  0.00    +0.000 A 
ATOM     24  C   UNL     1       9.248  10.589  20.279  0.00  0.00    +0.000 A 
ATOM     25  N   UNL     1      10.226  11.395  20.772  0.00  0.00    +0.000 N 
ATOM     26  C   UNL     1      10.594  12.276  19.786  0.00  0.00    +0.000 A 
ATOM     27  C   UNL     1      11.139  13.562  19.897  0.00  0.00    +0.000 A 
ATOM     28  C   UNL     1      11.649  14.132  18.736  0.00  0.00    +0.000 A 
ATOM     29  C   UNL     1      11.687  13.372  17.573  0.00  0.00    +0.000 A 
ATOM     30  F   UNL     1      12.329  13.878  16.507  0.00  0.00    +0.000 F 
ATOM     31  C   UNL     1      11.087  12.096  17.474  0.00  0.00    +0.000 A 
ATOM     32  C   UNL     1      10.403  11.570  18.595  0.00  0.00    +0.000 A 
ATOM     33  H   UNL     1      10.832  11.146  21.543  0.00  0.00    +0.000 HD
ENDBRANCH  22  23
ENDBRANCH  21  22
ENDBRANCH  20  21
ENDBRANCH   4  20
TORSDOF 6
ENDMDL
MODEL 6
REMARK VINA RESULT:      -9.0      1.725      1.875
REMARK  Name = 
REMARK  6 active torsions:
REMARK  status: ('A' for Active; 'I' for Inactive)
REMARK    1  A    between atoms: C_5  and  C_6
REMARK    2  A    between atoms: N_9  and  C_10
REMARK    3  A    between atoms: C_10  and  C_11
REMARK    4  A    between atoms: C_11  and  C_12
REMARK    5  A    between atoms: C_12  and  C_13
REMARK    6  A    between atoms: C_25  and  C_26
REMARK                            x       y       z     vdW  Elec       q    Type
REMARK                         _______ _______ _______ _____ _____    ______ ____
ROOT
ATOM      1  C   UNL     1       4.115   5.918  17.408  0.00  0.00    +0.000 C 
ATOM      2  C   UNL     1       5.059   5.060  18.293  0.00  0.00    +0.000 C 
ATOM      3  C   UNL     1       6.382   5.711  18.741  0.00  0.00    +0.000 C 
ATOM      4  N   UNL     1       7.136   6.486  17.733  0.00  0.00    +0.000 NA
ATOM      5  C   UNL     1       6.236   7.308  16.883  0.00  0.00    +0.000 C 
ATOM      6  C   UNL     1       4.994   6.570  16.327  0.00  0.00    +0.000 C 
ENDROOT
BRANCH   1  11
ATOM      7  F   UNL     1       0.593   9.712  19.825  0.00  0.00    +0.000 F 
ATOM      8  C   UNL     1       1.406   8.804  19.269  0.00  0.00    +0.000 A 
ATOM      9  C   UNL     1       2.220   9.163  18.224  0.00  0.00    +0.000 A 
ATOM     10  C   UNL     1       3.060   8.201  17.668  0.00  0.00    +0.000 A 
ATOM     11  C   UNL     1       3.102   6.849  18.106  0.00  0.00    +0.000 A 
ATOM     12  C   UNL     1       2.225   6.469  19.181  0.00  0.00    +0.000 A 
ATOM     13  C   UNL     1       1.418   7.501  19.746  0.00  0.00    +0.000 A 
BRANCH  12  14
ATOM     14  C   UNL     1       2.046   5.107  19.810  0.00  0.00    +0.000 A 
ATOM     15  C   UNL     1       2.389   4.786  21.132  0.00  0.00    +0.000 A 
ATOM     16  C   UNL     1       2.162   3.509  21.676  0.00  0.00    +0.000 A 
ATOM     17  C   UNL     1       1.509   2.529  20.937  0.00  0.00    +0.000 A 
ATOM     18  C   UNL     1       1.103   2.819  19.646  0.00  0.00    +0.000 A 
ATOM     19  C   UNL     1       1.392   4.073  19.088  0.00  0.00    +0.000 A 
ENDBRANCH  12  14
ENDBRANCH   1  11
BRANCH   4  20
ATOM     20  C   UNL     1       8.166   7.304  18.434  0.00  0.00    +0.000 C 
BRANCH  20  21
ATOM     21  C   UNL     1       8.306   8.845  18.266  0.00  0.00    +0.000 C 
BRANCH  21  22
ATOM     22  C   UNL     1       9.381   9.595  19.075  0.00  0.00    +0.000 C 
BRANCH  22  23
ATOM     23  C   UNL     1       9.210  11.107  19.029  0.00  0.00    +0.000 A 
ATOM     24  C   UNL     1       9.207  11.777  17.815  0.00  0.00    +0.000 A 
ATOM     25  N   UNL     1       8.737  13.028  18.068  0.00  0.00    +0.000 N 
ATOM     26  C   UNL     1       9.081  13.364  19.354  0.00  0.00    +0.000 A 
ATOM     27  C   UNL     1       9.294  14.629  19.918  0.00  0.00    +0.000 A 
ATOM     28  C   UNL     1       9.388  14.692  21.304  0.00  0.00    +0.000 A 
ATOM     29  C   UNL     1       9.165  13.539  22.047  0.00  0.00    +0.000 A 
ATOM     30  F   UNL     1       9.099  13.652  23.384  0.00  0.00    +0.000 F 
ATOM     31  C   UNL     1       9.001  12.268  21.454  0.00  0.00    +0.000 A 
ATOM     32  C   UNL     1       9.082  12.150  20.046  0.00  0.00    +0.000 A 
ATOM     33  H   UNL     1       7.962  13.453  17.576  0.00  0.00    +0.000 HD
ENDBRANCH  22  23
ENDBRANCH  21  22
ENDBRANCH  20  21
ENDBRANCH   4  20
TORSDOF 6
ENDMDL
MODEL 7
REMARK VINA RESULT:      -9.0      5.458      8.437
REMARK  Name = 
REMARK  6 active torsions:
REMARK  status: ('A' for Active; 'I' for Inactive)
REMARK    1  A    between atoms: C_5  and  C_6
REMARK    2  A    between atoms: N_9  and  C_10
REMARK    3  A    between atoms: C_10  and  C_11
REMARK    4  A    between atoms: C_11  and  C_12
REMARK    5  A    between atoms: C_12  and  C_13
REMARK    6  A    between atoms: C_25  and  C_26
REMARK                            x       y       z     vdW  Elec       q    Type
REMARK                         _______ _______ _______ _____ _____    ______ ____
ROOT
ATOM      1  C   UNL     1       0.877  10.598  19.154  0.00  0.00    +0.000 C 
ATOM      2  C   UNL     1       1.948  10.341  18.060  0.00  0.00    +0.000 C 
ATOM      3  C   UNL     1       2.259   8.871  17.716  0.00  0.00    +0.000 C 
ATOM      4  N   UNL     1       2.390   7.921  18.842  0.00  0.00    +0.000 NA
ATOM      5  C   UNL     1       1.367   8.165  19.891  0.00  0.00    +0.000 C 
ATOM      6  C   UNL     1       1.194   9.643  20.317  0.00  0.00    +0.000 C 
ENDROOT
BRANCH   1  11
ATOM      7  F   UNL     1      -4.478  10.708  17.168  0.00  0.00    +0.000 F 
ATOM      8  C   UNL     1      -3.231  10.693  17.655  0.00  0.00    +0.000 A 
ATOM      9  C   UNL     1      -2.271   9.916  17.055  0.00  0.00    +0.000 A 
ATOM     10  C   UNL     1      -0.981   9.922  17.578  0.00  0.00    +0.000 A 
ATOM     11  C   UNL     1      -0.603  10.673  18.725  0.00  0.00    +0.000 A 
ATOM     12  C   UNL     1      -1.619  11.462  19.370  0.00  0.00    +0.000 A 
ATOM     13  C   UNL     1      -2.913  11.456  18.769  0.00  0.00    +0.000 A 
BRANCH  12  14
ATOM     14  C   UNL     1      -1.498  12.316  20.610  0.00  0.00    +0.000 A 
ATOM     15  C   UNL     1      -1.438  11.818  21.920  0.00  0.00    +0.000 A 
ATOM     16  C   UNL     1      -1.285  12.661  23.036  0.00  0.00    +0.000 A 
ATOM     17  C   UNL     1      -1.106  14.030  22.871  0.00  0.00    +0.000 A 
ATOM     18  C   UNL     1      -1.102  14.559  21.592  0.00  0.00    +0.000 A 
ATOM     19  C   UNL     1      -1.323  13.720  20.490  0.00  0.00    +0.000 A 
ENDBRANCH  12  14
ENDBRANCH   1  11
BRANCH   4  20
ATOM     20  C   UNL     1       2.337   6.534  18.302  0.00  0.00    +0.000 C 
BRANCH  20  21
ATOM     21  C   UNL     1       2.185   5.266  19.193  0.00  0.00    +0.000 C 
BRANCH  21  22
ATOM     22  C   UNL     1       2.851   3.950  18.747  0.00  0.00    +0.000 C 
BRANCH  22  23
ATOM     23  C   UNL     1       4.307   4.129  18.343  0.00  0.00    +0.000 A 
ATOM     24  C   UNL     1       5.270   4.421  19.297  0.00  0.00    +0.000 A 
ATOM     25  N   UNL     1       6.476   4.218  18.701  0.00  0.00    +0.000 N 
ATOM     26  C   UNL     1       6.339   4.474  17.359  0.00  0.00    +0.000 A 
ATOM     27  C   UNL     1       7.300   4.897  16.431  0.00  0.00    +0.000 A 
ATOM     28  C   UNL     1       6.945   4.838  15.087  0.00  0.00    +0.000 A 
ATOM     29  C   UNL     1       5.723   4.276  14.737  0.00  0.00    +0.000 A 
ATOM     30  F   UNL     1       5.469   4.079  13.433  0.00  0.00    +0.000 F 
ATOM     31  C   UNL     1       4.753   3.902  15.694  0.00  0.00    +0.000 A 
ATOM     32  C   UNL     1       5.020   4.120  17.066  0.00  0.00    +0.000 A 
ATOM     33  H   UNL     1       7.202   3.622  19.077  0.00  0.00    +0.000 HD
ENDBRANCH  22  23
ENDBRANCH  21  22
ENDBRANCH  20  21
ENDBRANCH   4  20
TORSDOF 6
ENDMDL
MODEL 8
REMARK VINA RESULT:      -8.9      1.070      1.127
REMARK  Name = 
REMARK  6 active torsions:
REMARK  status: ('A' for Active; 'I' for Inactive)
REMARK    1  A    between atoms: C_5  and  C_6
REMARK    2  A    between atoms: N_9  and  C_10
REMARK    3  A    between atoms: C_10  and  C_11
REMARK    4  A    between atoms: C_11  and  C_12
REMARK    5  A    between atoms: C_12  and  C_13
REMARK    6  A    between atoms: C_25  and  C_26
REMARK                            x       y       z     vdW  Elec       q    Type
REMARK                         _______ _______ _______ _____ _____    ______ ____
ROOT
ATOM      1  C   UNL     1       3.973   5.695  17.347  0.00  0.00    +0.000 C 
ATOM      2  C   UNL     1       4.849   4.715  18.174  0.00  0.00    +0.000 C 
ATOM      3  C   UNL     1       6.238   5.218  18.613  0.00  0.00    +0.000 C 
ATOM      4  N   UNL     1       7.041   5.958  17.616  0.00  0.00    +0.000 NA
ATOM      5  C   UNL     1       6.205   6.896  16.822  0.00  0.00    +0.000 C 
ATOM      6  C   UNL     1       4.887   6.304  16.270  0.00  0.00    +0.000 C 
ENDROOT
BRANCH   1  11
ATOM      7  F   UNL     1       0.866   9.706  19.972  0.00  0.00    +0.000 F 
ATOM      8  C   UNL     1       1.581   8.748  19.369  0.00  0.00    +0.000 A 
ATOM      9  C   UNL     1       2.334   9.050  18.262  0.00  0.00    +0.000 A 
ATOM     10  C   UNL     1       3.073   8.038  17.657  0.00  0.00    +0.000 A 
ATOM     11  C   UNL     1       3.070   6.688  18.108  0.00  0.00    +0.000 A 
ATOM     12  C   UNL     1       2.255   6.368  19.249  0.00  0.00    +0.000 A 
ATOM     13  C   UNL     1       1.553   7.451  19.860  0.00  0.00    +0.000 A 
BRANCH  12  14
ATOM     14  C   UNL     1       2.045   5.025  19.906  0.00  0.00    +0.000 A 
ATOM     15  C   UNL     1       2.448   4.701  21.210  0.00  0.00    +0.000 A 
ATOM     16  C   UNL     1       2.189   3.443  21.784  0.00  0.00    +0.000 A 
ATOM     17  C   UNL     1       1.446   2.489  21.097  0.00  0.00    +0.000 A 
ATOM     18  C   UNL     1       0.981   2.786  19.828  0.00  0.00    +0.000 A 
ATOM     19  C   UNL     1       1.300   4.017  19.237  0.00  0.00    +0.000 A 
ENDBRANCH  12  14
ENDBRANCH   1  11
BRANCH   4  20
ATOM     20  C   UNL     1       8.160   6.644  18.321  0.00  0.00    +0.000 C 
BRANCH  20  21
ATOM     21  C   UNL     1       8.112   8.133  18.772  0.00  0.00    +0.000 C 
BRANCH  21  22
ATOM     22  C   UNL     1       8.455   9.238  17.754  0.00  0.00    +0.000 C 
BRANCH  22  23
ATOM     23  C   UNL     1       8.972  10.510  18.413  0.00  0.00    +0.000 A 
ATOM     24  C   UNL     1       9.888  10.441  19.451  0.00  0.00    +0.000 A 
ATOM     25  N   UNL     1      10.380  11.699  19.613  0.00  0.00    +0.000 N 
ATOM     26  C   UNL     1       9.404  12.592  19.247  0.00  0.00    +0.000 A 
ATOM     27  C   UNL     1       9.196  13.910  19.675  0.00  0.00    +0.000 A 
ATOM     28  C   UNL     1       8.279  14.668  18.955  0.00  0.00    +0.000 A 
ATOM     29  C   UNL     1       7.707  14.125  17.810  0.00  0.00    +0.000 A 
ATOM     30  F   UNL     1       6.952  14.925  17.041  0.00  0.00    +0.000 F 
ATOM     31  C   UNL     1       7.896  12.778  17.428  0.00  0.00    +0.000 A 
ATOM     32  C   UNL     1       8.683  11.934  18.247  0.00  0.00    +0.000 A 
ATOM     33  H   UNL     1      11.366  11.928  19.610  0.00  0.00    +0.000 HD
ENDBRANCH  22  23
ENDBRANCH  21  22
ENDBRANCH  20  21
ENDBRANCH   4  20
TORSDOF 6
ENDMDL
MODEL 9
REMARK VINA RESULT:      -8.9      1.244      1.442
REMARK  Name = 
REMARK  6 active torsions:
REMARK  status: ('A' for Active; 'I' for Inactive)
REMARK    1  A    between atoms: C_5  and  C_6
REMARK    2  A    between atoms: N_9  and  C_10
REMARK    3  A    between atoms: C_10  and  C_11
REMARK    4  A    between atoms: C_11  and  C_12
REMARK    5  A    between atoms: C_12  and  C_13
REMARK    6  A    between atoms: C_25  and  C_26
REMARK                            x       y       z     vdW  Elec       q    Type
REMARK                         _______ _______ _______ _____ _____    ______ ____
ROOT
ATOM      1  C   UNL     1       4.357   5.749  17.557  0.00  0.00    +0.000 C 
ATOM      2  C   UNL     1       5.362   5.096  18.544  0.00  0.00    +0.000 C 
ATOM      3  C   UNL     1       6.635   5.898  18.879  0.00  0.00    +0.000 C 
ATOM      4  N   UNL     1       7.329   6.573  17.761  0.00  0.00    +0.000 NA
ATOM      5  C   UNL     1       6.370   7.198  16.814  0.00  0.00    +0.000 C 
ATOM      6  C   UNL     1       5.184   6.302  16.384  0.00  0.00    +0.000 C 
ENDROOT
BRANCH   1  11
ATOM      7  F   UNL     1       0.610   9.594  19.511  0.00  0.00    +0.000 F 
ATOM      8  C   UNL     1       1.475   8.674  19.063  0.00  0.00    +0.000 A 
ATOM      9  C   UNL     1       2.372   9.001  18.078  0.00  0.00    +0.000 A 
ATOM     10  C   UNL     1       3.264   8.028  17.634  0.00  0.00    +0.000 A 
ATOM     11  C   UNL     1       3.280   6.695  18.129  0.00  0.00    +0.000 A 
ATOM     12  C   UNL     1       2.317   6.347  19.140  0.00  0.00    +0.000 A 
ATOM     13  C   UNL     1       1.456   7.391  19.592  0.00  0.00    +0.000 A 
BRANCH  12  14
ATOM     14  C   UNL     1       2.096   5.009  19.805  0.00  0.00    +0.000 A 
ATOM     15  C   UNL     1       2.383   4.729  21.149  0.00  0.00    +0.000 A 
ATOM     16  C   UNL     1       2.119   3.473  21.725  0.00  0.00    +0.000 A 
ATOM     17  C   UNL     1       1.483   2.477  20.994  0.00  0.00    +0.000 A 
ATOM     18  C   UNL     1       1.131   2.728  19.679  0.00  0.00    +0.000 A 
ATOM     19  C   UNL     1       1.458   3.959  19.093  0.00  0.00    +0.000 A 
ENDBRANCH  12  14
ENDBRANCH   1  11
BRANCH   4  20
ATOM     20  C   UNL     1       8.297   7.554  18.326  0.00  0.00    +0.000 C 
BRANCH  20  21
ATOM     21  C   UNL     1       8.114   9.097  18.237  0.00  0.00    +0.000 C 
BRANCH  21  22
ATOM     22  C   UNL     1       9.357   9.994  18.077  0.00  0.00    +0.000 C 
BRANCH  22  23
ATOM     23  C   UNL     1       9.460  11.061  19.158  0.00  0.00    +0.000 A 
ATOM     24  C   UNL     1       9.436  10.707  20.499  0.00  0.00    +0.000 A 
ATOM     25  N   UNL     1       9.850  11.802  21.192  0.00  0.00    +0.000 N 
ATOM     26  C   UNL     1       9.487  12.921  20.484  0.00  0.00    +0.000 A 
ATOM     27  C   UNL     1       9.216  14.217  20.942  0.00  0.00    +0.000 A 
ATOM     28  C   UNL     1       9.115  15.216  19.980  0.00  0.00    +0.000 A 
ATOM     29  C   UNL     1       9.387  14.904  18.653  0.00  0.00    +0.000 A 
ATOM     30  F   UNL     1       9.444  15.911  17.766  0.00  0.00    +0.000 F 
ATOM     31  C   UNL     1       9.610  13.581  18.210  0.00  0.00    +0.000 A 
ATOM     32  C   UNL     1       9.538  12.522  19.145  0.00  0.00    +0.000 A 
ATOM     33  H   UNL     1      10.606  11.797  21.864  0.00  0.00    +0.000 HD
ENDBRANCH  22  23
ENDBRANCH  21  22
ENDBRANCH  20  21
ENDBRANCH   4  20
TORSDOF 6
ENDMDL
