MODEL 1
REMARK VINA RESULT:      -6.2      0.000      0.000
REMARK  Name = 
REMARK  9 active torsions:
REMARK  status: ('A' for Active; 'I' for Inactive)
REMARK    1  A    between atoms: C_1  and  C_2
REMARK    2  A    between atoms: C_2  and  N_3
REMARK    3  A    between atoms: C_8  and  C_9
REMARK    4  A    between atoms: C_9  and  O_10
REMARK    5  A    between atoms: O_10  and  C_11
REMARK    6  A    between atoms: C_11  and  C_12
REMARK    7  A    between atoms: N_15  and  C_16
REMARK    8  A    between atoms: C_16  and  C_17
REMARK    9  A    between atoms: N_20  and  C_21
REMARK                            x       y       z     vdW  Elec       q    Type
REMARK                         _______ _______ _______ _____ _____    ______ ____
ROOT
ATOM      1  N   UNL     1       2.050   5.948  20.556  0.00  0.00    +0.000 N 
ATOM      2  N   UNL     1       1.397   7.031  21.038  0.00  0.00    +0.000 NA
ATOM      3  C   UNL     1       1.601   7.974  20.128  0.00  0.00    +0.000 A 
ATOM      4  C   UNL     1       2.432   7.527  19.100  0.00  0.00    +0.000 A 
ATOM      5  C   UNL     1       2.787   6.235  19.422  0.00  0.00    +0.000 A 
ATOM      6  C   UNL     1       3.724   5.348  18.615  0.00  0.00    +0.000 C 
ATOM      7  N   UNL     1       4.334   6.079  17.440  0.00  0.00    +0.000 NA
ATOM      8  C   UNL     1       3.870   7.424  17.058  0.00  0.00    +0.000 C 
ATOM      9  C   UNL     1       2.890   8.243  17.907  0.00  0.00    +0.000 C 
ENDROOT
BRANCH   1  11
ATOM     10  C   UNL     1       0.933   3.697  20.818  0.00  0.00    +0.000 C 
ATOM     11  C   UNL     1       1.941   4.722  21.324  0.00  0.00    +0.000 C 
ENDBRANCH   1  11
BRANCH   6  12
ATOM     12  C   UNL     1       4.792   4.651  19.532  0.00  0.00    +0.000 C 
BRANCH  12  13
ATOM     13  O   UNL     1       5.038   3.302  19.157  0.00  0.00    +0.000 OA
BRANCH  13  14
ATOM     14  C   UNL     1       4.110   2.388  19.731  0.00  0.00    +0.000 C 
BRANCH  14  15
ATOM     15  C   UNL     1       3.500   1.600  18.614  0.00  0.00    +0.000 C 
ATOM     16  C   UNL     1       2.187   2.028  18.004  0.00  0.00    +0.000 C 
ATOM     17  C   UNL     1       3.460   2.154  17.216  0.00  0.00    +0.000 C 
ENDBRANCH  14  15
ENDBRANCH  13  14
ENDBRANCH  12  13
ENDBRANCH   6  12
BRANCH   7  18
ATOM     18  C   UNL     1       5.769   5.845  17.222  0.00  0.00    +0.000 C 
BRANCH  18  19
ATOM     19  C   UNL     1       6.167   5.379  15.863  0.00  0.00    +0.000 A 
ATOM     20  C   UNL     1       7.393   5.661  15.203  0.00  0.00    +0.000 A 
ATOM     21  N   UNL     1       7.507   5.033  14.036  0.00  0.00    +0.000 NA
ATOM     22  N   UNL     1       6.364   4.330  13.945  0.00  0.00    +0.000 N 
ATOM     23  C   UNL     1       6.153   3.436  12.832  0.00  0.00    +0.000 C 
ATOM     24  C   UNL     1       5.522   4.517  14.999  0.00  0.00    +0.000 A 
ENDBRANCH  18  19
ENDBRANCH   7  18
TORSDOF 7
ENDMDL
MODEL 2
REMARK VINA RESULT:      -6.0      2.406      6.586
REMARK  Name = 
REMARK  9 active torsions:
REMARK  status: ('A' for Active; 'I' for Inactive)
REMARK    1  A    between atoms: C_1  and  C_2
REMARK    2  A    between atoms: C_2  and  N_3
REMARK    3  A    between atoms: C_8  and  C_9
REMARK    4  A    between atoms: C_9  and  O_10
REMARK    5  A    between atoms: O_10  and  C_11
REMARK    6  A    between atoms: C_11  and  C_12
REMARK    7  A    between atoms: N_15  and  C_16
REMARK    8  A    between atoms: C_16  and  C_17
REMARK    9  A    between atoms: N_20  and  C_21
REMARK                            x       y       z     vdW  Elec       q    Type
REMARK                         _______ _______ _______ _____ _____    ______ ____
ROOT
ATOM      1  N   UNL     1       3.552   3.148  17.501  0.00  0.00    +0.000 N 
ATOM      2  N   UNL     1       3.600   1.846  17.868  0.00  0.00    +0.000 NA
ATOM      3  C   UNL     1       2.815   1.772  18.934  0.00  0.00    +0.000 A 
ATOM      4  C   UNL     1       2.315   3.025  19.294  0.00  0.00    +0.000 A 
ATOM      5  C   UNL     1       2.860   3.929  18.408  0.00  0.00    +0.000 A 
ATOM      6  C   UNL     1       2.639   5.435  18.432  0.00  0.00    +0.000 C 
ATOM      7  N   UNL     1       1.820   5.874  19.625  0.00  0.00    +0.000 NA
ATOM      8  C   UNL     1       1.168   4.887  20.503  0.00  0.00    +0.000 C 
ATOM      9  C   UNL     1       1.412   3.377  20.391  0.00  0.00    +0.000 C 
ENDROOT
BRANCH   1  11
ATOM     10  C   UNL     1       5.797   3.522  16.404  0.00  0.00    +0.000 C 
ATOM     11  C   UNL     1       4.277   3.516  16.299  0.00  0.00    +0.000 C 
ENDBRANCH   1  11
BRANCH   6  12
ATOM     12  C   UNL     1       3.992   6.220  18.288  0.00  0.00    +0.000 C 
BRANCH  12  13
ATOM     13  O   UNL     1       4.080   6.938  17.064  0.00  0.00    +0.000 OA
BRANCH  13  14
ATOM     14  C   UNL     1       5.405   6.998  16.549  0.00  0.00    +0.000 C 
BRANCH  14  15
ATOM     15  C   UNL     1       6.334   7.184  17.707  0.00  0.00    +0.000 C 
ATOM     16  C   UNL     1       7.622   6.399  17.789  0.00  0.00    +0.000 C 
ATOM     17  C   UNL     1       7.657   7.878  17.527  0.00  0.00    +0.000 C 
ENDBRANCH  14  15
ENDBRANCH  13  14
ENDBRANCH  12  13
ENDBRANCH   6  12
BRANCH   7  18
ATOM     18  C   UNL     1       2.298   7.081  20.313  0.00  0.00    +0.000 C 
BRANCH  18  19
ATOM     19  C   UNL     1       1.570   8.348  20.016  0.00  0.00    +0.000 A 
ATOM     20  C   UNL     1       1.552   9.035  18.772  0.00  0.00    +0.000 A 
ATOM     21  N   UNL     1       0.741  10.089  18.778  0.00  0.00    +0.000 NA
ATOM     22  N   UNL     1       0.219  10.079  20.018  0.00  0.00    +0.000 N 
ATOM     23  C   UNL     1      -0.792  11.041  20.385  0.00  0.00    +0.000 C 
ATOM     24  C   UNL     1       0.698   9.073  20.802  0.00  0.00    +0.000 A 
ENDBRANCH  18  19
ENDBRANCH   7  18
TORSDOF 7
ENDMDL
MODEL 3
REMARK VINA RESULT:      -5.9      2.192      6.526
REMARK  Name = 
REMARK  9 active torsions:
REMARK  status: ('A' for Active; 'I' for Inactive)
REMARK    1  A    between atoms: C_1  and  C_2
REMARK    2  A    between atoms: C_2  and  N_3
REMARK    3  A    between atoms: C_8  and  C_9
REMARK    4  A    between atoms: C_9  and  O_10
REMARK    5  A    between atoms: O_10  and  C_11
REMARK    6  A    between atoms: C_11  and  C_12
REMARK    7  A    between atoms: N_15  and  C_16
REMARK    8  A    between atoms: C_16  and  C_17
REMARK    9  A    between atoms: N_20  and  C_21
REMARK                            x       y       z     vdW  Elec       q    Type
REMARK                         _______ _______ _______ _____ _____    ______ ____
ROOT
ATOM      1  N   UNL     1       3.603   3.359  17.345  0.00  0.00    +0.000 N 
ATOM      2  N   UNL     1       3.598   2.010  17.461  0.00  0.00    +0.000 NA
ATOM      3  C   UNL     1       2.735   1.765  18.439  0.00  0.00    +0.000 A 
ATOM      4  C   UNL     1       2.237   2.945  18.994  0.00  0.00    +0.000 A 
ATOM      5  C   UNL     1       2.863   3.980  18.334  0.00  0.00    +0.000 A 
ATOM      6  C   UNL     1       2.672   5.461  18.627  0.00  0.00    +0.000 C 
ATOM      7  N   UNL     1       1.777   5.697  19.823  0.00  0.00    +0.000 NA
ATOM      8  C   UNL     1       1.042   4.586  20.452  0.00  0.00    +0.000 C 
ATOM      9  C   UNL     1       1.263   3.116  20.074  0.00  0.00    +0.000 C 
ENDROOT
BRANCH   1  11
ATOM     10  C   UNL     1       5.778   3.263  16.062  0.00  0.00    +0.000 C 
ATOM     11  C   UNL     1       4.421   3.921  16.286  0.00  0.00    +0.000 C 
ENDBRANCH   1  11
BRANCH   6  12
ATOM     12  C   UNL     1       4.048   6.213  18.726  0.00  0.00    +0.000 C 
BRANCH  12  13
ATOM     13  O   UNL     1       4.989   5.526  19.541  0.00  0.00    +0.000 OA
BRANCH  13  14
ATOM     14  C   UNL     1       6.304   5.534  18.998  0.00  0.00    +0.000 C 
BRANCH  14  15
ATOM     15  C   UNL     1       6.340   6.562  17.911  0.00  0.00    +0.000 C 
ATOM     16  C   UNL     1       7.539   7.464  17.751  0.00  0.00    +0.000 C 
ATOM     17  C   UNL     1       7.259   6.399  16.730  0.00  0.00    +0.000 C 
ENDBRANCH  14  15
ENDBRANCH  13  14
ENDBRANCH  12  13
ENDBRANCH   6  12
BRANCH   7  18
ATOM     18  C   UNL     1       2.228   6.737  20.758  0.00  0.00    +0.000 C 
BRANCH  18  19
ATOM     19  C   UNL     1       1.548   8.060  20.659  0.00  0.00    +0.000 A 
ATOM     20  C   UNL     1       1.026   8.820  21.740  0.00  0.00    +0.000 A 
ATOM     21  N   UNL     1       0.558  10.005  21.358  0.00  0.00    +0.000 NA
ATOM     22  N   UNL     1       0.791  10.023  20.033  0.00  0.00    +0.000 N 
ATOM     23  C   UNL     1       0.492  11.207  19.263  0.00  0.00    +0.000 C 
ATOM     24  C   UNL     1       1.361   8.879  19.564  0.00  0.00    +0.000 A 
ENDBRANCH  18  19
ENDBRANCH   7  18
TORSDOF 7
ENDMDL
MODEL 4
REMARK VINA RESULT:      -5.8      2.259      6.812
REMARK  Name = 
REMARK  9 active torsions:
REMARK  status: ('A' for Active; 'I' for Inactive)
REMARK    1  A    between atoms: C_1  and  C_2
REMARK    2  A    between atoms: C_2  and  N_3
REMARK    3  A    between atoms: C_8  and  C_9
REMARK    4  A    between atoms: C_9  and  O_10
REMARK    5  A    between atoms: O_10  and  C_11
REMARK    6  A    between atoms: C_11  and  C_12
REMARK    7  A    between atoms: N_15  and  C_16
REMARK    8  A    between atoms: C_16  and  C_17
REMARK    9  A    between atoms: N_20  and  C_21
REMARK                            x       y       z     vdW  Elec       q    Type
REMARK                         _______ _______ _______ _____ _____    ______ ____
ROOT
ATOM      1  N   UNL     1       3.727   3.619  17.707  0.00  0.00    +0.000 N 
ATOM      2  N   UNL     1       4.137   2.472  18.298  0.00  0.00    +0.000 NA
ATOM      3  C   UNL     1       3.635   2.532  19.524  0.00  0.00    +0.000 A 
ATOM      4  C   UNL     1       2.963   3.735  19.748  0.00  0.00    +0.000 A 
ATOM      5  C   UNL     1       3.093   4.473  18.591  0.00  0.00    +0.000 A 
ATOM      6  C   UNL     1       2.558   5.882  18.375  0.00  0.00    +0.000 C 
ATOM      7  N   UNL     1       1.939   6.457  19.629  0.00  0.00    +0.000 NA
ATOM      8  C   UNL     1       1.724   5.621  20.822  0.00  0.00    +0.000 C 
ATOM      9  C   UNL     1       2.263   4.190  20.950  0.00  0.00    +0.000 C 
ENDROOT
BRANCH   1  11
ATOM     10  C   UNL     1       5.552   3.634  15.960  0.00  0.00    +0.000 C 
ATOM     11  C   UNL     1       4.077   3.797  16.311  0.00  0.00    +0.000 C 
ENDBRANCH   1  11
BRANCH   6  12
ATOM     12  C   UNL     1       3.643   6.819  17.734  0.00  0.00    +0.000 C 
BRANCH  12  13
ATOM     13  O   UNL     1       4.970   6.399  18.023  0.00  0.00    +0.000 OA
BRANCH  13  14
ATOM     14  C   UNL     1       5.942   7.007  17.180  0.00  0.00    +0.000 C 
BRANCH  14  15
ATOM     15  C   UNL     1       7.283   6.472  17.573  0.00  0.00    +0.000 C 
ATOM     16  C   UNL     1       8.200   7.281  18.459  0.00  0.00    +0.000 C 
ATOM     17  C   UNL     1       7.551   6.035  18.988  0.00  0.00    +0.000 C 
ENDBRANCH  14  15
ENDBRANCH  13  14
ENDBRANCH  12  13
ENDBRANCH   6  12
BRANCH   7  18
ATOM     18  C   UNL     1       2.279   7.857  19.919  0.00  0.00    +0.000 C 
BRANCH  18  19
ATOM     19  C   UNL     1       1.142   8.760  20.260  0.00  0.00    +0.000 A 
ATOM     20  C   UNL     1       0.549   8.919  21.542  0.00  0.00    +0.000 A 
ATOM     21  N   UNL     1      -0.387   9.863  21.563  0.00  0.00    +0.000 NA
ATOM     22  N   UNL     1      -0.392  10.330  20.302  0.00  0.00    +0.000 N 
ATOM     23  C   UNL     1      -1.235  11.446  19.947  0.00  0.00    +0.000 C 
ATOM     24  C   UNL     1       0.487   9.691  19.480  0.00  0.00    +0.000 A 
ENDBRANCH  18  19
ENDBRANCH   7  18
TORSDOF 7
ENDMDL
MODEL 5
REMARK VINA RESULT:      -5.8      1.929      5.977
REMARK  Name = 
REMARK  9 active torsions:
REMARK  status: ('A' for Active; 'I' for Inactive)
REMARK    1  A    between atoms: C_1  and  C_2
REMARK    2  A    between atoms: C_2  and  N_3
REMARK    3  A    between atoms: C_8  and  C_9
REMARK    4  A    between atoms: C_9  and  O_10
REMARK    5  A    between atoms: O_10  and  C_11
REMARK    6  A    between atoms: C_11  and  C_12
REMARK    7  A    between atoms: N_15  and  C_16
REMARK    8  A    between atoms: C_16  and  C_17
REMARK    9  A    between atoms: N_20  and  C_21
REMARK                            x       y       z     vdW  Elec       q    Type
REMARK                         _______ _______ _______ _____ _____    ______ ____
ROOT
ATOM      1  N   UNL     1       4.436   3.274  17.135  0.00  0.00    +0.000 N 
ATOM      2  N   UNL     1       5.350   2.979  16.181  0.00  0.00    +0.000 NA
ATOM      3  C   UNL     1       5.834   4.156  15.809  0.00  0.00    +0.000 A 
ATOM      4  C   UNL     1       5.194   5.208  16.468  0.00  0.00    +0.000 A 
ATOM      5  C   UNL     1       4.232   4.635  17.270  0.00  0.00    +0.000 A 
ATOM      6  C   UNL     1       3.247   5.393  18.150  0.00  0.00    +0.000 C 
ATOM      7  N   UNL     1       3.360   6.891  17.975  0.00  0.00    +0.000 NA
ATOM      8  C   UNL     1       4.455   7.484  17.189  0.00  0.00    +0.000 C 
ATOM      9  C   UNL     1       5.435   6.648  16.356  0.00  0.00    +0.000 C 
ENDROOT
BRANCH   1  11
ATOM     10  C   UNL     1       4.295   1.786  19.172  0.00  0.00    +0.000 C 
ATOM     11  C   UNL     1       3.782   2.154  17.784  0.00  0.00    +0.000 C 
ENDBRANCH   1  11
BRANCH   6  12
ATOM     12  C   UNL     1       1.782   4.857  17.971  0.00  0.00    +0.000 C 
BRANCH  12  13
ATOM     13  O   UNL     1       1.108   4.681  19.211  0.00  0.00    +0.000 OA
BRANCH  13  14
ATOM     14  C   UNL     1       0.928   3.311  19.554  0.00  0.00    +0.000 C 
BRANCH  14  15
ATOM     15  C   UNL     1       1.058   3.195  21.041  0.00  0.00    +0.000 C 
ATOM     16  C   UNL     1       2.109   2.297  21.648  0.00  0.00    +0.000 C 
ATOM     17  C   UNL     1       2.241   3.790  21.756  0.00  0.00    +0.000 C 
ENDBRANCH  14  15
ENDBRANCH  13  14
ENDBRANCH  12  13
ENDBRANCH   6  12
BRANCH   7  18
ATOM     18  C   UNL     1       2.085   7.617  17.888  0.00  0.00    +0.000 C 
BRANCH  18  19
ATOM     19  C   UNL     1       1.700   8.429  19.077  0.00  0.00    +0.000 A 
ATOM     20  C   UNL     1       1.159   9.743  19.059  0.00  0.00    +0.000 A 
ATOM     21  N   UNL     1       0.826  10.180  20.270  0.00  0.00    +0.000 NA
ATOM     22  N   UNL     1       1.133   9.145  21.074  0.00  0.00    +0.000 N 
ATOM     23  C   UNL     1       0.828   9.208  22.483  0.00  0.00    +0.000 C 
ATOM     24  C   UNL     1       1.677   8.085  20.414  0.00  0.00    +0.000 A 
ENDBRANCH  18  19
ENDBRANCH   7  18
TORSDOF 7
ENDMDL
MODEL 6
REMARK VINA RESULT:      -5.8      2.625      5.510
REMARK  Name = 
REMARK  9 active torsions:
REMARK  status: ('A' for Active; 'I' for Inactive)
REMARK    1  A    between atoms: C_1  and  C_2
REMARK    2  A    between atoms: C_2  and  N_3
REMARK    3  A    between atoms: C_8  and  C_9
REMARK    4  A    between atoms: C_9  and  O_10
REMARK    5  A    between atoms: O_10  and  C_11
REMARK    6  A    between atoms: C_11  and  C_12
REMARK    7  A    between atoms: N_15  and  C_16
REMARK    8  A    between atoms: C_16  and  C_17
REMARK    9  A    between atoms: N_20  and  C_21
REMARK                            x       y       z     vdW  Elec       q    Type
REMARK                         _______ _______ _______ _____ _____    ______ ____
ROOT
ATOM      1  N   UNL     1       3.853   2.302  20.916  0.00  0.00    +0.000 N 
ATOM      2  N   UNL     1       2.978   1.925  21.877  0.00  0.00    +0.000 NA
ATOM      3  C   UNL     1       1.808   2.394  21.462  0.00  0.00    +0.000 A 
ATOM      4  C   UNL     1       1.936   3.123  20.279  0.00  0.00    +0.000 A 
ATOM      5  C   UNL     1       3.278   3.129  19.969  0.00  0.00    +0.000 A 
ATOM      6  C   UNL     1       3.910   3.842  18.781  0.00  0.00    +0.000 C 
ATOM      7  N   UNL     1       2.902   4.659  18.004  0.00  0.00    +0.000 NA
ATOM      8  C   UNL     1       1.461   4.563  18.292  0.00  0.00    +0.000 C 
ATOM      9  C   UNL     1       0.897   3.791  19.491  0.00  0.00    +0.000 C 
ENDROOT
BRANCH   1  11
ATOM     10  C   UNL     1       5.472   0.362  20.921  0.00  0.00    +0.000 C 
ATOM     11  C   UNL     1       5.226   1.859  21.072  0.00  0.00    +0.000 C 
ENDBRANCH   1  11
BRANCH   6  12
ATOM     12  C   UNL     1       5.177   4.664  19.209  0.00  0.00    +0.000 C 
BRANCH  12  13
ATOM     13  O   UNL     1       6.388   4.087  18.738  0.00  0.00    +0.000 OA
BRANCH  13  14
ATOM     14  C   UNL     1       7.042   4.888  17.760  0.00  0.00    +0.000 C 
BRANCH  14  15
ATOM     15  C   UNL     1       6.931   6.316  18.195  0.00  0.00    +0.000 C 
ATOM     16  C   UNL     1       8.162   7.091  18.598  0.00  0.00    +0.000 C 
ATOM     17  C   UNL     1       7.447   7.427  17.321  0.00  0.00    +0.000 C 
ENDBRANCH  14  15
ENDBRANCH  13  14
ENDBRANCH  12  13
ENDBRANCH   6  12
BRANCH   7  18
ATOM     18  C   UNL     1       3.354   5.996  17.590  0.00  0.00    +0.000 C 
BRANCH  18  19
ATOM     19  C   UNL     1       2.645   7.156  18.203  0.00  0.00    +0.000 A 
ATOM     20  C   UNL     1       2.302   7.302  19.574  0.00  0.00    +0.000 A 
ATOM     21  N   UNL     1       1.756   8.485  19.845  0.00  0.00    +0.000 NA
ATOM     22  N   UNL     1       1.761   9.113  18.655  0.00  0.00    +0.000 N 
ATOM     23  C   UNL     1       1.316  10.483  18.560  0.00  0.00    +0.000 C 
ATOM     24  C   UNL     1       2.261   8.356  17.640  0.00  0.00    +0.000 A 
ENDBRANCH  18  19
ENDBRANCH   7  18
TORSDOF 7
ENDMDL
MODEL 7
REMARK VINA RESULT:      -5.8      2.557      5.659
REMARK  Name = 
REMARK  9 active torsions:
REMARK  status: ('A' for Active; 'I' for Inactive)
REMARK    1  A    between atoms: C_1  and  C_2
REMARK    2  A    between atoms: C_2  and  N_3
REMARK    3  A    between atoms: C_8  and  C_9
REMARK    4  A    between atoms: C_9  and  O_10
REMARK    5  A    between atoms: O_10  and  C_11
REMARK    6  A    between atoms: C_11  and  C_12
REMARK    7  A    between atoms: N_15  and  C_16
REMARK    8  A    between atoms: C_16  and  C_17
REMARK    9  A    between atoms: N_20  and  C_21
REMARK                            x       y       z     vdW  Elec       q    Type
REMARK                         _______ _______ _______ _____ _____    ______ ____
ROOT
ATOM      1  N   UNL     1       3.872   2.265  20.895  0.00  0.00    +0.000 N 
ATOM      2  N   UNL     1       3.082   1.863  21.919  0.00  0.00    +0.000 NA
ATOM      3  C   UNL     1       1.900   2.406  21.658  0.00  0.00    +0.000 A 
ATOM      4  C   UNL     1       1.940   3.204  20.514  0.00  0.00    +0.000 A 
ATOM      5  C   UNL     1       3.243   3.174  20.065  0.00  0.00    +0.000 A 
ATOM      6  C   UNL     1       3.782   3.935  18.862  0.00  0.00    +0.000 C 
ATOM      7  N   UNL     1       2.741   4.842  18.245  0.00  0.00    +0.000 NA
ATOM      8  C   UNL     1       1.334   4.787  18.677  0.00  0.00    +0.000 C 
ATOM      9  C   UNL     1       0.860   3.962  19.881  0.00  0.00    +0.000 C 
ENDROOT
BRANCH   1  11
ATOM     10  C   UNL     1       5.552   0.661  21.890  0.00  0.00    +0.000 C 
ATOM     11  C   UNL     1       5.230   1.756  20.879  0.00  0.00    +0.000 C 
ENDBRANCH   1  11
BRANCH   6  12
ATOM     12  C   UNL     1       5.125   4.675  19.202  0.00  0.00    +0.000 C 
BRANCH  12  13
ATOM     13  O   UNL     1       6.225   4.190  18.443  0.00  0.00    +0.000 OA
BRANCH  13  14
ATOM     14  C   UNL     1       6.390   4.874  17.206  0.00  0.00    +0.000 C 
BRANCH  14  15
ATOM     15  C   UNL     1       7.578   5.773  17.339  0.00  0.00    +0.000 C 
ATOM     16  C   UNL     1       7.398   7.268  17.447  0.00  0.00    +0.000 C 
ATOM     17  C   UNL     1       7.866   6.479  18.636  0.00  0.00    +0.000 C 
ENDBRANCH  14  15
ENDBRANCH  13  14
ENDBRANCH  12  13
ENDBRANCH   6  12
BRANCH   7  18
ATOM     18  C   UNL     1       3.211   6.182  17.867  0.00  0.00    +0.000 C 
BRANCH  18  19
ATOM     19  C   UNL     1       2.527   7.335  18.520  0.00  0.00    +0.000 A 
ATOM     20  C   UNL     1       1.991   8.476  17.865  0.00  0.00    +0.000 A 
ATOM     21  N   UNL     1       1.357   9.297  18.696  0.00  0.00    +0.000 NA
ATOM     22  N   UNL     1       1.465   8.683  19.889  0.00  0.00    +0.000 N 
ATOM     23  C   UNL     1       0.813   9.239  21.050  0.00  0.00    +0.000 C 
ATOM     24  C   UNL     1       2.172   7.520  19.841  0.00  0.00    +0.000 A 
ENDBRANCH  18  19
ENDBRANCH   7  18
TORSDOF 7
ENDMDL
MODEL 8
REMARK VINA RESULT:      -5.7      6.311     10.991
REMARK  Name = 
REMARK  9 active torsions:
REMARK  status: ('A' for Active; 'I' for Inactive)
REMARK    1  A    between atoms: C_1  and  C_2
REMARK    2  A    between atoms: C_2  and  N_3
REMARK    3  A    between atoms: C_8  and  C_9
REMARK    4  A    between atoms: C_9  and  O_10
REMARK    5  A    between atoms: O_10  and  C_11
REMARK    6  A    between atoms: C_11  and  C_12
REMARK    7  A    between atoms: N_15  and  C_16
REMARK    8  A    between atoms: C_16  and  C_17
REMARK    9  A    between atoms: N_20  and  C_21
REMARK                            x       y       z     vdW  Elec       q    Type
REMARK                         _______ _______ _______ _____ _____    ______ ____
ROOT
ATOM      1  N   UNL     1       0.861   9.340  19.809  0.00  0.00    +0.000 N 
ATOM      2  N   UNL     1       1.664   8.404  20.367  0.00  0.00    +0.000 NA
ATOM      3  C   UNL     1       1.326   8.399  21.650  0.00  0.00    +0.000 A 
ATOM      4  C   UNL     1       0.361   9.367  21.933  0.00  0.00    +0.000 A 
ATOM      5  C   UNL     1       0.119  10.030  20.750  0.00  0.00    +0.000 A 
ATOM      6  C   UNL     1      -0.833  11.205  20.572  0.00  0.00    +0.000 C 
ATOM      7  N   UNL     1      -1.432  11.659  21.885  0.00  0.00    +0.000 NA
ATOM      8  C   UNL     1      -1.236  10.879  23.119  0.00  0.00    +0.000 C 
ATOM      9  C   UNL     1      -0.285   9.679  23.209  0.00  0.00    +0.000 C 
ENDROOT
BRANCH   1  11
ATOM     10  C   UNL     1       2.117   8.796  17.686  0.00  0.00    +0.000 C 
ATOM     11  C   UNL     1       0.963   9.517  18.373  0.00  0.00    +0.000 C 
ENDBRANCH   1  11
BRANCH   6  12
ATOM     12  C   UNL     1      -0.167  12.372  19.760  0.00  0.00    +0.000 C 
BRANCH  12  13
ATOM     13  O   UNL     1      -0.775  12.571  18.490  0.00  0.00    +0.000 OA
BRANCH  13  14
ATOM     14  C   UNL     1      -2.084  12.019  18.409  0.00  0.00    +0.000 C 
BRANCH  14  15
ATOM     15  C   UNL     1      -2.200  11.318  17.092  0.00  0.00    +0.000 C 
ATOM     16  C   UNL     1      -2.487   9.837  17.036  0.00  0.00    +0.000 C 
ATOM     17  C   UNL     1      -3.534  10.822  16.601  0.00  0.00    +0.000 C 
ENDBRANCH  14  15
ENDBRANCH  13  14
ENDBRANCH  12  13
ENDBRANCH   6  12
BRANCH   7  18
ATOM     18  C   UNL     1      -1.490  13.114  22.086  0.00  0.00    +0.000 C 
BRANCH  18  19
ATOM     19  C   UNL     1      -2.664  13.634  22.845  0.00  0.00    +0.000 A 
ATOM     20  C   UNL     1      -2.626  14.561  23.920  0.00  0.00    +0.000 A 
ATOM     21  N   UNL     1      -3.838  14.911  24.341  0.00  0.00    +0.000 NA
ATOM     22  N   UNL     1      -4.663  14.226  23.530  0.00  0.00    +0.000 N 
ATOM     23  C   UNL     1      -6.091  14.415  23.624  0.00  0.00    +0.000 C 
ATOM     24  C   UNL     1      -4.013  13.433  22.634  0.00  0.00    +0.000 A 
ENDBRANCH  18  19
ENDBRANCH   7  18
TORSDOF 7
ENDMDL
MODEL 9
REMARK VINA RESULT:      -5.7      2.136      3.060
REMARK  Name = 
REMARK  9 active torsions:
REMARK  status: ('A' for Active; 'I' for Inactive)
REMARK    1  A    between atoms: C_1  and  C_2
REMARK    2  A    between atoms: C_2  and  N_3
REMARK    3  A    between atoms: C_8  and  C_9
REMARK    4  A    between atoms: C_9  and  O_10
REMARK    5  A    between atoms: O_10  and  C_11
REMARK    6  A    between atoms: C_11  and  C_12
REMARK    7  A    between atoms: N_15  and  C_16
REMARK    8  A    between atoms: C_16  and  C_17
REMARK    9  A    between atoms: N_20  and  C_21
REMARK                            x       y       z     vdW  Elec       q    Type
REMARK                         _______ _______ _______ _____ _____    ______ ____
ROOT
ATOM      1  N   UNL     1       0.394   9.184  20.588  0.00  0.00    +0.000 N 
ATOM      2  N   UNL     1       0.288  10.530  20.495  0.00  0.00    +0.000 NA
ATOM      3  C   UNL     1       0.974  10.842  19.403  0.00  0.00    +0.000 A 
ATOM      4  C   UNL     1       1.574   9.718  18.833  0.00  0.00    +0.000 A 
ATOM      5  C   UNL     1       1.261   8.654  19.650  0.00  0.00    +0.000 A 
ATOM      6  C   UNL     1       1.733   7.220  19.456  0.00  0.00    +0.000 C 
ATOM      7  N   UNL     1       2.698   7.087  18.299  0.00  0.00    +0.000 NA
ATOM      8  C   UNL     1       2.943   8.213  17.382  0.00  0.00    +0.000 C 
ATOM      9  C   UNL     1       2.398   9.626  17.626  0.00  0.00    +0.000 C 
ENDROOT
BRANCH   1  11
ATOM     10  C   UNL     1      -0.450   9.341  22.964  0.00  0.00    +0.000 C 
ATOM     11  C   UNL     1      -0.330   8.544  21.670  0.00  0.00    +0.000 C 
ENDBRANCH   1  11
BRANCH   6  12
ATOM     12  C   UNL     1       2.282   6.606  20.793  0.00  0.00    +0.000 C 
BRANCH  12  13
ATOM     13  O   UNL     1       1.505   5.506  21.250  0.00  0.00    +0.000 OA
BRANCH  13  14
ATOM     14  C   UNL     1       2.018   4.250  20.822  0.00  0.00    +0.000 C 
BRANCH  14  15
ATOM     15  C   UNL     1       1.019   3.647  19.884  0.00  0.00    +0.000 C 
ATOM     16  C   UNL     1       1.295   3.599  18.401  0.00  0.00    +0.000 C 
ATOM     17  C   UNL     1       1.297   2.332  19.208  0.00  0.00    +0.000 C 
ENDBRANCH  14  15
ENDBRANCH  13  14
ENDBRANCH  12  13
ENDBRANCH   6  12
BRANCH   7  18
ATOM     18  C   UNL     1       3.869   6.234  18.544  0.00  0.00    +0.000 C 
BRANCH  18  19
ATOM     19  C   UNL     1       4.774   5.999  17.383  0.00  0.00    +0.000 A 
ATOM     20  C   UNL     1       6.004   6.664  17.127  0.00  0.00    +0.000 A 
ATOM     21  N   UNL     1       6.640   6.179  16.065  0.00  0.00    +0.000 NA
ATOM     22  N   UNL     1       5.835   5.189  15.640  0.00  0.00    +0.000 N 
ATOM     23  C   UNL     1       6.237   4.354  14.534  0.00  0.00    +0.000 C 
ATOM     24  C   UNL     1       4.699   5.054  16.380  0.00  0.00    +0.000 A 
ENDBRANCH  18  19
ENDBRANCH   7  18
TORSDOF 7
ENDMDL
