MODEL 1
REMARK VINA RESULT:      -9.0      0.000      0.000
REMARK  Name = 
REMARK  7 active torsions:
REMARK  status: ('A' for Active; 'I' for Inactive)
REMARK    1  A    between atoms: C_1  and  C_2
REMARK    2  A    between atoms: C_4  and  N_5
REMARK    3  A    between atoms: N_5  and  C_6
REMARK    4  A    between atoms: C_15  and  S_16
REMARK    5  A    between atoms: S_16  and  C_17
REMARK    6  A    between atoms: C_17  and  C_18
REMARK    7  A    between atoms: C_18  and  C_20
REMARK                            x       y       z     vdW  Elec       q    Type
REMARK                         _______ _______ _______ _____ _____    ______ ____
ROOT
ATOM      1  C   UNL     1       0.575   2.091  18.918  0.00  0.00    +0.000 C 
ATOM      2  C   UNL     1       1.704   3.075  19.108  0.00  0.00    +0.000 A 
ATOM      3  C   UNL     1       1.392   4.314  19.880  0.00  0.00    +0.000 A 
ATOM      4  C   UNL     1       2.402   5.179  20.089  0.00  0.00    +0.000 A 
ATOM      5  N   UNL     1       3.668   4.850  19.560  0.00  0.00    +0.000 N 
ATOM      6  N   UNL     1       4.829   5.542  19.647  0.00  0.00    +0.000 NA
ATOM      7  C   UNL     1       5.639   4.819  18.875  0.00  0.00    +0.000 A 
ATOM      8  N   UNL     1       5.109   3.668  18.371  0.00  0.00    +0.000 NA
ATOM      9  C   UNL     1       3.867   3.689  18.803  0.00  0.00    +0.000 A 
ATOM     10  N   UNL     1       2.865   2.786  18.594  0.00  0.00    +0.000 NA
ENDROOT
BRANCH   4  11
ATOM     11  N   UNL     1       2.264   6.377  20.796  0.00  0.00    +0.000 N 
ATOM     12  H   UNL     1       3.091   6.551  21.379  0.00  0.00    +0.000 HD
BRANCH  11  13
ATOM     13  C   UNL     1       1.870   7.586  20.164  0.00  0.00    +0.000 A 
ATOM     14  C   UNL     1       2.233   7.803  18.827  0.00  0.00    +0.000 A 
ATOM     15  C   UNL     1       1.860   8.981  18.171  0.00  0.00    +0.000 A 
ATOM     16  C   UNL     1       1.094   9.927  18.841  0.00  0.00    +0.000 A 
ATOM     17  F   UNL     1       0.750  11.062  18.219  0.00  0.00    +0.000 F 
ATOM     18  C   UNL     1       0.675   9.709  20.146  0.00  0.00    +0.000 A 
ATOM     19  C   UNL     1       1.053   8.534  20.801  0.00  0.00    +0.000 A 
ENDBRANCH  11  13
ENDBRANCH   4  11
BRANCH   7  20
ATOM     20  S   UNL     1       7.292   5.308  18.612  0.00  0.00    +0.000 S 
BRANCH  20  21
ATOM     21  C   UNL     1       7.581   4.720  16.918  0.00  0.00    +0.000 C 
BRANCH  21  22
ATOM     22  C   UNL     1       6.799   5.499  15.871  0.00  0.00    +0.000 C 
ATOM     23  O   UNL     1       6.278   6.596  16.064  0.00  0.00    +0.000 OA
BRANCH  22  24
ATOM     24  C   UNL     1       6.640   4.884  14.520  0.00  0.00    +0.000 A 
ATOM     25  C   UNL     1       7.624   5.148  13.558  0.00  0.00    +0.000 A 
ATOM     26  C   UNL     1       7.540   4.577  12.286  0.00  0.00    +0.000 A 
ATOM     27  C   UNL     1       6.479   3.731  11.974  0.00  0.00    +0.000 A 
ATOM     28  C   UNL     1       5.500   3.455  12.929  0.00  0.00    +0.000 A 
ATOM     29  C   UNL     1       5.575   4.032  14.202  0.00  0.00    +0.000 A 
ENDBRANCH  22  24
ENDBRANCH  21  22
ENDBRANCH  20  21
ENDBRANCH   7  20
TORSDOF 6
ENDMDL
MODEL 2
REMARK VINA RESULT:      -8.9      0.189      1.304
REMARK  Name = 
REMARK  7 active torsions:
REMARK  status: ('A' for Active; 'I' for Inactive)
REMARK    1  A    between atoms: C_1  and  C_2
REMARK    2  A    between atoms: C_4  and  N_5
REMARK    3  A    between atoms: N_5  and  C_6
REMARK    4  A    between atoms: C_15  and  S_16
REMARK    5  A    between atoms: S_16  and  C_17
REMARK    6  A    between atoms: C_17  and  C_18
REMARK    7  A    between atoms: C_18  and  C_20
REMARK                            x       y       z     vdW  Elec       q    Type
REMARK                         _______ _______ _______ _____ _____    ______ ____
ROOT
ATOM      1  C   UNL     1       0.702   1.972  19.157  0.00  0.00    +0.000 C 
ATOM      2  C   UNL     1       1.804   2.994  19.298  0.00  0.00    +0.000 A 
ATOM      3  C   UNL     1       1.448   4.278  19.970  0.00  0.00    +0.000 A 
ATOM      4  C   UNL     1       2.434   5.180  20.135  0.00  0.00    +0.000 A 
ATOM      5  N   UNL     1       3.718   4.843  19.658  0.00  0.00    +0.000 N 
ATOM      6  N   UNL     1       4.861   5.567  19.718  0.00  0.00    +0.000 NA
ATOM      7  C   UNL     1       5.704   4.809  19.017  0.00  0.00    +0.000 A 
ATOM      8  N   UNL     1       5.211   3.613  18.589  0.00  0.00    +0.000 NA
ATOM      9  C   UNL     1       3.959   3.636  18.993  0.00  0.00    +0.000 A 
ATOM     10  N   UNL     1       2.983   2.696  18.830  0.00  0.00    +0.000 NA
ENDROOT
BRANCH   4  11
ATOM     11  N   UNL     1       2.253   6.422  20.750  0.00  0.00    +0.000 N 
ATOM     12  H   UNL     1       3.044   6.638  21.369  0.00  0.00    +0.000 HD
BRANCH  11  13
ATOM     13  C   UNL     1       1.900   7.585  20.014  0.00  0.00    +0.000 A 
ATOM     14  C   UNL     1       1.167   8.595  20.653  0.00  0.00    +0.000 A 
ATOM     15  C   UNL     1       0.805   9.757  19.961  0.00  0.00    +0.000 A 
ATOM     16  C   UNL     1       1.206   9.922  18.641  0.00  0.00    +0.000 A 
ATOM     17  F   UNL     1       0.846  11.026  17.972  0.00  0.00    +0.000 F 
ATOM     18  C   UNL     1       1.980   8.961  18.006  0.00  0.00    +0.000 A 
ATOM     19  C   UNL     1       2.336   7.800  18.697  0.00  0.00    +0.000 A 
ENDBRANCH  11  13
ENDBRANCH   4  11
BRANCH   7  20
ATOM     20  S   UNL     1       7.351   5.317  18.753  0.00  0.00    +0.000 S 
BRANCH  20  21
ATOM     21  C   UNL     1       7.651   4.717  17.065  0.00  0.00    +0.000 C 
BRANCH  21  22
ATOM     22  C   UNL     1       6.884   5.495  16.007  0.00  0.00    +0.000 C 
ATOM     23  O   UNL     1       6.358   6.591  16.192  0.00  0.00    +0.000 OA
BRANCH  22  24
ATOM     24  C   UNL     1       6.747   4.880  14.654  0.00  0.00    +0.000 A 
ATOM     25  C   UNL     1       5.648   4.042  14.422  0.00  0.00    +0.000 A 
ATOM     26  C   UNL     1       5.455   3.461  13.166  0.00  0.00    +0.000 A 
ATOM     27  C   UNL     1       6.351   3.725  12.133  0.00  0.00    +0.000 A 
ATOM     28  C   UNL     1       7.441   4.567  12.353  0.00  0.00    +0.000 A 
ATOM     29  C   UNL     1       7.645   5.143  13.612  0.00  0.00    +0.000 A 
ENDBRANCH  22  24
ENDBRANCH  21  22
ENDBRANCH  20  21
ENDBRANCH   7  20
TORSDOF 6
ENDMDL
MODEL 3
REMARK VINA RESULT:      -8.4      3.385      7.502
REMARK  Name = 
REMARK  7 active torsions:
REMARK  status: ('A' for Active; 'I' for Inactive)
REMARK    1  A    between atoms: C_1  and  C_2
REMARK    2  A    between atoms: C_4  and  N_5
REMARK    3  A    between atoms: N_5  and  C_6
REMARK    4  A    between atoms: C_15  and  S_16
REMARK    5  A    between atoms: S_16  and  C_17
REMARK    6  A    between atoms: C_17  and  C_18
REMARK    7  A    between atoms: C_18  and  C_20
REMARK                            x       y       z     vdW  Elec       q    Type
REMARK                         _______ _______ _______ _____ _____    ______ ____
ROOT
ATOM      1  C   UNL     1       8.344   6.827  19.019  0.00  0.00    +0.000 C 
ATOM      2  C   UNL     1       7.223   5.977  18.474  0.00  0.00    +0.000 A 
ATOM      3  C   UNL     1       6.790   6.254  17.072  0.00  0.00    +0.000 A 
ATOM      4  C   UNL     1       5.818   5.475  16.562  0.00  0.00    +0.000 A 
ATOM      5  N   UNL     1       5.282   4.467  17.393  0.00  0.00    +0.000 N 
ATOM      6  N   UNL     1       4.318   3.559  17.109  0.00  0.00    +0.000 NA
ATOM      7  C   UNL     1       4.150   2.960  18.286  0.00  0.00    +0.000 A 
ATOM      8  N   UNL     1       4.995   3.354  19.280  0.00  0.00    +0.000 NA
ATOM      9  C   UNL     1       5.708   4.305  18.716  0.00  0.00    +0.000 A 
ATOM     10  N   UNL     1       6.707   5.067  19.250  0.00  0.00    +0.000 NA
ENDROOT
BRANCH   4  11
ATOM     11  N   UNL     1       5.315   5.611  15.266  0.00  0.00    +0.000 N 
ATOM     12  H   UNL     1       5.233   6.603  15.012  0.00  0.00    +0.000 HD
BRANCH  11  13
ATOM     13  C   UNL     1       5.851   4.887  14.167  0.00  0.00    +0.000 A 
ATOM     14  C   UNL     1       7.168   5.144  13.762  0.00  0.00    +0.000 A 
ATOM     15  C   UNL     1       7.730   4.447  12.687  0.00  0.00    +0.000 A 
ATOM     16  C   UNL     1       6.987   3.468  12.040  0.00  0.00    +0.000 A 
ATOM     17  F   UNL     1       7.517   2.811  11.000  0.00  0.00    +0.000 F 
ATOM     18  C   UNL     1       5.701   3.157  12.459  0.00  0.00    +0.000 A 
ATOM     19  C   UNL     1       5.139   3.858  13.529  0.00  0.00    +0.000 A 
ENDBRANCH  11  13
ENDBRANCH   4  11
BRANCH   7  20
ATOM     20  S   UNL     1       2.963   1.698  18.483  0.00  0.00    +0.000 S 
BRANCH  20  21
ATOM     21  C   UNL     1       1.429   2.659  18.621  0.00  0.00    +0.000 C 
BRANCH  21  22
ATOM     22  C   UNL     1       1.427   3.620  19.799  0.00  0.00    +0.000 C 
ATOM     23  O   UNL     1       1.205   3.295  20.964  0.00  0.00    +0.000 OA
BRANCH  22  24
ATOM     24  C   UNL     1       1.699   5.062  19.523  0.00  0.00    +0.000 A 
ATOM     25  C   UNL     1       1.660   5.956  20.601  0.00  0.00    +0.000 A 
ATOM     26  C   UNL     1       1.933   7.312  20.405  0.00  0.00    +0.000 A 
ATOM     27  C   UNL     1       2.258   7.778  19.133  0.00  0.00    +0.000 A 
ATOM     28  C   UNL     1       2.308   6.892  18.056  0.00  0.00    +0.000 A 
ATOM     29  C   UNL     1       2.026   5.535  18.246  0.00  0.00    +0.000 A 
ENDBRANCH  22  24
ENDBRANCH  21  22
ENDBRANCH  20  21
ENDBRANCH   7  20
TORSDOF 6
ENDMDL
MODEL 4
REMARK VINA RESULT:      -8.3      3.444      7.568
REMARK  Name = 
REMARK  7 active torsions:
REMARK  status: ('A' for Active; 'I' for Inactive)
REMARK    1  A    between atoms: C_1  and  C_2
REMARK    2  A    between atoms: C_4  and  N_5
REMARK    3  A    between atoms: N_5  and  C_6
REMARK    4  A    between atoms: C_15  and  S_16
REMARK    5  A    between atoms: S_16  and  C_17
REMARK    6  A    between atoms: C_17  and  C_18
REMARK    7  A    between atoms: C_18  and  C_20
REMARK                            x       y       z     vdW  Elec       q    Type
REMARK                         _______ _______ _______ _____ _____    ______ ____
ROOT
ATOM      1  C   UNL     1       8.358   7.209  18.962  0.00  0.00    +0.000 C 
ATOM      2  C   UNL     1       7.316   6.269  18.409  0.00  0.00    +0.000 A 
ATOM      3  C   UNL     1       6.882   6.501  16.999  0.00  0.00    +0.000 A 
ATOM      4  C   UNL     1       5.982   5.643  16.483  0.00  0.00    +0.000 A 
ATOM      5  N   UNL     1       5.519   4.600  17.314  0.00  0.00    +0.000 N 
ATOM      6  N   UNL     1       4.635   3.616  17.024  0.00  0.00    +0.000 NA
ATOM      7  C   UNL     1       4.500   3.012  18.203  0.00  0.00    +0.000 A 
ATOM      8  N   UNL     1       5.297   3.479  19.205  0.00  0.00    +0.000 NA
ATOM      9  C   UNL     1       5.938   4.481  18.643  0.00  0.00    +0.000 A 
ATOM     10  N   UNL     1       6.865   5.324  19.184  0.00  0.00    +0.000 NA
ENDROOT
BRANCH   4  11
ATOM     11  N   UNL     1       5.487   5.730  15.179  0.00  0.00    +0.000 N 
ATOM     12  H   UNL     1       5.404   6.712  14.889  0.00  0.00    +0.000 HD
BRANCH  11  13
ATOM     13  C   UNL     1       6.032   4.968  14.111  0.00  0.00    +0.000 A 
ATOM     14  C   UNL     1       5.261   3.943  13.546  0.00  0.00    +0.000 A 
ATOM     15  C   UNL     1       5.763   3.175  12.490  0.00  0.00    +0.000 A 
ATOM     16  C   UNL     1       7.024   3.455  11.976  0.00  0.00    +0.000 A 
ATOM     17  F   UNL     1       7.513   2.709  10.977  0.00  0.00    +0.000 F 
ATOM     18  C   UNL     1       7.782   4.500  12.482  0.00  0.00    +0.000 A 
ATOM     19  C   UNL     1       7.281   5.263  13.541  0.00  0.00    +0.000 A 
ENDBRANCH  11  13
ENDBRANCH   4  11
BRANCH   7  20
ATOM     20  S   UNL     1       3.416   1.659  18.394  0.00  0.00    +0.000 S 
BRANCH  20  21
ATOM     21  C   UNL     1       2.400   2.200  19.798  0.00  0.00    +0.000 C 
BRANCH  21  22
ATOM     22  C   UNL     1       1.290   3.161  19.400  0.00  0.00    +0.000 C 
ATOM     23  O   UNL     1       0.151   2.819  19.088  0.00  0.00    +0.000 OA
BRANCH  22  24
ATOM     24  C   UNL     1       1.608   4.619  19.370  0.00  0.00    +0.000 A 
ATOM     25  C   UNL     1       1.555   5.328  20.577  0.00  0.00    +0.000 A 
ATOM     26  C   UNL     1       1.869   6.689  20.613  0.00  0.00    +0.000 A 
ATOM     27  C   UNL     1       2.250   7.344  19.444  0.00  0.00    +0.000 A 
ATOM     28  C   UNL     1       2.315   6.643  18.240  0.00  0.00    +0.000 A 
ATOM     29  C   UNL     1       1.992   5.282  18.197  0.00  0.00    +0.000 A 
ENDBRANCH  22  24
ENDBRANCH  21  22
ENDBRANCH  20  21
ENDBRANCH   7  20
TORSDOF 6
ENDMDL
MODEL 5
REMARK VINA RESULT:      -8.3      3.910      6.238
REMARK  Name = 
REMARK  7 active torsions:
REMARK  status: ('A' for Active; 'I' for Inactive)
REMARK    1  A    between atoms: C_1  and  C_2
REMARK    2  A    between atoms: C_4  and  N_5
REMARK    3  A    between atoms: N_5  and  C_6
REMARK    4  A    between atoms: C_15  and  S_16
REMARK    5  A    between atoms: S_16  and  C_17
REMARK    6  A    between atoms: C_17  and  C_18
REMARK    7  A    between atoms: C_18  and  C_20
REMARK                            x       y       z     vdW  Elec       q    Type
REMARK                         _______ _______ _______ _____ _____    ______ ____
ROOT
ATOM      1  C   UNL     1      -0.412   9.909  23.193  0.00  0.00    +0.000 C 
ATOM      2  C   UNL     1       0.141   9.546  21.837  0.00  0.00    +0.000 A 
ATOM      3  C   UNL     1      -0.344  10.349  20.675  0.00  0.00    +0.000 A 
ATOM      4  C   UNL     1       0.174  10.059  19.467  0.00  0.00    +0.000 A 
ATOM      5  N   UNL     1       1.125   9.019  19.393  0.00  0.00    +0.000 N 
ATOM      6  N   UNL     1       1.790   8.555  18.309  0.00  0.00    +0.000 NA
ATOM      7  C   UNL     1       2.449   7.514  18.816  0.00  0.00    +0.000 A 
ATOM      8  N   UNL     1       2.326   7.329  20.160  0.00  0.00    +0.000 NA
ATOM      9  C   UNL     1       1.490   8.278  20.523  0.00  0.00    +0.000 A 
ATOM     10  N   UNL     1       0.996   8.566  21.763  0.00  0.00    +0.000 NA
ENDROOT
BRANCH   4  11
ATOM     11  N   UNL     1      -0.179  10.728  18.292  0.00  0.00    +0.000 N 
ATOM     12  H   UNL     1       0.385  10.393  17.502  0.00  0.00    +0.000 HD
BRANCH  11  13
ATOM     13  C   UNL     1      -1.531  10.866  17.878  0.00  0.00    +0.000 A 
ATOM     14  C   UNL     1      -1.982  10.129  16.774  0.00  0.00    +0.000 A 
ATOM     15  C   UNL     1      -3.308  10.237  16.341  0.00  0.00    +0.000 A 
ATOM     16  C   UNL     1      -4.192  11.056  17.033  0.00  0.00    +0.000 A 
ATOM     17  F   UNL     1      -5.457  11.174  16.610  0.00  0.00    +0.000 F 
ATOM     18  C   UNL     1      -3.783  11.751  18.162  0.00  0.00    +0.000 A 
ATOM     19  C   UNL     1      -2.457  11.646  18.590  0.00  0.00    +0.000 A 
ENDBRANCH  11  13
ENDBRANCH   4  11
BRANCH   7  20
ATOM     20  S   UNL     1       3.459   6.518  17.801  0.00  0.00    +0.000 S 
BRANCH  20  21
ATOM     21  C   UNL     1       4.610   5.811  19.014  0.00  0.00    +0.000 C 
BRANCH  21  22
ATOM     22  C   UNL     1       4.492   4.300  19.143  0.00  0.00    +0.000 C 
ATOM     23  O   UNL     1       5.434   3.516  19.039  0.00  0.00    +0.000 OA
BRANCH  22  24
ATOM     24  C   UNL     1       3.138   3.726  19.397  0.00  0.00    +0.000 A 
ATOM     25  C   UNL     1       2.566   3.927  20.660  0.00  0.00    +0.000 A 
ATOM     26  C   UNL     1       1.289   3.436  20.945  0.00  0.00    +0.000 A 
ATOM     27  C   UNL     1       0.575   2.751  19.965  0.00  0.00    +0.000 A 
ATOM     28  C   UNL     1       1.134   2.555  18.702  0.00  0.00    +0.000 A 
ATOM     29  C   UNL     1       2.416   3.037  18.415  0.00  0.00    +0.000 A 
ENDBRANCH  22  24
ENDBRANCH  21  22
ENDBRANCH  20  21
ENDBRANCH   7  20
TORSDOF 6
ENDMDL
MODEL 6
REMARK VINA RESULT:      -8.2      3.287      7.494
REMARK  Name = 
REMARK  7 active torsions:
REMARK  status: ('A' for Active; 'I' for Inactive)
REMARK    1  A    between atoms: C_1  and  C_2
REMARK    2  A    between atoms: C_4  and  N_5
REMARK    3  A    between atoms: N_5  and  C_6
REMARK    4  A    between atoms: C_15  and  S_16
REMARK    5  A    between atoms: S_16  and  C_17
REMARK    6  A    between atoms: C_17  and  C_18
REMARK    7  A    between atoms: C_18  and  C_20
REMARK                            x       y       z     vdW  Elec       q    Type
REMARK                         _______ _______ _______ _____ _____    ______ ____
ROOT
ATOM      1  C   UNL     1       8.293   7.630  18.470  0.00  0.00    +0.000 C 
ATOM      2  C   UNL     1       7.274   6.578  18.109  0.00  0.00    +0.000 A 
ATOM      3  C   UNL     1       6.709   6.635  16.728  0.00  0.00    +0.000 A 
ATOM      4  C   UNL     1       5.829   5.677  16.382  0.00  0.00    +0.000 A 
ATOM      5  N   UNL     1       5.507   4.702  17.351  0.00  0.00    +0.000 N 
ATOM      6  N   UNL     1       4.671   3.643  17.241  0.00  0.00    +0.000 NA
ATOM      7  C   UNL     1       4.675   3.159  18.483  0.00  0.00    +0.000 A 
ATOM      8  N   UNL     1       5.520   3.774  19.357  0.00  0.00    +0.000 NA
ATOM      9  C   UNL     1       6.043   4.747  18.643  0.00  0.00    +0.000 A 
ATOM     10  N   UNL     1       6.953   5.696  19.012  0.00  0.00    +0.000 NA
ENDROOT
BRANCH   4  11
ATOM     11  N   UNL     1       5.222   5.597  15.126  0.00  0.00    +0.000 N 
ATOM     12  H   UNL     1       4.968   6.533  14.788  0.00  0.00    +0.000 HD
BRANCH  11  13
ATOM     13  C   UNL     1       5.788   4.849  14.059  0.00  0.00    +0.000 A 
ATOM     14  C   UNL     1       7.132   5.059  13.720  0.00  0.00    +0.000 A 
ATOM     15  C   UNL     1       7.724   4.338  12.678  0.00  0.00    +0.000 A 
ATOM     16  C   UNL     1       6.981   3.380  11.998  0.00  0.00    +0.000 A 
ATOM     17  F   UNL     1       7.542   2.700  10.990  0.00  0.00    +0.000 F 
ATOM     18  C   UNL     1       5.667   3.114  12.354  0.00  0.00    +0.000 A 
ATOM     19  C   UNL     1       5.075   3.840  13.391  0.00  0.00    +0.000 A 
ENDBRANCH  11  13
ENDBRANCH   4  11
BRANCH   7  20
ATOM     20  S   UNL     1       3.704   1.773  18.903  0.00  0.00    +0.000 S 
BRANCH  20  21
ATOM     21  C   UNL     1       2.216   2.562  19.582  0.00  0.00    +0.000 C 
BRANCH  21  22
ATOM     22  C   UNL     1       1.663   3.664  18.691  0.00  0.00    +0.000 C 
ATOM     23  O   UNL     1       1.095   3.472  17.617  0.00  0.00    +0.000 OA
BRANCH  22  24
ATOM     24  C   UNL     1       1.832   5.076  19.143  0.00  0.00    +0.000 A 
ATOM     25  C   UNL     1       2.286   6.015  18.207  0.00  0.00    +0.000 A 
ATOM     26  C   UNL     1       2.437   7.356  18.567  0.00  0.00    +0.000 A 
ATOM     27  C   UNL     1       2.123   7.767  19.861  0.00  0.00    +0.000 A 
ATOM     28  C   UNL     1       1.661   6.840  20.795  0.00  0.00    +0.000 A 
ATOM     29  C   UNL     1       1.518   5.494  20.442  0.00  0.00    +0.000 A 
ENDBRANCH  22  24
ENDBRANCH  21  22
ENDBRANCH  20  21
ENDBRANCH   7  20
TORSDOF 6
ENDMDL
MODEL 7
REMARK VINA RESULT:      -8.1      1.495      2.032
REMARK  Name = 
REMARK  7 active torsions:
REMARK  status: ('A' for Active; 'I' for Inactive)
REMARK    1  A    between atoms: C_1  and  C_2
REMARK    2  A    between atoms: C_4  and  N_5
REMARK    3  A    between atoms: N_5  and  C_6
REMARK    4  A    between atoms: C_15  and  S_16
REMARK    5  A    between atoms: S_16  and  C_17
REMARK    6  A    between atoms: C_17  and  C_18
REMARK    7  A    between atoms: C_18  and  C_20
REMARK                            x       y       z     vdW  Elec       q    Type
REMARK                         _______ _______ _______ _____ _____    ______ ____
ROOT
ATOM      1  C   UNL     1       1.047   2.575  20.532  0.00  0.00    +0.000 C 
ATOM      2  C   UNL     1       1.759   3.757  19.922  0.00  0.00    +0.000 A 
ATOM      3  C   UNL     1       1.620   5.064  20.629  0.00  0.00    +0.000 A 
ATOM      4  C   UNL     1       2.284   6.116  20.115  0.00  0.00    +0.000 A 
ATOM      5  N   UNL     1       3.051   5.902  18.949  0.00  0.00    +0.000 N 
ATOM      6  N   UNL     1       3.809   6.787  18.260  0.00  0.00    +0.000 NA
ATOM      7  C   UNL     1       4.191   6.061  17.210  0.00  0.00    +0.000 A 
ATOM      8  N   UNL     1       3.809   4.753  17.220  0.00  0.00    +0.000 NA
ATOM      9  C   UNL     1       3.089   4.654  18.317  0.00  0.00    +0.000 A 
ATOM     10  N   UNL     1       2.442   3.567  18.829  0.00  0.00    +0.000 NA
ENDROOT
BRANCH   4  11
ATOM     11  N   UNL     1       2.254   7.398  20.670  0.00  0.00    +0.000 N 
ATOM     12  H   UNL     1       3.200   7.798  20.709  0.00  0.00    +0.000 HD
BRANCH  11  13
ATOM     13  C   UNL     1       1.341   8.392  20.226  0.00  0.00    +0.000 A 
ATOM     14  C   UNL     1       0.386   8.886  21.125  0.00  0.00    +0.000 A 
ATOM     15  C   UNL     1      -0.527   9.868  20.725  0.00  0.00    +0.000 A 
ATOM     16  C   UNL     1      -0.461  10.382  19.435  0.00  0.00    +0.000 A 
ATOM     17  F   UNL     1      -1.344  11.310  19.045  0.00  0.00    +0.000 F 
ATOM     18  C   UNL     1       0.513   9.949  18.546  0.00  0.00    +0.000 A 
ATOM     19  C   UNL     1       1.420   8.964  18.946  0.00  0.00    +0.000 A 
ENDBRANCH  11  13
ENDBRANCH   4  11
BRANCH   7  20
ATOM     20  S   UNL     1       5.186   6.759  15.959  0.00  0.00    +0.000 S 
BRANCH  20  21
ATOM     21  C   UNL     1       6.854   6.362  16.556  0.00  0.00    +0.000 C 
BRANCH  21  22
ATOM     22  C   UNL     1       7.365   5.018  16.060  0.00  0.00    +0.000 C 
ATOM     23  O   UNL     1       7.984   4.210  16.750  0.00  0.00    +0.000 OA
BRANCH  22  24
ATOM     24  C   UNL     1       7.112   4.660  14.633  0.00  0.00    +0.000 A 
ATOM     25  C   UNL     1       6.089   3.744  14.357  0.00  0.00    +0.000 A 
ATOM     26  C   UNL     1       5.791   3.392  13.038  0.00  0.00    +0.000 A 
ATOM     27  C   UNL     1       6.506   3.964  11.989  0.00  0.00    +0.000 A 
ATOM     28  C   UNL     1       7.520   4.885  12.255  0.00  0.00    +0.000 A 
ATOM     29  C   UNL     1       7.829   5.232  13.575  0.00  0.00    +0.000 A 
ENDBRANCH  22  24
ENDBRANCH  21  22
ENDBRANCH  20  21
ENDBRANCH   7  20
TORSDOF 6
ENDMDL
MODEL 8
REMARK VINA RESULT:      -8.1      1.886      3.216
REMARK  Name = 
REMARK  7 active torsions:
REMARK  status: ('A' for Active; 'I' for Inactive)
REMARK    1  A    between atoms: C_1  and  C_2
REMARK    2  A    between atoms: C_4  and  N_5
REMARK    3  A    between atoms: N_5  and  C_6
REMARK    4  A    between atoms: C_15  and  S_16
REMARK    5  A    between atoms: S_16  and  C_17
REMARK    6  A    between atoms: C_17  and  C_18
REMARK    7  A    between atoms: C_18  and  C_20
REMARK                            x       y       z     vdW  Elec       q    Type
REMARK                         _______ _______ _______ _____ _____    ______ ____
ROOT
ATOM      1  C   UNL     1       1.295   2.469  21.933  0.00  0.00    +0.000 C 
ATOM      2  C   UNL     1       1.951   3.203  20.789  0.00  0.00    +0.000 A 
ATOM      3  C   UNL     1       2.225   4.656  20.991  0.00  0.00    +0.000 A 
ATOM      4  C   UNL     1       2.846   5.311  19.992  0.00  0.00    +0.000 A 
ATOM      5  N   UNL     1       3.181   4.575  18.835  0.00  0.00    +0.000 N 
ATOM      6  N   UNL     1       3.813   5.000  17.715  0.00  0.00    +0.000 NA
ATOM      7  C   UNL     1       3.748   3.921  16.937  0.00  0.00    +0.000 A 
ATOM      8  N   UNL     1       3.201   2.809  17.506  0.00  0.00    +0.000 NA
ATOM      9  C   UNL     1       2.844   3.224  18.703  0.00  0.00    +0.000 A 
ATOM     10  N   UNL     1       2.233   2.532  19.709  0.00  0.00    +0.000 NA
ENDROOT
BRANCH   4  11
ATOM     11  N   UNL     1       3.172   6.669  20.040  0.00  0.00    +0.000 N 
ATOM     12  H   UNL     1       4.082   6.838  19.595  0.00  0.00    +0.000 HD
BRANCH  11  13
ATOM     13  C   UNL     1       2.258   7.680  19.641  0.00  0.00    +0.000 A 
ATOM     14  C   UNL     1       1.433   8.270  20.609  0.00  0.00    +0.000 A 
ATOM     15  C   UNL     1       0.523   9.271  20.254  0.00  0.00    +0.000 A 
ATOM     16  C   UNL     1       0.464   9.709  18.936  0.00  0.00    +0.000 A 
ATOM     17  F   UNL     1      -0.418  10.656  18.591  0.00  0.00    +0.000 F 
ATOM     18  C   UNL     1       1.309   9.179  17.972  0.00  0.00    +0.000 A 
ATOM     19  C   UNL     1       2.213   8.175  18.327  0.00  0.00    +0.000 A 
ENDBRANCH  11  13
ENDBRANCH   4  11
BRANCH   7  20
ATOM     20  S   UNL     1       4.404   3.945  15.321  0.00  0.00    +0.000 S 
BRANCH  20  21
ATOM     21  C   UNL     1       6.168   3.658  15.640  0.00  0.00    +0.000 C 
BRANCH  21  22
ATOM     22  C   UNL     1       7.014   4.915  15.509  0.00  0.00    +0.000 C 
ATOM     23  O   UNL     1       7.408   5.383  14.442  0.00  0.00    +0.000 OA
BRANCH  22  24
ATOM     24  C   UNL     1       7.407   5.624  16.762  0.00  0.00    +0.000 A 
ATOM     25  C   UNL     1       7.514   7.020  16.721  0.00  0.00    +0.000 A 
ATOM     26  C   UNL     1       7.852   7.738  17.871  0.00  0.00    +0.000 A 
ATOM     27  C   UNL     1       8.073   7.064  19.070  0.00  0.00    +0.000 A 
ATOM     28  C   UNL     1       7.959   5.674  19.121  0.00  0.00    +0.000 A 
ATOM     29  C   UNL     1       7.631   4.951  17.970  0.00  0.00    +0.000 A 
ENDBRANCH  22  24
ENDBRANCH  21  22
ENDBRANCH  20  21
ENDBRANCH   7  20
TORSDOF 6
ENDMDL
MODEL 9
REMARK VINA RESULT:      -8.0      3.539      6.183
REMARK  Name = 
REMARK  7 active torsions:
REMARK  status: ('A' for Active; 'I' for Inactive)
REMARK    1  A    between atoms: C_1  and  C_2
REMARK    2  A    between atoms: C_4  and  N_5
REMARK    3  A    between atoms: N_5  and  C_6
REMARK    4  A    between atoms: C_15  and  S_16
REMARK    5  A    between atoms: S_16  and  C_17
REMARK    6  A    between atoms: C_17  and  C_18
REMARK    7  A    between atoms: C_18  and  C_20
REMARK                            x       y       z     vdW  Elec       q    Type
REMARK                         _______ _______ _______ _____ _____    ______ ____
ROOT
ATOM      1  C   UNL     1      -0.513   9.165  22.757  0.00  0.00    +0.000 C 
ATOM      2  C   UNL     1       0.205   9.103  21.431  0.00  0.00    +0.000 A 
ATOM      3  C   UNL     1      -0.101  10.185  20.449  0.00  0.00    +0.000 A 
ATOM      4  C   UNL     1       0.564  10.161  19.279  0.00  0.00    +0.000 A 
ATOM      5  N   UNL     1       1.490   9.115  19.072  0.00  0.00    +0.000 N 
ATOM      6  N   UNL     1       2.280   8.885  17.997  0.00  0.00    +0.000 NA
ATOM      7  C   UNL     1       2.840   7.718  18.313  0.00  0.00    +0.000 A 
ATOM      8  N   UNL     1       2.535   7.227  19.547  0.00  0.00    +0.000 NA
ATOM      9  C   UNL     1       1.683   8.109  20.024  0.00  0.00    +0.000 A 
ATOM     10  N   UNL     1       1.037   8.121  21.227  0.00  0.00    +0.000 NA
ENDROOT
BRANCH   4  11
ATOM     11  N   UNL     1       0.387  11.108  18.267  0.00  0.00    +0.000 N 
ATOM     12  H   UNL     1      -0.541  11.011  17.839  0.00  0.00    +0.000 HD
BRANCH  11  13
ATOM     13  C   UNL     1       0.672  12.486  18.463  0.00  0.00    +0.000 A 
ATOM     14  C   UNL     1       2.003  12.920  18.392  0.00  0.00    +0.000 A 
ATOM     15  C   UNL     1       2.322  14.270  18.576  0.00  0.00    +0.000 A 
ATOM     16  C   UNL     1       1.305  15.191  18.796  0.00  0.00    +0.000 A 
ATOM     17  F   UNL     1       1.610  16.481  18.989  0.00  0.00    +0.000 F 
ATOM     18  C   UNL     1      -0.024  14.793  18.815  0.00  0.00    +0.000 A 
ATOM     19  C   UNL     1      -0.340  13.444  18.637  0.00  0.00    +0.000 A 
ENDBRANCH  11  13
ENDBRANCH   4  11
BRANCH   7  20
ATOM     20  S   UNL     1       3.949   6.936  17.218  0.00  0.00    +0.000 S 
BRANCH  20  21
ATOM     21  C   UNL     1       4.483   5.505  18.201  0.00  0.00    +0.000 C 
BRANCH  21  22
ATOM     22  C   UNL     1       3.605   4.279  18.000  0.00  0.00    +0.000 C 
ATOM     23  O   UNL     1       3.472   3.684  16.932  0.00  0.00    +0.000 OA
BRANCH  22  24
ATOM     24  C   UNL     1       2.839   3.770  19.176  0.00  0.00    +0.000 A 
ATOM     25  C   UNL     1       1.441   3.849  19.133  0.00  0.00    +0.000 A 
ATOM     26  C   UNL     1       0.673   3.363  20.194  0.00  0.00    +0.000 A 
ATOM     27  C   UNL     1       1.298   2.786  21.297  0.00  0.00    +0.000 A 
ATOM     28  C   UNL     1       2.689   2.695  21.342  0.00  0.00    +0.000 A 
ATOM     29  C   UNL     1       3.464   3.189  20.287  0.00  0.00    +0.000 A 
ENDBRANCH  22  24
ENDBRANCH  21  22
ENDBRANCH  20  21
ENDBRANCH   7  20
TORSDOF 6
ENDMDL
