MODEL 1
REMARK VINA RESULT:      -8.1      0.000      0.000
REMARK  Name = 
REMARK  4 active torsions:
REMARK  status: ('A' for Active; 'I' for Inactive)
REMARK    1  A    between atoms: C_2  and  C_3
REMARK    2  A    between atoms: C_3  and  C_4
REMARK    3  A    between atoms: C_6  and  C_7
REMARK    4  A    between atoms: C_18  and  O_19
REMARK                            x       y       z     vdW  Elec       q    Type
REMARK                         _______ _______ _______ _____ _____    ______ ____
ROOT
ATOM      1  C   UNL     1       6.075   4.278  14.708  0.00  0.00    +0.000 A 
ATOM      2  C   UNL     1       5.035   3.908  15.583  0.00  0.00    +0.000 A 
ATOM      3  C   UNL     1       4.938   4.410  16.896  0.00  0.00    +0.000 A 
ATOM      4  C   UNL     1       5.942   5.303  17.313  0.00  0.00    +0.000 A 
ATOM      5  C   UNL     1       6.980   5.688  16.459  0.00  0.00    +0.000 A 
ATOM      6  C   UNL     1       7.043   5.173  15.167  0.00  0.00    +0.000 A 
ENDROOT
BRANCH   3   7
ATOM      7  C   UNL     1       3.823   4.021  17.796  0.00  0.00    +0.000 A 
ATOM      8  C   UNL     1       2.469   4.106  17.373  0.00  0.00    +0.000 A 
ATOM      9  C   UNL     1       1.402   3.763  18.215  0.00  0.00    +0.000 A 
ATOM     10  C   UNL     1       1.703   3.321  19.481  0.00  0.00    +0.000 A 
ATOM     11  C   UNL     1       3.001   3.219  19.913  0.00  0.00    +0.000 A 
ATOM     12  C   UNL     1       4.069   3.563  19.107  0.00  0.00    +0.000 A 
ATOM     13  O   UNL     1       3.089   2.760  21.191  0.00  0.00    +0.000 OA
ATOM     14  C   UNL     1       1.692   2.605  21.518  0.00  0.00    +0.000 C 
ATOM     15  O   UNL     1       0.806   2.945  20.431  0.00  0.00    +0.000 OA
ENDBRANCH   3   7
BRANCH   6  16
ATOM     16  O   UNL     1       8.055   5.547  14.331  0.00  0.00    +0.000 OA
ATOM     17  H   UNL     1       7.687   5.704  13.446  0.00  0.00    +0.000 HD
ENDBRANCH   6  16
BRANCH   1  18
ATOM     18  C   UNL     1       6.123   3.692  13.315  0.00  0.00    +0.000 C 
BRANCH  18  20
ATOM     19  C   UNL     1       4.524   3.261  11.415  0.00  0.00    +0.000 C 
ATOM     20  C   UNL     1       4.757   3.504  12.713  0.00  0.00    +0.000 C 
ENDBRANCH  18  20
ENDBRANCH   1  18
TORSDOF 4
ENDMDL
MODEL 2
REMARK VINA RESULT:      -7.7      1.299      3.217
REMARK  Name = 
REMARK  4 active torsions:
REMARK  status: ('A' for Active; 'I' for Inactive)
REMARK    1  A    between atoms: C_2  and  C_3
REMARK    2  A    between atoms: C_3  and  C_4
REMARK    3  A    between atoms: C_6  and  C_7
REMARK    4  A    between atoms: C_18  and  O_19
REMARK                            x       y       z     vdW  Elec       q    Type
REMARK                         _______ _______ _______ _____ _____    ______ ____
ROOT
ATOM      1  C   UNL     1       6.810   5.738  16.903  0.00  0.00    +0.000 A 
ATOM      2  C   UNL     1       5.756   5.331  17.745  0.00  0.00    +0.000 A 
ATOM      3  C   UNL     1       4.736   4.460  17.312  0.00  0.00    +0.000 A 
ATOM      4  C   UNL     1       4.804   4.011  15.981  0.00  0.00    +0.000 A 
ATOM      5  C   UNL     1       5.844   4.397  15.129  0.00  0.00    +0.000 A 
ATOM      6  C   UNL     1       6.836   5.258  15.592  0.00  0.00    +0.000 A 
ENDROOT
BRANCH   3   7
ATOM      7  C   UNL     1       3.645   4.030  18.222  0.00  0.00    +0.000 A 
ATOM      8  C   UNL     1       2.282   4.099  17.826  0.00  0.00    +0.000 A 
ATOM      9  C   UNL     1       1.237   3.717  18.679  0.00  0.00    +0.000 A 
ATOM     10  C   UNL     1       1.570   3.251  19.928  0.00  0.00    +0.000 A 
ATOM     11  C   UNL     1       2.877   3.164  20.334  0.00  0.00    +0.000 A 
ATOM     12  C   UNL     1       3.923   3.546  19.517  0.00  0.00    +0.000 A 
ATOM     13  O   UNL     1       2.997   2.677  21.600  0.00  0.00    +0.000 OA
ATOM     14  C   UNL     1       1.609   2.488  21.948  0.00  0.00    +0.000 C 
ATOM     15  O   UNL     1       0.698   2.836  20.885  0.00  0.00    +0.000 OA
ENDBRANCH   3   7
BRANCH   6  16
ATOM     16  O   UNL     1       7.853   5.637  14.764  0.00  0.00    +0.000 OA
ATOM     17  H   UNL     1       7.885   5.025  14.010  0.00  0.00    +0.000 HD
ENDBRANCH   6  16
BRANCH   1  18
ATOM     18  C   UNL     1       7.865   6.682  17.431  0.00  0.00    +0.000 C 
BRANCH  18  20
ATOM     19  C   UNL     1       8.143   9.141  17.910  0.00  0.00    +0.000 C 
ATOM     20  C   UNL     1       7.388   8.107  17.510  0.00  0.00    +0.000 C 
ENDBRANCH  18  20
ENDBRANCH   1  18
TORSDOF 4
ENDMDL
MODEL 3
REMARK VINA RESULT:      -7.7      0.963      1.675
REMARK  Name = 
REMARK  4 active torsions:
REMARK  status: ('A' for Active; 'I' for Inactive)
REMARK    1  A    between atoms: C_2  and  C_3
REMARK    2  A    between atoms: C_3  and  C_4
REMARK    3  A    between atoms: C_6  and  C_7
REMARK    4  A    between atoms: C_18  and  O_19
REMARK                            x       y       z     vdW  Elec       q    Type
REMARK                         _______ _______ _______ _____ _____    ______ ____
ROOT
ATOM      1  C   UNL     1       6.238   4.154  14.160  0.00  0.00    +0.000 A 
ATOM      2  C   UNL     1       5.345   3.730  15.165  0.00  0.00    +0.000 A 
ATOM      3  C   UNL     1       5.412   4.213  16.487  0.00  0.00    +0.000 A 
ATOM      4  C   UNL     1       6.427   5.142  16.776  0.00  0.00    +0.000 A 
ATOM      5  C   UNL     1       7.321   5.581  15.793  0.00  0.00    +0.000 A 
ATOM      6  C   UNL     1       7.224   5.083  14.497  0.00  0.00    +0.000 A 
ENDROOT
BRANCH   3   7
ATOM      7  C   UNL     1       4.449   3.768  17.526  0.00  0.00    +0.000 A 
ATOM      8  C   UNL     1       4.865   3.518  18.860  0.00  0.00    +0.000 A 
ATOM      9  C   UNL     1       3.975   3.076  19.850  0.00  0.00    +0.000 A 
ATOM     10  C   UNL     1       2.660   2.900  19.492  0.00  0.00    +0.000 A 
ATOM     11  C   UNL     1       2.227   3.144  18.213  0.00  0.00    +0.000 A 
ATOM     12  C   UNL     1       3.087   3.567  17.219  0.00  0.00    +0.000 A 
ATOM     13  O   UNL     1       0.894   2.914  18.063  0.00  0.00    +0.000 OA
ATOM     14  C   UNL     1       0.544   2.479  19.394  0.00  0.00    +0.000 C 
ATOM     15  O   UNL     1       1.658   2.483  20.311  0.00  0.00    +0.000 OA
ENDBRANCH   3   7
BRANCH   6  16
ATOM     16  O   UNL     1       8.094   5.509  13.535  0.00  0.00    +0.000 OA
ATOM     17  H   UNL     1       7.911   5.027  12.712  0.00  0.00    +0.000 HD
ENDBRANCH   6  16
BRANCH   1  18
ATOM     18  C   UNL     1       6.115   3.587  12.764  0.00  0.00    +0.000 C 
BRANCH  18  20
ATOM     19  C   UNL     1       4.236   2.975  11.200  0.00  0.00    +0.000 C 
ATOM     20  C   UNL     1       4.728   3.725  12.198  0.00  0.00    +0.000 C 
ENDBRANCH  18  20
ENDBRANCH   1  18
TORSDOF 4
ENDMDL
MODEL 4
REMARK VINA RESULT:      -7.5      1.161      1.258
REMARK  Name = 
REMARK  4 active torsions:
REMARK  status: ('A' for Active; 'I' for Inactive)
REMARK    1  A    between atoms: C_2  and  C_3
REMARK    2  A    between atoms: C_3  and  C_4
REMARK    3  A    between atoms: C_6  and  C_7
REMARK    4  A    between atoms: C_18  and  O_19
REMARK                            x       y       z     vdW  Elec       q    Type
REMARK                         _______ _______ _______ _____ _____    ______ ____
ROOT
ATOM      1  C   UNL     1       6.152   4.347  14.175  0.00  0.00    +0.000 A 
ATOM      2  C   UNL     1       5.091   4.151  15.081  0.00  0.00    +0.000 A 
ATOM      3  C   UNL     1       5.061   4.758  16.353  0.00  0.00    +0.000 A 
ATOM      4  C   UNL     1       6.155   5.573  16.695  0.00  0.00    +0.000 A 
ATOM      5  C   UNL     1       7.217   5.785  15.810  0.00  0.00    +0.000 A 
ATOM      6  C   UNL     1       7.211   5.170  14.561  0.00  0.00    +0.000 A 
ENDROOT
BRANCH   3   7
ATOM      7  C   UNL     1       3.923   4.554  17.284  0.00  0.00    +0.000 A 
ATOM      8  C   UNL     1       3.275   5.652  17.909  0.00  0.00    +0.000 A 
ATOM      9  C   UNL     1       2.213   5.478  18.808  0.00  0.00    +0.000 A 
ATOM     10  C   UNL     1       1.797   4.193  19.064  0.00  0.00    +0.000 A 
ATOM     11  C   UNL     1       2.397   3.114  18.467  0.00  0.00    +0.000 A 
ATOM     12  C   UNL     1       3.454   3.259  17.589  0.00  0.00    +0.000 A 
ATOM     13  O   UNL     1       1.840   1.932  18.847  0.00  0.00    +0.000 OA
ATOM     14  C   UNL     1       0.831   2.395  19.769  0.00  0.00    +0.000 C 
ATOM     15  O   UNL     1       0.787   3.831  19.900  0.00  0.00    +0.000 OA
ENDBRANCH   3   7
BRANCH   6  16
ATOM     16  O   UNL     1       8.246   5.375  13.693  0.00  0.00    +0.000 OA
ATOM     17  H   UNL     1       7.893   5.747  12.869  0.00  0.00    +0.000 HD
ENDBRANCH   6  16
BRANCH   1  18
ATOM     18  C   UNL     1       6.123   3.656  12.831  0.00  0.00    +0.000 C 
BRANCH  18  20
ATOM     19  C   UNL     1       4.267   3.310  11.160  0.00  0.00    +0.000 C 
ATOM     20  C   UNL     1       4.737   3.244  12.415  0.00  0.00    +0.000 C 
ENDBRANCH  18  20
ENDBRANCH   1  18
TORSDOF 4
ENDMDL
MODEL 5
REMARK VINA RESULT:      -7.5      4.036      5.076
REMARK  Name = 
REMARK  4 active torsions:
REMARK  status: ('A' for Active; 'I' for Inactive)
REMARK    1  A    between atoms: C_2  and  C_3
REMARK    2  A    between atoms: C_3  and  C_4
REMARK    3  A    between atoms: C_6  and  C_7
REMARK    4  A    between atoms: C_18  and  O_19
REMARK                            x       y       z     vdW  Elec       q    Type
REMARK                         _______ _______ _______ _____ _____    ______ ____
ROOT
ATOM      1  C   UNL     1       3.981   4.036  17.469  0.00  0.00    +0.000 A 
ATOM      2  C   UNL     1       3.200   5.056  18.048  0.00  0.00    +0.000 A 
ATOM      3  C   UNL     1       3.464   6.424  17.835  0.00  0.00    +0.000 A 
ATOM      4  C   UNL     1       4.563   6.740  17.017  0.00  0.00    +0.000 A 
ATOM      5  C   UNL     1       5.349   5.745  16.427  0.00  0.00    +0.000 A 
ATOM      6  C   UNL     1       5.057   4.403  16.659  0.00  0.00    +0.000 A 
ENDROOT
BRANCH   3   7
ATOM      7  C   UNL     1       2.616   7.482  18.440  0.00  0.00    +0.000 A 
ATOM      8  C   UNL     1       2.212   8.621  17.694  0.00  0.00    +0.000 A 
ATOM      9  C   UNL     1       1.430   9.641  18.253  0.00  0.00    +0.000 A 
ATOM     10  C   UNL     1       1.042   9.502  19.565  0.00  0.00    +0.000 A 
ATOM     11  C   UNL     1       1.409   8.407  20.307  0.00  0.00    +0.000 A 
ATOM     12  C   UNL     1       2.190   7.397  19.782  0.00  0.00    +0.000 A 
ATOM     13  O   UNL     1       0.924   8.456  21.578  0.00  0.00    +0.000 OA
ATOM     14  C   UNL     1       0.227   9.719  21.552  0.00  0.00    +0.000 C 
ATOM     15  O   UNL     1       0.285  10.381  20.272  0.00  0.00    +0.000 OA
ENDBRANCH   3   7
BRANCH   6  16
ATOM     16  O   UNL     1       5.822   3.429  16.085  0.00  0.00    +0.000 OA
ATOM     17  H   UNL     1       5.332   3.046  15.339  0.00  0.00    +0.000 HD
ENDBRANCH   6  16
BRANCH   1  18
ATOM     18  C   UNL     1       3.646   2.589  17.749  0.00  0.00    +0.000 C 
BRANCH  18  20
ATOM     19  C   UNL     1       1.623   2.002  19.132  0.00  0.00    +0.000 C 
ATOM     20  C   UNL     1       2.175   2.361  17.964  0.00  0.00    +0.000 C 
ENDBRANCH  18  20
ENDBRANCH   1  18
TORSDOF 4
ENDMDL
MODEL 6
REMARK VINA RESULT:      -7.5      4.204      5.309
REMARK  Name = 
REMARK  4 active torsions:
REMARK  status: ('A' for Active; 'I' for Inactive)
REMARK    1  A    between atoms: C_2  and  C_3
REMARK    2  A    between atoms: C_3  and  C_4
REMARK    3  A    between atoms: C_6  and  C_7
REMARK    4  A    between atoms: C_18  and  O_19
REMARK                            x       y       z     vdW  Elec       q    Type
REMARK                         _______ _______ _______ _____ _____    ______ ____
ROOT
ATOM      1  C   UNL     1       5.290   5.635  17.068  0.00  0.00    +0.000 A 
ATOM      2  C   UNL     1       4.494   6.666  17.604  0.00  0.00    +0.000 A 
ATOM      3  C   UNL     1       3.170   6.450  18.038  0.00  0.00    +0.000 A 
ATOM      4  C   UNL     1       2.661   5.146  17.904  0.00  0.00    +0.000 A 
ATOM      5  C   UNL     1       3.435   4.106  17.379  0.00  0.00    +0.000 A 
ATOM      6  C   UNL     1       4.740   4.357  16.963  0.00  0.00    +0.000 A 
ENDROOT
BRANCH   3   7
ATOM      7  C   UNL     1       2.354   7.546  18.618  0.00  0.00    +0.000 A 
ATOM      8  C   UNL     1       1.891   8.624  17.818  0.00  0.00    +0.000 A 
ATOM      9  C   UNL     1       1.138   9.680  18.352  0.00  0.00    +0.000 A 
ATOM     10  C   UNL     1       0.841   9.638  19.693  0.00  0.00    +0.000 A 
ATOM     11  C   UNL     1       1.266   8.604  20.488  0.00  0.00    +0.000 A 
ATOM     12  C   UNL     1       2.020   7.560  19.988  0.00  0.00    +0.000 A 
ATOM     13  O   UNL     1       0.868   8.745  21.782  0.00  0.00    +0.000 OA
ATOM     14  C   UNL     1       0.159  10.000  21.710  0.00  0.00    +0.000 C 
ATOM     15  O   UNL     1       0.124  10.565  20.382  0.00  0.00    +0.000 OA
ENDBRANCH   3   7
BRANCH   6  16
ATOM     16  O   UNL     1       5.499   3.344  16.450  0.00  0.00    +0.000 OA
ATOM     17  H   UNL     1       4.927   2.759  15.926  0.00  0.00    +0.000 HD
ENDBRANCH   6  16
BRANCH   1  18
ATOM     18  C   UNL     1       6.699   5.941  16.613  0.00  0.00    +0.000 C 
BRANCH  18  20
ATOM     19  C   UNL     1       7.872   6.150  18.834  0.00  0.00    +0.000 C 
ATOM     20  C   UNL     1       7.504   6.670  17.654  0.00  0.00    +0.000 C 
ENDBRANCH  18  20
ENDBRANCH   1  18
TORSDOF 4
ENDMDL
MODEL 7
REMARK VINA RESULT:      -7.4      1.839      7.109
REMARK  Name = 
REMARK  4 active torsions:
REMARK  status: ('A' for Active; 'I' for Inactive)
REMARK    1  A    between atoms: C_2  and  C_3
REMARK    2  A    between atoms: C_3  and  C_4
REMARK    3  A    between atoms: C_6  and  C_7
REMARK    4  A    between atoms: C_18  and  O_19
REMARK                            x       y       z     vdW  Elec       q    Type
REMARK                         _______ _______ _______ _____ _____    ______ ____
ROOT
ATOM      1  C   UNL     1       2.170   4.533  19.886  0.00  0.00    +0.000 A 
ATOM      2  C   UNL     1       3.221   4.884  19.016  0.00  0.00    +0.000 A 
ATOM      3  C   UNL     1       3.797   3.963  18.117  0.00  0.00    +0.000 A 
ATOM      4  C   UNL     1       3.281   2.656  18.126  0.00  0.00    +0.000 A 
ATOM      5  C   UNL     1       2.233   2.286  18.977  0.00  0.00    +0.000 A 
ATOM      6  C   UNL     1       1.688   3.223  19.851  0.00  0.00    +0.000 A 
ENDROOT
BRANCH   3   7
ATOM      7  C   UNL     1       4.892   4.359  17.195  0.00  0.00    +0.000 A 
ATOM      8  C   UNL     1       5.970   5.172  17.636  0.00  0.00    +0.000 A 
ATOM      9  C   UNL     1       7.002   5.574  16.776  0.00  0.00    +0.000 A 
ATOM     10  C   UNL     1       6.951   5.142  15.472  0.00  0.00    +0.000 A 
ATOM     11  C   UNL     1       5.927   4.348  15.021  0.00  0.00    +0.000 A 
ATOM     12  C   UNL     1       4.893   3.950  15.846  0.00  0.00    +0.000 A 
ATOM     13  O   UNL     1       6.060   4.027  13.705  0.00  0.00    +0.000 OA
ATOM     14  C   UNL     1       7.277   4.729  13.378  0.00  0.00    +0.000 C 
ATOM     15  O   UNL     1       7.857   5.427  14.500  0.00  0.00    +0.000 OA
ENDBRANCH   3   7
BRANCH   6  16
ATOM     16  O   UNL     1       0.666   2.867  20.683  0.00  0.00    +0.000 OA
ATOM     17  H   UNL     1       0.088   3.636  20.815  0.00  0.00    +0.000 HD
ENDBRANCH   6  16
BRANCH   1  18
ATOM     18  C   UNL     1       1.606   5.569  20.832  0.00  0.00    +0.000 C 
BRANCH  18  20
ATOM     19  C   UNL     1       1.365   8.073  20.978  0.00  0.00    +0.000 C 
ATOM     20  C   UNL     1       1.787   6.976  20.332  0.00  0.00    +0.000 C 
ENDBRANCH  18  20
ENDBRANCH   1  18
TORSDOF 4
ENDMDL
MODEL 8
REMARK VINA RESULT:      -7.3      4.302      5.552
REMARK  Name = 
REMARK  4 active torsions:
REMARK  status: ('A' for Active; 'I' for Inactive)
REMARK    1  A    between atoms: C_2  and  C_3
REMARK    2  A    between atoms: C_3  and  C_4
REMARK    3  A    between atoms: C_6  and  C_7
REMARK    4  A    between atoms: C_18  and  O_19
REMARK                            x       y       z     vdW  Elec       q    Type
REMARK                         _______ _______ _______ _____ _____    ______ ____
ROOT
ATOM      1  C   UNL     1       5.409   5.606  17.118  0.00  0.00    +0.000 A 
ATOM      2  C   UNL     1       4.606   6.576  17.751  0.00  0.00    +0.000 A 
ATOM      3  C   UNL     1       3.276   6.319  18.139  0.00  0.00    +0.000 A 
ATOM      4  C   UNL     1       2.766   5.039  17.857  0.00  0.00    +0.000 A 
ATOM      5  C   UNL     1       3.546   4.059  17.235  0.00  0.00    +0.000 A 
ATOM      6  C   UNL     1       4.858   4.349  16.867  0.00  0.00    +0.000 A 
ENDROOT
BRANCH   3   7
ATOM      7  C   UNL     1       2.454   7.349  18.822  0.00  0.00    +0.000 A 
ATOM      8  C   UNL     1       2.066   7.204  20.180  0.00  0.00    +0.000 A 
ATOM      9  C   UNL     1       1.272   8.155  20.836  0.00  0.00    +0.000 A 
ATOM     10  C   UNL     1       0.882   9.263  20.122  0.00  0.00    +0.000 A 
ATOM     11  C   UNL     1       1.250   9.435  18.811  0.00  0.00    +0.000 A 
ATOM     12  C   UNL     1       2.020   8.505  18.140  0.00  0.00    +0.000 A 
ATOM     13  O   UNL     1       0.766  10.593  18.284  0.00  0.00    +0.000 OA
ATOM     14  C   UNL     1       0.035  11.118  19.412  0.00  0.00    +0.000 C 
ATOM     15  O   UNL     1       0.117  10.285  20.588  0.00  0.00    +0.000 OA
ENDBRANCH   3   7
BRANCH   6  16
ATOM     16  O   UNL     1       5.623   3.395  16.259  0.00  0.00    +0.000 OA
ATOM     17  H   UNL     1       5.271   3.232  15.369  0.00  0.00    +0.000 HD
ENDBRANCH   6  16
BRANCH   1  18
ATOM     18  C   UNL     1       6.826   5.954  16.720  0.00  0.00    +0.000 C 
BRANCH  18  20
ATOM     19  C   UNL     1       7.846   8.085  17.597  0.00  0.00    +0.000 C 
ATOM     20  C   UNL     1       7.534   6.790  17.751  0.00  0.00    +0.000 C 
ENDBRANCH  18  20
ENDBRANCH   1  18
TORSDOF 4
ENDMDL
MODEL 9
REMARK VINA RESULT:      -7.2      4.386      5.967
REMARK  Name = 
REMARK  4 active torsions:
REMARK  status: ('A' for Active; 'I' for Inactive)
REMARK    1  A    between atoms: C_2  and  C_3
REMARK    2  A    between atoms: C_3  and  C_4
REMARK    3  A    between atoms: C_6  and  C_7
REMARK    4  A    between atoms: C_18  and  O_19
REMARK                            x       y       z     vdW  Elec       q    Type
REMARK                         _______ _______ _______ _____ _____    ______ ____
ROOT
ATOM      1  C   UNL     1       4.958   4.717  18.608  0.00  0.00    +0.000 A 
ATOM      2  C   UNL     1       4.246   5.932  18.553  0.00  0.00    +0.000 A 
ATOM      3  C   UNL     1       3.028   6.125  19.234  0.00  0.00    +0.000 A 
ATOM      4  C   UNL     1       2.533   5.038  19.976  0.00  0.00    +0.000 A 
ATOM      5  C   UNL     1       3.225   3.825  20.050  0.00  0.00    +0.000 A 
ATOM      6  C   UNL     1       4.428   3.671  19.365  0.00  0.00    +0.000 A 
ENDROOT
BRANCH   3   7
ATOM      7  C   UNL     1       2.304   7.420  19.177  0.00  0.00    +0.000 A 
ATOM      8  C   UNL     1       2.249   8.184  17.981  0.00  0.00    +0.000 A 
ATOM      9  C   UNL     1       1.588   9.419  17.914  0.00  0.00    +0.000 A 
ATOM     10  C   UNL     1       0.971   9.876  19.053  0.00  0.00    +0.000 A 
ATOM     11  C   UNL     1       0.998   9.155  20.220  0.00  0.00    +0.000 A 
ATOM     12  C   UNL     1       1.653   7.943  20.315  0.00  0.00    +0.000 A 
ATOM     13  O   UNL     1       0.328   9.775  21.230  0.00  0.00    +0.000 OA
ATOM     14  C   UNL     1      -0.108  10.979  20.564  0.00  0.00    +0.000 C 
ATOM     15  O   UNL     1       0.284  11.043  19.177  0.00  0.00    +0.000 OA
ENDBRANCH   3   7
BRANCH   6  16
ATOM     16  O   UNL     1       5.107   2.488  19.434  0.00  0.00    +0.000 OA
ATOM     17  H   UNL     1       4.656   1.836  18.872  0.00  0.00    +0.000 HD
ENDBRANCH   6  16
BRANCH   1  18
ATOM     18  C   UNL     1       6.255   4.577  17.844  0.00  0.00    +0.000 C 
BRANCH  18  20
ATOM     19  C   UNL     1       7.925   5.825  19.261  0.00  0.00    +0.000 C 
ATOM     20  C   UNL     1       7.223   5.694  18.125  0.00  0.00    +0.000 C 
ENDBRANCH  18  20
ENDBRANCH   1  18
TORSDOF 4
ENDMDL
