MODEL 1
REMARK VINA RESULT:      -8.3      0.000      0.000
REMARK  Name = 
REMARK  3 active torsions:
REMARK  status: ('A' for Active; 'I' for Inactive)
REMARK    1  A    between atoms: C_10  and  C_11
REMARK    2  A    between atoms: C_15  and  C_16
REMARK    3  A    between atoms: N_23  and  O_24
REMARK                            x       y       z     vdW  Elec       q    Type
REMARK                         _______ _______ _______ _____ _____    ______ ____
ROOT
ATOM      1  O   UNL     1       7.867   5.471  18.084  0.00  0.00    +0.000 OA
ATOM      2  C   UNL     1       6.753   5.049  17.787  0.00  0.00    +0.000 C 
ATOM      3  C   UNL     1       6.434   4.680  16.383  0.00  0.00    +0.000 A 
ATOM      4  C   UNL     1       7.388   4.838  15.374  0.00  0.00    +0.000 A 
ATOM      5  C   UNL     1       7.024   4.614  14.047  0.00  0.00    +0.000 A 
ATOM      6  C   UNL     1       5.712   4.254  13.737  0.00  0.00    +0.000 A 
ATOM      7  C   UNL     1       4.769   4.069  14.754  0.00  0.00    +0.000 A 
ATOM      8  C   UNL     1       5.134   4.227  16.092  0.00  0.00    +0.000 A 
ATOM      9  N   UNL     1       4.167   4.071  17.109  0.00  0.00    +0.000 N 
ATOM     10  C   UNL     1       4.779   3.784  18.412  0.00  0.00    +0.000 C 
ATOM     11  N   UNL     1       5.687   4.905  18.666  0.00  0.00    +0.000 N 
ATOM     12  H   UNL     1       3.451   3.394  16.869  0.00  0.00    +0.000 HD
ENDROOT
BRANCH  10  13
ATOM     13  C   UNL     1       3.813   3.610  19.543  0.00  0.00    +0.000 A 
ATOM     14  C   UNL     1       3.648   2.493  20.340  0.00  0.00    +0.000 A 
ATOM     15  N   UNL     1       2.670   2.804  21.238  0.00  0.00    +0.000 N 
ATOM     16  N   UNL     1       2.213   4.053  21.110  0.00  0.00    +0.000 NA
ATOM     17  C   UNL     1       2.864   4.565  20.048  0.00  0.00    +0.000 A 
ATOM     18  H   UNL     1       2.280   2.219  21.967  0.00  0.00    +0.000 HD
BRANCH  17  19
ATOM     19  C   UNL     1       2.554   5.929  19.590  0.00  0.00    +0.000 A 
ATOM     20  C   UNL     1       2.060   6.883  20.494  0.00  0.00    +0.000 A 
ATOM     21  C   UNL     1       1.720   8.173  20.069  0.00  0.00    +0.000 A 
ATOM     22  C   UNL     1       1.876   8.526  18.735  0.00  0.00    +0.000 A 
ATOM     23 CL   UNL     1       1.437  10.102  18.199  0.00  0.00    +0.000 Cl
ATOM     24  C   UNL     1       2.367   7.602  17.821  0.00  0.00    +0.000 A 
ATOM     25  C   UNL     1       2.697   6.312  18.248  0.00  0.00    +0.000 A 
ENDBRANCH  17  19
ENDBRANCH  10  13
BRANCH  11  26
ATOM     26  O   UNL     1       6.060   5.095  20.022  0.00  0.00    +0.000 OA
ATOM     27  H   UNL     1       5.749   4.258  20.413  0.00  0.00    +0.000 HD
ENDBRANCH  11  26
TORSDOF 3
ENDMDL
MODEL 2
REMARK VINA RESULT:      -7.8      2.774      6.005
REMARK  Name = 
REMARK  3 active torsions:
REMARK  status: ('A' for Active; 'I' for Inactive)
REMARK    1  A    between atoms: C_10  and  C_11
REMARK    2  A    between atoms: C_15  and  C_16
REMARK    3  A    between atoms: N_23  and  O_24
REMARK                            x       y       z     vdW  Elec       q    Type
REMARK                         _______ _______ _______ _____ _____    ______ ____
ROOT
ATOM      1  O   UNL     1       1.753   4.263  21.221  0.00  0.00    +0.000 OA
ATOM      2  C   UNL     1       2.176   4.961  20.303  0.00  0.00    +0.000 C 
ATOM      3  C   UNL     1       1.858   6.412  20.247  0.00  0.00    +0.000 A 
ATOM      4  C   UNL     1       1.046   6.997  21.223  0.00  0.00    +0.000 A 
ATOM      5  C   UNL     1       0.650   8.326  21.077  0.00  0.00    +0.000 A 
ATOM      6  C   UNL     1       1.050   9.051  19.954  0.00  0.00    +0.000 A 
ATOM      7  C   UNL     1       1.887   8.468  18.996  0.00  0.00    +0.000 A 
ATOM      8  C   UNL     1       2.343   7.159  19.159  0.00  0.00    +0.000 A 
ATOM      9  N   UNL     1       3.160   6.569  18.170  0.00  0.00    +0.000 N 
ATOM     10  C   UNL     1       3.931   5.436  18.696  0.00  0.00    +0.000 C 
ATOM     11  N   UNL     1       2.932   4.507  19.230  0.00  0.00    +0.000 N 
ATOM     12  H   UNL     1       3.751   7.243  17.696  0.00  0.00    +0.000 HD
ENDROOT
BRANCH  10  13
ATOM     13  C   UNL     1       4.819   4.755  17.700  0.00  0.00    +0.000 A 
ATOM     14  C   UNL     1       4.551   3.602  16.989  0.00  0.00    +0.000 A 
ATOM     15  N   UNL     1       5.639   3.375  16.201  0.00  0.00    +0.000 N 
ATOM     16  N   UNL     1       6.581   4.317  16.316  0.00  0.00    +0.000 NA
ATOM     17  C   UNL     1       6.128   5.160  17.264  0.00  0.00    +0.000 A 
ATOM     18  H   UNL     1       5.798   2.611  15.556  0.00  0.00    +0.000 HD
BRANCH  17  19
ATOM     19  C   UNL     1       6.959   6.301  17.683  0.00  0.00    +0.000 A 
ATOM     20  C   UNL     1       7.822   6.181  18.783  0.00  0.00    +0.000 A 
ATOM     21  C   UNL     1       8.589   7.266  19.223  0.00  0.00    +0.000 A 
ATOM     22  C   UNL     1       8.505   8.486  18.561  0.00  0.00    +0.000 A 
ATOM     23 CL   UNL     1       9.425   9.833  19.110  0.00  0.00    +0.000 Cl
ATOM     24  C   UNL     1       7.661   8.630  17.467  0.00  0.00    +0.000 A 
ATOM     25  C   UNL     1       6.891   7.545  17.037  0.00  0.00    +0.000 A 
ENDBRANCH  17  19
ENDBRANCH  10  13
BRANCH  11  26
ATOM     26  O   UNL     1       3.370   3.166  19.391  0.00  0.00    +0.000 OA
ATOM     27  H   UNL     1       3.042   2.769  18.563  0.00  0.00    +0.000 HD
ENDBRANCH  11  26
TORSDOF 3
ENDMDL
MODEL 3
REMARK VINA RESULT:      -7.8      2.746      5.909
REMARK  Name = 
REMARK  3 active torsions:
REMARK  status: ('A' for Active; 'I' for Inactive)
REMARK    1  A    between atoms: C_10  and  C_11
REMARK    2  A    between atoms: C_15  and  C_16
REMARK    3  A    between atoms: N_23  and  O_24
REMARK                            x       y       z     vdW  Elec       q    Type
REMARK                         _______ _______ _______ _____ _____    ______ ____
ROOT
ATOM      1  O   UNL     1       2.327   6.704  18.581  0.00  0.00    +0.000 OA
ATOM      2  C   UNL     1       3.077   5.732  18.544  0.00  0.00    +0.000 C 
ATOM      3  C   UNL     1       2.912   4.613  19.508  0.00  0.00    +0.000 A 
ATOM      4  C   UNL     1       1.920   4.664  20.492  0.00  0.00    +0.000 A 
ATOM      5  C   UNL     1       1.872   3.669  21.467  0.00  0.00    +0.000 A 
ATOM      6  C   UNL     1       2.820   2.646  21.464  0.00  0.00    +0.000 A 
ATOM      7  C   UNL     1       3.792   2.584  20.460  0.00  0.00    +0.000 A 
ATOM      8  C   UNL     1       3.816   3.537  19.440  0.00  0.00    +0.000 A 
ATOM      9  N   UNL     1       4.821   3.484  18.450  0.00  0.00    +0.000 N 
ATOM     10  C   UNL     1       4.434   4.207  17.233  0.00  0.00    +0.000 C 
ATOM     11  N   UNL     1       4.146   5.574  17.672  0.00  0.00    +0.000 N 
ATOM     12  H   UNL     1       5.125   2.538  18.249  0.00  0.00    +0.000 HD
ENDROOT
BRANCH  10  13
ATOM     13  C   UNL     1       5.455   4.199  16.137  0.00  0.00    +0.000 A 
ATOM     14  C   UNL     1       5.463   3.408  15.004  0.00  0.00    +0.000 A 
ATOM     15  N   UNL     1       6.573   3.761  14.297  0.00  0.00    +0.000 N 
ATOM     16  N   UNL     1       7.269   4.751  14.866  0.00  0.00    +0.000 NA
ATOM     17  C   UNL     1       6.633   5.016  16.023  0.00  0.00    +0.000 A 
ATOM     18  H   UNL     1       6.906   3.380  13.420  0.00  0.00    +0.000 HD
BRANCH  17  19
ATOM     19  C   UNL     1       7.175   6.034  16.937  0.00  0.00    +0.000 A 
ATOM     20  C   UNL     1       7.240   7.379  16.539  0.00  0.00    +0.000 A 
ATOM     21  C   UNL     1       7.790   8.356  17.377  0.00  0.00    +0.000 A 
ATOM     22  C   UNL     1       8.277   7.999  18.629  0.00  0.00    +0.000 A 
ATOM     23 CL   UNL     1       8.978   9.188  19.656  0.00  0.00    +0.000 Cl
ATOM     24  C   UNL     1       8.220   6.675  19.049  0.00  0.00    +0.000 A 
ATOM     25  C   UNL     1       7.678   5.702  18.204  0.00  0.00    +0.000 A 
ENDBRANCH  17  19
ENDBRANCH  10  13
BRANCH  11  26
ATOM     26  O   UNL     1       4.179   6.563  16.654  0.00  0.00    +0.000 OA
ATOM     27  H   UNL     1       5.100   6.473  16.346  0.00  0.00    +0.000 HD
ENDBRANCH  11  26
TORSDOF 3
ENDMDL
MODEL 4
REMARK VINA RESULT:      -7.6      7.185     10.666
REMARK  Name = 
REMARK  3 active torsions:
REMARK  status: ('A' for Active; 'I' for Inactive)
REMARK    1  A    between atoms: C_10  and  C_11
REMARK    2  A    between atoms: C_15  and  C_16
REMARK    3  A    between atoms: N_23  and  O_24
REMARK                            x       y       z     vdW  Elec       q    Type
REMARK                         _______ _______ _______ _____ _____    ______ ____
ROOT
ATOM      1  O   UNL     1      -4.080  10.514  16.617  0.00  0.00    +0.000 OA
ATOM      2  C   UNL     1      -3.773  11.240  17.559  0.00  0.00    +0.000 C 
ATOM      3  C   UNL     1      -4.693  11.410  18.714  0.00  0.00    +0.000 A 
ATOM      4  C   UNL     1      -5.936  10.771  18.730  0.00  0.00    +0.000 A 
ATOM      5  C   UNL     1      -6.837  11.053  19.756  0.00  0.00    +0.000 A 
ATOM      6  C   UNL     1      -6.498  11.979  20.744  0.00  0.00    +0.000 A 
ATOM      7  C   UNL     1      -5.241  12.593  20.738  0.00  0.00    +0.000 A 
ATOM      8  C   UNL     1      -4.304  12.275  19.753  0.00  0.00    +0.000 A 
ATOM      9  N   UNL     1      -3.051  12.925  19.737  0.00  0.00    +0.000 N 
ATOM     10  C   UNL     1      -2.044  12.161  18.992  0.00  0.00    +0.000 C 
ATOM     11  N   UNL     1      -2.607  11.990  17.650  0.00  0.00    +0.000 N 
ATOM     12  H   UNL     1      -2.727  13.175  20.665  0.00  0.00    +0.000 HD
ENDROOT
BRANCH  10  13
ATOM     13  C   UNL     1      -0.687  12.792  18.927  0.00  0.00    +0.000 A 
ATOM     14  C   UNL     1      -0.392  14.126  18.721  0.00  0.00    +0.000 A 
ATOM     15  N   UNL     1       0.967  14.228  18.757  0.00  0.00    +0.000 N 
ATOM     16  N   UNL     1       1.578  13.066  19.010  0.00  0.00    +0.000 NA
ATOM     17  C   UNL     1       0.592  12.151  19.077  0.00  0.00    +0.000 A 
ATOM     18  H   UNL     1       1.537  15.055  18.631  0.00  0.00    +0.000 HD
BRANCH  17  19
ATOM     19  C   UNL     1       0.925  10.734  19.294  0.00  0.00    +0.000 A 
ATOM     20  C   UNL     1       0.703  10.139  20.545  0.00  0.00    +0.000 A 
ATOM     21  C   UNL     1       1.052   8.804  20.783  0.00  0.00    +0.000 A 
ATOM     22  C   UNL     1       1.622   8.046  19.768  0.00  0.00    +0.000 A 
ATOM     23 CL   UNL     1       2.078   6.412  20.058  0.00  0.00    +0.000 Cl
ATOM     24  C   UNL     1       1.849   8.611  18.518  0.00  0.00    +0.000 A 
ATOM     25  C   UNL     1       1.507   9.947  18.289  0.00  0.00    +0.000 A 
ENDBRANCH  17  19
ENDBRANCH  10  13
BRANCH  11  26
ATOM     26  O   UNL     1      -1.670  11.680  16.629  0.00  0.00    +0.000 OA
ATOM     27  H   UNL     1      -2.260  11.294  15.956  0.00  0.00    +0.000 HD
ENDBRANCH  11  26
TORSDOF 3
ENDMDL
MODEL 5
REMARK VINA RESULT:      -7.5      3.101      6.554
REMARK  Name = 
REMARK  3 active torsions:
REMARK  status: ('A' for Active; 'I' for Inactive)
REMARK    1  A    between atoms: C_10  and  C_11
REMARK    2  A    between atoms: C_15  and  C_16
REMARK    3  A    between atoms: N_23  and  O_24
REMARK                            x       y       z     vdW  Elec       q    Type
REMARK                         _______ _______ _______ _____ _____    ______ ____
ROOT
ATOM      1  O   UNL     1       1.346   6.100  17.741  0.00  0.00    +0.000 OA
ATOM      2  C   UNL     1       2.391   5.659  18.212  0.00  0.00    +0.000 C 
ATOM      3  C   UNL     1       2.376   4.478  19.113  0.00  0.00    +0.000 A 
ATOM      4  C   UNL     1       1.167   3.869  19.464  0.00  0.00    +0.000 A 
ATOM      5  C   UNL     1       1.164   2.851  20.416  0.00  0.00    +0.000 A 
ATOM      6  C   UNL     1       2.360   2.462  21.021  0.00  0.00    +0.000 A 
ATOM      7  C   UNL     1       3.570   3.054  20.645  0.00  0.00    +0.000 A 
ATOM      8  C   UNL     1       3.598   4.031  19.648  0.00  0.00    +0.000 A 
ATOM      9  N   UNL     1       4.819   4.647  19.299  0.00  0.00    +0.000 N 
ATOM     10  C   UNL     1       4.770   5.251  17.962  0.00  0.00    +0.000 C 
ATOM     11  N   UNL     1       3.655   6.199  18.010  0.00  0.00    +0.000 N 
ATOM     12  H   UNL     1       5.616   4.028  19.406  0.00  0.00    +0.000 HD
ENDROOT
BRANCH  10  13
ATOM     13  C   UNL     1       6.032   5.928  17.524  0.00  0.00    +0.000 A 
ATOM     14  C   UNL     1       6.792   6.830  18.243  0.00  0.00    +0.000 A 
ATOM     15  N   UNL     1       7.848   7.162  17.447  0.00  0.00    +0.000 N 
ATOM     16  N   UNL     1       7.854   6.513  16.278  0.00  0.00    +0.000 NA
ATOM     17  C   UNL     1       6.726   5.777  16.273  0.00  0.00    +0.000 A 
ATOM     18  H   UNL     1       8.602   7.808  17.644  0.00  0.00    +0.000 HD
BRANCH  17  19
ATOM     19  C   UNL     1       6.388   4.969  15.090  0.00  0.00    +0.000 A 
ATOM     20  C   UNL     1       7.272   4.903  14.002  0.00  0.00    +0.000 A 
ATOM     21  C   UNL     1       6.949   4.174  12.851  0.00  0.00    +0.000 A 
ATOM     22  C   UNL     1       5.739   3.496  12.779  0.00  0.00    +0.000 A 
ATOM     23 CL   UNL     1       5.323   2.618  11.358  0.00  0.00    +0.000 Cl
ATOM     24  C   UNL     1       4.848   3.541  13.844  0.00  0.00    +0.000 A 
ATOM     25  C   UNL     1       5.171   4.278  14.987  0.00  0.00    +0.000 A 
ENDBRANCH  17  19
ENDBRANCH  10  13
BRANCH  11  26
ATOM     26  O   UNL     1       3.670   7.212  17.014  0.00  0.00    +0.000 OA
ATOM     27  H   UNL     1       4.092   7.940  17.506  0.00  0.00    +0.000 HD
ENDBRANCH  11  26
TORSDOF 3
ENDMDL
MODEL 6
REMARK VINA RESULT:      -7.5      3.120      6.484
REMARK  Name = 
REMARK  3 active torsions:
REMARK  status: ('A' for Active; 'I' for Inactive)
REMARK    1  A    between atoms: C_10  and  C_11
REMARK    2  A    between atoms: C_15  and  C_16
REMARK    3  A    between atoms: N_23  and  O_24
REMARK                            x       y       z     vdW  Elec       q    Type
REMARK                         _______ _______ _______ _____ _____    ______ ____
ROOT
ATOM      1  O   UNL     1       1.364   5.737  17.565  0.00  0.00    +0.000 OA
ATOM      2  C   UNL     1       2.401   5.385  18.122  0.00  0.00    +0.000 C 
ATOM      3  C   UNL     1       2.396   4.250  19.082  0.00  0.00    +0.000 A 
ATOM      4  C   UNL     1       1.204   3.587  19.389  0.00  0.00    +0.000 A 
ATOM      5  C   UNL     1       1.199   2.618  20.391  0.00  0.00    +0.000 A 
ATOM      6  C   UNL     1       2.374   2.333  21.088  0.00  0.00    +0.000 A 
ATOM      7  C   UNL     1       3.570   2.979  20.756  0.00  0.00    +0.000 A 
ATOM      8  C   UNL     1       3.605   3.906  19.712  0.00  0.00    +0.000 A 
ATOM      9  N   UNL     1       4.809   4.577  19.407  0.00  0.00    +0.000 N 
ATOM     10  C   UNL     1       4.810   5.111  18.040  0.00  0.00    +0.000 C 
ATOM     11  N   UNL     1       3.642   5.991  17.969  0.00  0.00    +0.000 N 
ATOM     12  H   UNL     1       5.631   4.014  19.595  0.00  0.00    +0.000 HD
ENDROOT
BRANCH  10  13
ATOM     13  C   UNL     1       6.057   5.842  17.644  0.00  0.00    +0.000 A 
ATOM     14  C   UNL     1       6.799   6.712  18.419  0.00  0.00    +0.000 A 
ATOM     15  N   UNL     1       7.846   7.116  17.645  0.00  0.00    +0.000 N 
ATOM     16  N   UNL     1       7.863   6.544  16.437  0.00  0.00    +0.000 NA
ATOM     17  C   UNL     1       6.751   5.785  16.386  0.00  0.00    +0.000 A 
ATOM     18  H   UNL     1       8.586   7.765  17.881  0.00  0.00    +0.000 HD
BRANCH  17  19
ATOM     19  C   UNL     1       6.428   5.047  15.155  0.00  0.00    +0.000 A 
ATOM     20  C   UNL     1       5.225   4.330  15.055  0.00  0.00    +0.000 A 
ATOM     21  C   UNL     1       4.918   3.587  13.909  0.00  0.00    +0.000 A 
ATOM     22  C   UNL     1       5.810   3.558  12.844  0.00  0.00    +0.000 A 
ATOM     23 CL   UNL     1       5.453   2.627  11.441  0.00  0.00    +0.000 Cl
ATOM     24  C   UNL     1       7.006   4.262  12.916  0.00  0.00    +0.000 A 
ATOM     25  C   UNL     1       7.312   4.995  14.066  0.00  0.00    +0.000 A 
ENDBRANCH  17  19
ENDBRANCH  10  13
BRANCH  11  26
ATOM     26  O   UNL     1       3.662   6.952  16.925  0.00  0.00    +0.000 OA
ATOM     27  H   UNL     1       2.707   7.082  16.782  0.00  0.00    +0.000 HD
ENDBRANCH  11  26
TORSDOF 3
ENDMDL
MODEL 7
REMARK VINA RESULT:      -7.5      6.576      9.094
REMARK  Name = 
REMARK  3 active torsions:
REMARK  status: ('A' for Active; 'I' for Inactive)
REMARK    1  A    between atoms: C_10  and  C_11
REMARK    2  A    between atoms: C_15  and  C_16
REMARK    3  A    between atoms: N_23  and  O_24
REMARK                            x       y       z     vdW  Elec       q    Type
REMARK                         _______ _______ _______ _____ _____    ______ ____
ROOT
ATOM      1  O   UNL     1       3.525  14.168  22.410  0.00  0.00    +0.000 OA
ATOM      2  C   UNL     1       3.281  14.174  21.207  0.00  0.00    +0.000 C 
ATOM      3  C   UNL     1       4.331  14.556  20.225  0.00  0.00    +0.000 A 
ATOM      4  C   UNL     1       5.602  14.943  20.660  0.00  0.00    +0.000 A 
ATOM      5  C   UNL     1       6.524  15.426  19.734  0.00  0.00    +0.000 A 
ATOM      6  C   UNL     1       6.168  15.535  18.389  0.00  0.00    +0.000 A 
ATOM      7  C   UNL     1       4.905  15.118  17.955  0.00  0.00    +0.000 A 
ATOM      8  C   UNL     1       3.991  14.574  18.860  0.00  0.00    +0.000 A 
ATOM      9  N   UNL     1       2.707  14.187  18.419  0.00  0.00    +0.000 N 
ATOM     10  C   UNL     1       2.080  13.220  19.327  0.00  0.00    +0.000 C 
ATOM     11  N   UNL     1       2.051  13.882  20.633  0.00  0.00    +0.000 N 
ATOM     12  H   UNL     1       2.704  13.862  17.457  0.00  0.00    +0.000 HD
ENDROOT
BRANCH  10  13
ATOM     13  C   UNL     1       0.711  12.765  18.924  0.00  0.00    +0.000 A 
ATOM     14  C   UNL     1      -0.373  13.558  18.600  0.00  0.00    +0.000 A 
ATOM     15  N   UNL     1      -1.391  12.707  18.288  0.00  0.00    +0.000 N 
ATOM     16  N   UNL     1      -1.040  11.418  18.348  0.00  0.00    +0.000 NA
ATOM     17  C   UNL     1       0.236  11.415  18.779  0.00  0.00    +0.000 A 
ATOM     18  H   UNL     1      -2.339  12.936  18.016  0.00  0.00    +0.000 HD
BRANCH  17  19
ATOM     19  C   UNL     1       0.926  10.136  19.010  0.00  0.00    +0.000 A 
ATOM     20  C   UNL     1       1.637   9.518  17.969  0.00  0.00    +0.000 A 
ATOM     21  C   UNL     1       2.264   8.280  18.157  0.00  0.00    +0.000 A 
ATOM     22  C   UNL     1       2.192   7.649  19.393  0.00  0.00    +0.000 A 
ATOM     23 CL   UNL     1       2.939   6.116  19.626  0.00  0.00    +0.000 Cl
ATOM     24  C   UNL     1       1.498   8.242  20.441  0.00  0.00    +0.000 A 
ATOM     25  C   UNL     1       0.866   9.473  20.245  0.00  0.00    +0.000 A 
ENDBRANCH  17  19
ENDBRANCH  10  13
BRANCH  11  26
ATOM     26  O   UNL     1       1.118  13.355  21.565  0.00  0.00    +0.000 OA
ATOM     27  H   UNL     1       0.863  12.528  21.115  0.00  0.00    +0.000 HD
ENDBRANCH  11  26
TORSDOF 3
ENDMDL
MODEL 8
REMARK VINA RESULT:      -7.4      7.264     10.750
REMARK  Name = 
REMARK  3 active torsions:
REMARK  status: ('A' for Active; 'I' for Inactive)
REMARK    1  A    between atoms: C_10  and  C_11
REMARK    2  A    between atoms: C_15  and  C_16
REMARK    3  A    between atoms: N_23  and  O_24
REMARK                            x       y       z     vdW  Elec       q    Type
REMARK                         _______ _______ _______ _____ _____    ______ ____
ROOT
ATOM      1  O   UNL     1      -3.811  10.566  16.576  0.00  0.00    +0.000 OA
ATOM      2  C   UNL     1      -3.661  11.273  17.569  0.00  0.00    +0.000 C 
ATOM      3  C   UNL     1      -4.733  11.373  18.594  0.00  0.00    +0.000 A 
ATOM      4  C   UNL     1      -5.941  10.689  18.427  0.00  0.00    +0.000 A 
ATOM      5  C   UNL     1      -6.980  10.905  19.330  0.00  0.00    +0.000 A 
ATOM      6  C   UNL     1      -6.814  11.811  20.378  0.00  0.00    +0.000 A 
ATOM      7  C   UNL     1      -5.593  12.470  20.557  0.00  0.00    +0.000 A 
ATOM      8  C   UNL     1      -4.521  12.218  19.699  0.00  0.00    +0.000 A 
ATOM      9  N   UNL     1      -3.304  12.913  19.867  0.00  0.00    +0.000 N 
ATOM     10  C   UNL     1      -2.177  12.210  19.244  0.00  0.00    +0.000 C 
ATOM     11  N   UNL     1      -2.549  12.061  17.835  0.00  0.00    +0.000 N 
ATOM     12  H   UNL     1      -3.117  13.146  20.837  0.00  0.00    +0.000 HD
ENDROOT
BRANCH  10  13
ATOM     13  C   UNL     1      -0.850  12.892  19.379  0.00  0.00    +0.000 A 
ATOM     14  C   UNL     1      -0.581  14.238  19.228  0.00  0.00    +0.000 A 
ATOM     15  N   UNL     1       0.754  14.391  19.458  0.00  0.00    +0.000 N 
ATOM     16  N   UNL     1       1.368  13.249  19.785  0.00  0.00    +0.000 NA
ATOM     17  C   UNL     1       0.419  12.297  19.703  0.00  0.00    +0.000 A 
ATOM     18  H   UNL     1       1.304  15.240  19.421  0.00  0.00    +0.000 HD
BRANCH  17  19
ATOM     19  C   UNL     1       0.772  10.890  19.952  0.00  0.00    +0.000 A 
ATOM     20  C   UNL     1       1.240  10.083  18.904  0.00  0.00    +0.000 A 
ATOM     21  C   UNL     1       1.541   8.731  19.111  0.00  0.00    +0.000 A 
ATOM     22  C   UNL     1       1.385   8.173  20.374  0.00  0.00    +0.000 A 
ATOM     23 CL   UNL     1       1.729   6.507  20.633  0.00  0.00    +0.000 Cl
ATOM     24  C   UNL     1       0.928   8.953  21.430  0.00  0.00    +0.000 A 
ATOM     25  C   UNL     1       0.619  10.299  21.216  0.00  0.00    +0.000 A 
ENDBRANCH  17  19
ENDBRANCH  10  13
BRANCH  11  26
ATOM     26  O   UNL     1      -1.474  11.818  16.941  0.00  0.00    +0.000 OA
ATOM     27  H   UNL     1      -1.776  10.994  16.516  0.00  0.00    +0.000 HD
ENDBRANCH  11  26
TORSDOF 3
ENDMDL
MODEL 9
REMARK VINA RESULT:      -7.4      2.936      6.022
REMARK  Name = 
REMARK  3 active torsions:
REMARK  status: ('A' for Active; 'I' for Inactive)
REMARK    1  A    between atoms: C_10  and  C_11
REMARK    2  A    between atoms: C_15  and  C_16
REMARK    3  A    between atoms: N_23  and  O_24
REMARK                            x       y       z     vdW  Elec       q    Type
REMARK                         _______ _______ _______ _____ _____    ______ ____
ROOT
ATOM      1  O   UNL     1       2.683   2.411  19.398  0.00  0.00    +0.000 OA
ATOM      2  C   UNL     1       3.043   3.488  18.931  0.00  0.00    +0.000 C 
ATOM      3  C   UNL     1       2.580   4.766  19.533  0.00  0.00    +0.000 A 
ATOM      4  C   UNL     1       1.701   4.761  20.620  0.00  0.00    +0.000 A 
ATOM      5  C   UNL     1       1.175   5.966  21.080  0.00  0.00    +0.000 A 
ATOM      6  C   UNL     1       1.513   7.161  20.444  0.00  0.00    +0.000 A 
ATOM      7  C   UNL     1       2.415   7.163  19.374  0.00  0.00    +0.000 A 
ATOM      8  C   UNL     1       3.000   5.972  18.942  0.00  0.00    +0.000 A 
ATOM      9  N   UNL     1       3.883   5.980  17.841  0.00  0.00    +0.000 N 
ATOM     10  C   UNL     1       4.759   4.802  17.828  0.00  0.00    +0.000 C 
ATOM     11  N   UNL     1       3.854   3.650  17.815  0.00  0.00    +0.000 N 
ATOM     12  H   UNL     1       4.409   6.844  17.766  0.00  0.00    +0.000 HD
ENDROOT
BRANCH  10  13
ATOM     13  C   UNL     1       5.723   4.739  16.683  0.00  0.00    +0.000 A 
ATOM     14  C   UNL     1       5.691   3.874  15.607  0.00  0.00    +0.000 A 
ATOM     15  N   UNL     1       6.756   4.200  14.821  0.00  0.00    +0.000 N 
ATOM     16  N   UNL     1       7.457   5.238  15.285  0.00  0.00    +0.000 NA
ATOM     17  C   UNL     1       6.876   5.569  16.454  0.00  0.00    +0.000 A 
ATOM     18  H   UNL     1       7.051   3.766  13.955  0.00  0.00    +0.000 HD
BRANCH  17  19
ATOM     19  C   UNL     1       7.440   6.657  17.268  0.00  0.00    +0.000 A 
ATOM     20  C   UNL     1       7.449   7.973  16.781  0.00  0.00    +0.000 A 
ATOM     21  C   UNL     1       8.019   9.015  17.522  0.00  0.00    +0.000 A 
ATOM     22  C   UNL     1       8.582   8.753  18.765  0.00  0.00    +0.000 A 
ATOM     23 CL   UNL     1       9.308  10.022  19.672  0.00  0.00    +0.000 Cl
ATOM     24  C   UNL     1       8.583   7.459  19.272  0.00  0.00    +0.000 A 
ATOM     25  C   UNL     1       8.020   6.420  18.524  0.00  0.00    +0.000 A 
ENDBRANCH  17  19
ENDBRANCH  10  13
BRANCH  11  26
ATOM     26  O   UNL     1       4.423   2.430  17.365  0.00  0.00    +0.000 OA
ATOM     27  H   UNL     1       5.120   2.766  16.771  0.00  0.00    +0.000 HD
ENDBRANCH  11  26
TORSDOF 3
ENDMDL
