MODEL 1
REMARK VINA RESULT:      -8.0      0.000      0.000
REMARK  Name = 
REMARK  4 active torsions:
REMARK  status: ('A' for Active; 'I' for Inactive)
REMARK    1  A    between atoms: C_1  and  C_2
REMARK    2  A    between atoms: C_2  and  N_3
REMARK    3  A    between atoms: N_3  and  C_4
REMARK    4  A    between atoms: C_16  and  C_17
REMARK                            x       y       z     vdW  Elec       q    Type
REMARK                         _______ _______ _______ _____ _____    ______ ____
ROOT
ATOM      1  C   UNL     1      -0.315  12.539  18.567  0.00  0.00    +0.000 A 
ATOM      2  N   UNL     1      -0.406  13.912  18.372  0.00  0.00    +0.000 NA
ATOM      3  C   UNL     1       0.266  14.719  19.126  0.00  0.00    +0.000 A 
ATOM      4  N   UNL     1       0.309  16.092  18.965  0.00  0.00    +0.000 N 
ATOM      5  C   UNL     1       1.484  16.911  19.307  0.00  0.00    +0.000 C 
ATOM      6  C   UNL     1       1.940  17.719  18.088  0.00  0.00    +0.000 C 
ATOM      7  O   UNL     1       0.879  18.549  17.601  0.00  0.00    +0.000 OA
ATOM      8  C   UNL     1      -0.235  17.737  17.191  0.00  0.00    +0.000 C 
ATOM      9  C   UNL     1      -0.771  16.869  18.343  0.00  0.00    +0.000 C 
ATOM     10  N   UNL     1       1.005  14.241  20.165  0.00  0.00    +0.000 N 
ATOM     11  C   UNL     1       1.184  12.917  20.430  0.00  0.00    +0.000 A 
ATOM     12  O   UNL     1       1.905  12.570  21.357  0.00  0.00    +0.000 OA
ATOM     13  C   UNL     1       0.501  11.996  19.510  0.00  0.00    +0.000 A 
ATOM     14  H   UNL     1       1.444  14.873  20.817  0.00  0.00    +0.000 HD
ENDROOT
BRANCH  13  15
ATOM     15  C   UNL     1       0.820  10.565  19.613  0.00  0.00    +0.000 A 
ATOM     16  C   UNL     1       0.539   9.869  20.785  0.00  0.00    +0.000 A 
ATOM     17  C   UNL     1       0.979   8.554  20.902  0.00  0.00    +0.000 A 
ATOM     18  C   UNL     1       1.712   7.976  19.861  0.00  0.00    +0.000 A 
ATOM     19  C   UNL     1       2.280   6.696  19.976  0.00  0.00    +0.000 A 
ATOM     20  C   UNL     1       3.089   6.189  18.962  0.00  0.00    +0.000 A 
ATOM     21  C   UNL     1       3.329   6.956  17.829  0.00  0.00    +0.000 A 
ATOM     22  C   UNL     1       2.732   8.214  17.700  0.00  0.00    +0.000 A 
ATOM     23  C   UNL     1       1.920   8.742  18.695  0.00  0.00    +0.000 A 
ATOM     24  N   UNL     1       1.445   9.994  18.556  0.00  0.00    +0.000 NA
ENDBRANCH  13  15
BRANCH   1  25
ATOM     25  N   UNL     1      -1.027  11.751  17.642  0.00  0.00    +0.000 N 
ATOM     26  H   UNL     1      -0.996  12.295  16.781  0.00  0.00    +0.000 HD
BRANCH  25  28
ATOM     27  C   UNL     1      -2.397   9.786  18.179  0.00  0.00    +0.000 C 
ATOM     28  C   UNL     1      -2.442  11.291  17.859  0.00  0.00    +0.000 C 
ATOM     29  C   UNL     1      -3.246  11.493  16.542  0.00  0.00    +0.000 C 
ATOM     30  C   UNL     1      -4.756  11.277  16.724  0.00  0.00    +0.000 C 
ATOM     31  C   UNL     1      -5.311  12.095  17.887  0.00  0.00    +0.000 C 
ATOM     32  N   UNL     1      -4.619  11.785  19.133  0.00  0.00    +0.000 NA
ATOM     33  C   UNL     1      -3.177  12.078  18.990  0.00  0.00    +0.000 C 
ATOM     34  H   UNL     1      -4.745  10.801  19.367  0.00  0.00    +0.000 HD
ENDBRANCH  25  28
ENDBRANCH   1  25
TORSDOF 3
ENDMDL
MODEL 2
REMARK VINA RESULT:      -7.9      3.394      7.399
REMARK  Name = 
REMARK  4 active torsions:
REMARK  status: ('A' for Active; 'I' for Inactive)
REMARK    1  A    between atoms: C_1  and  C_2
REMARK    2  A    between atoms: C_2  and  N_3
REMARK    3  A    between atoms: N_3  and  C_4
REMARK    4  A    between atoms: C_16  and  C_17
REMARK                            x       y       z     vdW  Elec       q    Type
REMARK                         _______ _______ _______ _____ _____    ______ ____
ROOT
ATOM      1  C   UNL     1       0.485  10.528  20.431  0.00  0.00    +0.000 A 
ATOM      2  N   UNL     1       1.098   9.424  19.852  0.00  0.00    +0.000 NA
ATOM      3  C   UNL     1       1.485   8.436  20.592  0.00  0.00    +0.000 A 
ATOM      4  N   UNL     1       2.030   7.260  20.109  0.00  0.00    +0.000 N 
ATOM      5  C   UNL     1       1.855   5.955  20.770  0.00  0.00    +0.000 C 
ATOM      6  C   UNL     1       1.242   4.945  19.795  0.00  0.00    +0.000 C 
ATOM      7  O   UNL     1       2.059   4.806  18.626  0.00  0.00    +0.000 OA
ATOM      8  C   UNL     1       2.158   6.066  17.940  0.00  0.00    +0.000 C 
ATOM      9  C   UNL     1       2.755   7.165  18.836  0.00  0.00    +0.000 C 
ATOM     10  N   UNL     1       1.370   8.500  21.947  0.00  0.00    +0.000 N 
ATOM     11  C   UNL     1       0.763   9.521  22.614  0.00  0.00    +0.000 A 
ATOM     12  O   UNL     1       0.658   9.478  23.834  0.00  0.00    +0.000 OA
ATOM     13  C   UNL     1       0.232  10.597  21.766  0.00  0.00    +0.000 A 
ATOM     14  H   UNL     1       1.765   7.780  22.531  0.00  0.00    +0.000 HD
ENDROOT
BRANCH  13  15
ATOM     15  C   UNL     1      -0.613  11.618  22.403  0.00  0.00    +0.000 A 
ATOM     16  C   UNL     1      -1.830  11.259  22.975  0.00  0.00    +0.000 A 
ATOM     17  C   UNL     1      -2.668  12.265  23.444  0.00  0.00    +0.000 A 
ATOM     18  C   UNL     1      -2.286  13.603  23.305  0.00  0.00    +0.000 A 
ATOM     19  C   UNL     1      -3.145  14.660  23.654  0.00  0.00    +0.000 A 
ATOM     20  C   UNL     1      -2.775  15.980  23.409  0.00  0.00    +0.000 A 
ATOM     21  C   UNL     1      -1.545  16.249  22.823  0.00  0.00    +0.000 A 
ATOM     22  C   UNL     1      -0.676  15.199  22.512  0.00  0.00    +0.000 A 
ATOM     23  C   UNL     1      -1.020  13.874  22.746  0.00  0.00    +0.000 A 
ATOM     24  N   UNL     1      -0.181  12.900  22.345  0.00  0.00    +0.000 NA
ENDBRANCH  13  15
BRANCH   1  25
ATOM     25  N   UNL     1       0.034  11.509  19.527  0.00  0.00    +0.000 N 
ATOM     26  H   UNL     1      -0.004  12.361  20.086  0.00  0.00    +0.000 HD
BRANCH  25  28
ATOM     27  C   UNL     1      -2.338  12.142  19.548  0.00  0.00    +0.000 C 
ATOM     28  C   UNL     1      -1.251  11.396  18.753  0.00  0.00    +0.000 C 
ATOM     29  C   UNL     1      -1.652   9.895  18.657  0.00  0.00    +0.000 C 
ATOM     30  C   UNL     1      -2.819   9.649  17.689  0.00  0.00    +0.000 C 
ATOM     31  C   UNL     1      -2.568  10.282  16.324  0.00  0.00    +0.000 C 
ATOM     32  N   UNL     1      -2.324  11.716  16.441  0.00  0.00    +0.000 NA
ATOM     33  C   UNL     1      -1.145  11.953  17.299  0.00  0.00    +0.000 C 
ATOM     34  H   UNL     1      -3.137  12.178  16.844  0.00  0.00    +0.000 HD
ENDBRANCH  25  28
ENDBRANCH   1  25
TORSDOF 3
ENDMDL
MODEL 3
REMARK VINA RESULT:      -7.8      3.128      7.376
REMARK  Name = 
REMARK  4 active torsions:
REMARK  status: ('A' for Active; 'I' for Inactive)
REMARK    1  A    between atoms: C_1  and  C_2
REMARK    2  A    between atoms: C_2  and  N_3
REMARK    3  A    between atoms: N_3  and  C_4
REMARK    4  A    between atoms: C_16  and  C_17
REMARK                            x       y       z     vdW  Elec       q    Type
REMARK                         _______ _______ _______ _____ _____    ______ ____
ROOT
ATOM      1  C   UNL     1       0.802   9.982  19.991  0.00  0.00    +0.000 A 
ATOM      2  N   UNL     1       1.284   8.772  19.507  0.00  0.00    +0.000 NA
ATOM      3  C   UNL     1       1.730   7.877  20.327  0.00  0.00    +0.000 A 
ATOM      4  N   UNL     1       2.154   6.614  19.957  0.00  0.00    +0.000 N 
ATOM      5  C   UNL     1       2.019   5.429  20.820  0.00  0.00    +0.000 C 
ATOM      6  C   UNL     1       1.237   4.329  20.094  0.00  0.00    +0.000 C 
ATOM      7  O   UNL     1       1.879   3.978  18.862  0.00  0.00    +0.000 OA
ATOM      8  C   UNL     1       1.933   5.121  17.990  0.00  0.00    +0.000 C 
ATOM      9  C   UNL     1       2.692   6.297  18.628  0.00  0.00    +0.000 C 
ATOM     10  N   UNL     1       1.805   8.138  21.661  0.00  0.00    +0.000 N 
ATOM     11  C   UNL     1       1.339   9.277  22.244  0.00  0.00    +0.000 A 
ATOM     12  O   UNL     1       1.402   9.414  23.460  0.00  0.00    +0.000 OA
ATOM     13  C   UNL     1       0.740  10.253  21.323  0.00  0.00    +0.000 A 
ATOM     14  H   UNL     1       2.248   7.485  22.288  0.00  0.00    +0.000 HD
ENDROOT
BRANCH  13  15
ATOM     15  C   UNL     1       0.034  11.403  21.907  0.00  0.00    +0.000 A 
ATOM     16  C   UNL     1      -1.119  11.204  22.662  0.00  0.00    +0.000 A 
ATOM     17  C   UNL     1      -1.841  12.317  23.082  0.00  0.00    +0.000 A 
ATOM     18  C   UNL     1      -1.412  13.597  22.716  0.00  0.00    +0.000 A 
ATOM     19  C   UNL     1      -2.167  14.745  23.013  0.00  0.00    +0.000 A 
ATOM     20  C   UNL     1      -1.764  15.994  22.547  0.00  0.00    +0.000 A 
ATOM     21  C   UNL     1      -0.604  16.101  21.789  0.00  0.00    +0.000 A 
ATOM     22  C   UNL     1       0.165  14.964  21.528  0.00  0.00    +0.000 A 
ATOM     23  C   UNL     1      -0.213  13.706  21.981  0.00  0.00    +0.000 A 
ATOM     24  N   UNL     1       0.518  12.635  21.623  0.00  0.00    +0.000 NA
ENDBRANCH  13  15
BRANCH   1  25
ATOM     25  N   UNL     1       0.271  10.851  19.019  0.00  0.00    +0.000 N 
ATOM     26  H   UNL     1       0.327  11.771  19.454  0.00  0.00    +0.000 HD
BRANCH  25  28
ATOM     27  C   UNL     1      -1.994  10.033  19.494  0.00  0.00    +0.000 C 
ATOM     28  C   UNL     1      -1.102  10.692  18.426  0.00  0.00    +0.000 C 
ATOM     29  C   UNL     1      -1.015   9.741  17.198  0.00  0.00    +0.000 C 
ATOM     30  C   UNL     1      -2.315   9.698  16.381  0.00  0.00    +0.000 C 
ATOM     31  C   UNL     1      -2.799  11.097  16.011  0.00  0.00    +0.000 C 
ATOM     32  N   UNL     1      -2.995  11.922  17.198  0.00  0.00    +0.000 NA
ATOM     33  C   UNL     1      -1.722  12.040  17.940  0.00  0.00    +0.000 C 
ATOM     34  H   UNL     1      -3.702  11.506  17.801  0.00  0.00    +0.000 HD
ENDBRANCH  25  28
ENDBRANCH   1  25
TORSDOF 3
ENDMDL
MODEL 4
REMARK VINA RESULT:      -7.7      3.373      7.442
REMARK  Name = 
REMARK  4 active torsions:
REMARK  status: ('A' for Active; 'I' for Inactive)
REMARK    1  A    between atoms: C_1  and  C_2
REMARK    2  A    between atoms: C_2  and  N_3
REMARK    3  A    between atoms: N_3  and  C_4
REMARK    4  A    between atoms: C_16  and  C_17
REMARK                            x       y       z     vdW  Elec       q    Type
REMARK                         _______ _______ _______ _____ _____    ______ ____
ROOT
ATOM      1  C   UNL     1       0.793   9.822  19.574  0.00  0.00    +0.000 A 
ATOM      2  N   UNL     1       1.272   8.575  19.189  0.00  0.00    +0.000 NA
ATOM      3  C   UNL     1       1.730   7.755  20.078  0.00  0.00    +0.000 A 
ATOM      4  N   UNL     1       2.153   6.465  19.812  0.00  0.00    +0.000 N 
ATOM      5  C   UNL     1       2.033   5.358  20.776  0.00  0.00    +0.000 C 
ATOM      6  C   UNL     1       1.245   4.199  20.157  0.00  0.00    +0.000 C 
ATOM      7  O   UNL     1       1.872   3.745  18.952  0.00  0.00    +0.000 OA
ATOM      8  C   UNL     1       1.912   4.808  17.984  0.00  0.00    +0.000 C 
ATOM      9  C   UNL     1       2.675   6.036  18.509  0.00  0.00    +0.000 C 
ATOM     10  N   UNL     1       1.822   8.130  21.384  0.00  0.00    +0.000 N 
ATOM     11  C   UNL     1       1.359   9.314  21.872  0.00  0.00    +0.000 A 
ATOM     12  O   UNL     1       1.437   9.555  23.070  0.00  0.00    +0.000 OA
ATOM     13  C   UNL     1       0.746  10.207  20.878  0.00  0.00    +0.000 A 
ATOM     14  H   UNL     1       2.274   7.534  22.059  0.00  0.00    +0.000 HD
ENDROOT
BRANCH  13  15
ATOM     15  C   UNL     1       0.044  11.401  21.369  0.00  0.00    +0.000 A 
ATOM     16  C   UNL     1       0.630  12.657  21.243  0.00  0.00    +0.000 A 
ATOM     17  C   UNL     1       0.007  13.747  21.842  0.00  0.00    +0.000 A 
ATOM     18  C   UNL     1      -1.168  13.553  22.576  0.00  0.00    +0.000 A 
ATOM     19  C   UNL     1      -1.772  14.598  23.297  0.00  0.00    +0.000 A 
ATOM     20  C   UNL     1      -2.883  14.350  24.099  0.00  0.00    +0.000 A 
ATOM     21  C   UNL     1      -3.398  13.062  24.178  0.00  0.00    +0.000 A 
ATOM     22  C   UNL     1      -2.819  12.033  23.430  0.00  0.00    +0.000 A 
ATOM     23  C   UNL     1      -1.711  12.253  22.621  0.00  0.00    +0.000 A 
ATOM     24  N   UNL     1      -1.142  11.207  21.994  0.00  0.00    +0.000 NA
ENDBRANCH  13  15
BRANCH   1  25
ATOM     25  N   UNL     1       0.247  10.603  18.537  0.00  0.00    +0.000 N 
ATOM     26  H   UNL     1       0.442  11.561  18.822  0.00  0.00    +0.000 HD
BRANCH  25  28
ATOM     27  C   UNL     1      -1.964   9.777  19.211  0.00  0.00    +0.000 C 
ATOM     28  C   UNL     1      -1.192  10.522  18.107  0.00  0.00    +0.000 C 
ATOM     29  C   UNL     1      -1.281   9.691  16.794  0.00  0.00    +0.000 C 
ATOM     30  C   UNL     1      -2.672   9.746  16.145  0.00  0.00    +0.000 C 
ATOM     31  C   UNL     1      -3.160  11.181  15.969  0.00  0.00    +0.000 C 
ATOM     32  N   UNL     1      -3.187  11.892  17.243  0.00  0.00    +0.000 NA
ATOM     33  C   UNL     1      -1.830  11.919  17.829  0.00  0.00    +0.000 C 
ATOM     34  H   UNL     1      -3.826  11.431  17.888  0.00  0.00    +0.000 HD
ENDBRANCH  25  28
ENDBRANCH   1  25
TORSDOF 3
ENDMDL
MODEL 5
REMARK VINA RESULT:      -7.5      1.401      1.911
REMARK  Name = 
REMARK  4 active torsions:
REMARK  status: ('A' for Active; 'I' for Inactive)
REMARK    1  A    between atoms: C_1  and  C_2
REMARK    2  A    between atoms: C_2  and  N_3
REMARK    3  A    between atoms: N_3  and  C_4
REMARK    4  A    between atoms: C_16  and  C_17
REMARK                            x       y       z     vdW  Elec       q    Type
REMARK                         _______ _______ _______ _____ _____    ______ ____
ROOT
ATOM      1  C   UNL     1      -1.231  12.514  20.315  0.00  0.00    +0.000 A 
ATOM      2  N   UNL     1      -1.552  13.864  20.240  0.00  0.00    +0.000 NA
ATOM      3  C   UNL     1      -0.636  14.759  20.420  0.00  0.00    +0.000 A 
ATOM      4  N   UNL     1      -0.832  16.122  20.287  0.00  0.00    +0.000 N 
ATOM      5  C   UNL     1       0.216  17.050  19.831  0.00  0.00    +0.000 C 
ATOM      6  C   UNL     1      -0.266  17.834  18.606  0.00  0.00    +0.000 C 
ATOM      7  O   UNL     1      -1.471  18.550  18.903  0.00  0.00    +0.000 OA
ATOM      8  C   UNL     1      -2.515  17.630  19.268  0.00  0.00    +0.000 C 
ATOM      9  C   UNL     1      -2.130  16.777  20.489  0.00  0.00    +0.000 C 
ATOM     10  N   UNL     1       0.631  14.394  20.761  0.00  0.00    +0.000 N 
ATOM     11  C   UNL     1       1.058  13.103  20.836  0.00  0.00    +0.000 A 
ATOM     12  O   UNL     1       2.229  12.860  21.103  0.00  0.00    +0.000 OA
ATOM     13  C   UNL     1       0.041  12.086  20.532  0.00  0.00    +0.000 A 
ATOM     14  H   UNL     1       1.319  15.089  21.003  0.00  0.00    +0.000 HD
ENDROOT
BRANCH  13  15
ATOM     15  C   UNL     1       0.487  10.692  20.392  0.00  0.00    +0.000 A 
ATOM     16  C   UNL     1       0.538   9.860  21.506  0.00  0.00    +0.000 A 
ATOM     17  C   UNL     1       1.095   8.593  21.367  0.00  0.00    +0.000 A 
ATOM     18  C   UNL     1       1.613   8.198  20.129  0.00  0.00    +0.000 A 
ATOM     19  C   UNL     1       2.292   6.978  19.964  0.00  0.00    +0.000 A 
ATOM     20  C   UNL     1       2.883   6.660  18.744  0.00  0.00    +0.000 A 
ATOM     21  C   UNL     1       2.794   7.554  17.685  0.00  0.00    +0.000 A 
ATOM     22  C   UNL     1       2.087   8.750  17.840  0.00  0.00    +0.000 A 
ATOM     23  C   UNL     1       1.486   9.092  19.045  0.00  0.00    +0.000 A 
ATOM     24  N   UNL     1       0.895  10.295  19.163  0.00  0.00    +0.000 NA
ENDBRANCH  13  15
BRANCH   1  25
ATOM     25  N   UNL     1      -2.287  11.628  20.027  0.00  0.00    +0.000 N 
ATOM     26  H   UNL     1      -1.958  10.730  20.381  0.00  0.00    +0.000 HD
BRANCH  25  28
ATOM     27  C   UNL     1      -4.232  12.070  18.596  0.00  0.00    +0.000 C 
ATOM     28  C   UNL     1      -2.838  11.417  18.644  0.00  0.00    +0.000 C 
ATOM     29  C   UNL     1      -3.000   9.889  18.393  0.00  0.00    +0.000 C 
ATOM     30  C   UNL     1      -3.333   9.555  16.931  0.00  0.00    +0.000 C 
ATOM     31  C   UNL     1      -2.355  10.213  15.962  0.00  0.00    +0.000 C 
ATOM     32  N   UNL     1      -2.326  11.661  16.138  0.00  0.00    +0.000 NA
ATOM     33  C   UNL     1      -1.917  11.988  17.520  0.00  0.00    +0.000 C 
ATOM     34  H   UNL     1      -3.247  12.055  15.953  0.00  0.00    +0.000 HD
ENDBRANCH  25  28
ENDBRANCH   1  25
TORSDOF 3
ENDMDL
MODEL 6
REMARK VINA RESULT:      -7.4      3.443      7.447
REMARK  Name = 
REMARK  4 active torsions:
REMARK  status: ('A' for Active; 'I' for Inactive)
REMARK    1  A    between atoms: C_1  and  C_2
REMARK    2  A    between atoms: C_2  and  N_3
REMARK    3  A    between atoms: N_3  and  C_4
REMARK    4  A    between atoms: C_16  and  C_17
REMARK                            x       y       z     vdW  Elec       q    Type
REMARK                         _______ _______ _______ _____ _____    ______ ____
ROOT
ATOM      1  C   UNL     1       0.611  10.411  20.052  0.00  0.00    +0.000 A 
ATOM      2  N   UNL     1       1.171   9.232  19.573  0.00  0.00    +0.000 NA
ATOM      3  C   UNL     1       1.539   8.308  20.398  0.00  0.00    +0.000 A 
ATOM      4  N   UNL     1       2.031   7.071  20.024  0.00  0.00    +0.000 N 
ATOM      5  C   UNL     1       1.824   5.844  20.812  0.00  0.00    +0.000 C 
ATOM      6  C   UNL     1       1.154   4.767  19.952  0.00  0.00    +0.000 C 
ATOM      7  O   UNL     1       1.940   4.485  18.788  0.00  0.00    +0.000 OA
ATOM      8  C   UNL     1       2.069   5.668  17.979  0.00  0.00    +0.000 C 
ATOM      9  C   UNL     1       2.724   6.825  18.753  0.00  0.00    +0.000 C 
ATOM     10  N   UNL     1       1.456   8.507  21.743  0.00  0.00    +0.000 N 
ATOM     11  C   UNL     1       0.901   9.610  22.318  0.00  0.00    +0.000 A 
ATOM     12  O   UNL     1       0.821   9.690  23.537  0.00  0.00    +0.000 OA
ATOM     13  C   UNL     1       0.390  10.618  21.378  0.00  0.00    +0.000 A 
ATOM     14  H   UNL     1       1.838   7.833  22.387  0.00  0.00    +0.000 HD
ENDROOT
BRANCH  13  15
ATOM     15  C   UNL     1      -0.403  11.727  21.928  0.00  0.00    +0.000 A 
ATOM     16  C   UNL     1       0.124  13.015  21.958  0.00  0.00    +0.000 A 
ATOM     17  C   UNL     1      -0.592  14.014  22.609  0.00  0.00    +0.000 A 
ATOM     18  C   UNL     1      -1.800  13.698  23.239  0.00  0.00    +0.000 A 
ATOM     19  C   UNL     1      -2.503  14.641  24.010  0.00  0.00    +0.000 A 
ATOM     20  C   UNL     1      -3.649  14.268  24.707  0.00  0.00    +0.000 A 
ATOM     21  C   UNL     1      -4.101  12.956  24.631  0.00  0.00    +0.000 A 
ATOM     22  C   UNL     1      -3.422  12.030  23.834  0.00  0.00    +0.000 A 
ATOM     23  C   UNL     1      -2.277  12.376  23.127  0.00  0.00    +0.000 A 
ATOM     24  N   UNL     1      -1.616  11.421  22.448  0.00  0.00    +0.000 NA
ENDBRANCH  13  15
BRANCH   1  25
ATOM     25  N   UNL     1       0.176  11.315  19.064  0.00  0.00    +0.000 N 
ATOM     26  H   UNL     1       0.296  12.230  19.498  0.00  0.00    +0.000 HD
BRANCH  25  28
ATOM     27  C   UNL     1      -2.117  12.167  19.275  0.00  0.00    +0.000 C 
ATOM     28  C   UNL     1      -1.191  11.266  18.439  0.00  0.00    +0.000 C 
ATOM     29  C   UNL     1      -1.726   9.806  18.510  0.00  0.00    +0.000 C 
ATOM     30  C   UNL     1      -3.009   9.598  17.692  0.00  0.00    +0.000 C 
ATOM     31  C   UNL     1      -2.856  10.102  16.259  0.00  0.00    +0.000 C 
ATOM     32  N   UNL     1      -2.480  11.511  16.229  0.00  0.00    +0.000 NA
ATOM     33  C   UNL     1      -1.197  11.701  16.940  0.00  0.00    +0.000 C 
ATOM     34  H   UNL     1      -3.202  12.076  16.674  0.00  0.00    +0.000 HD
ENDBRANCH  25  28
ENDBRANCH   1  25
TORSDOF 3
ENDMDL
MODEL 7
REMARK VINA RESULT:      -7.3      3.373      5.081
REMARK  Name = 
REMARK  4 active torsions:
REMARK  status: ('A' for Active; 'I' for Inactive)
REMARK    1  A    between atoms: C_1  and  C_2
REMARK    2  A    between atoms: C_2  and  N_3
REMARK    3  A    between atoms: N_3  and  C_4
REMARK    4  A    between atoms: C_16  and  C_17
REMARK                            x       y       z     vdW  Elec       q    Type
REMARK                         _______ _______ _______ _____ _____    ______ ____
ROOT
ATOM      1  C   UNL     1       0.256  13.429  21.791  0.00  0.00    +0.000 A 
ATOM      2  N   UNL     1      -0.075  14.569  22.514  0.00  0.00    +0.000 NA
ATOM      3  C   UNL     1      -0.976  14.510  23.439  0.00  0.00    +0.000 A 
ATOM      4  N   UNL     1      -1.321  15.562  24.268  0.00  0.00    +0.000 N 
ATOM      5  C   UNL     1      -1.782  15.383  25.655  0.00  0.00    +0.000 C 
ATOM      6  C   UNL     1      -0.891  16.177  26.616  0.00  0.00    +0.000 C 
ATOM      7  O   UNL     1      -0.882  17.567  26.270  0.00  0.00    +0.000 OA
ATOM      8  C   UNL     1      -0.353  17.743  24.944  0.00  0.00    +0.000 C 
ATOM      9  C   UNL     1      -1.170  16.973  23.891  0.00  0.00    +0.000 C 
ATOM     10  N   UNL     1      -1.665  13.357  23.661  0.00  0.00    +0.000 N 
ATOM     11  C   UNL     1      -1.405  12.178  23.030  0.00  0.00    +0.000 A 
ATOM     12  O   UNL     1      -2.039  11.173  23.323  0.00  0.00    +0.000 OA
ATOM     13  C   UNL     1      -0.310  12.220  22.049  0.00  0.00    +0.000 A 
ATOM     14  H   UNL     1      -2.439  13.336  24.307  0.00  0.00    +0.000 HD
ENDROOT
BRANCH  13  15
ATOM     15  C   UNL     1       0.157  10.944  21.490  0.00  0.00    +0.000 A 
ATOM     16  C   UNL     1       0.475   9.885  22.336  0.00  0.00    +0.000 A 
ATOM     17  C   UNL     1       1.046   8.741  21.787  0.00  0.00    +0.000 A 
ATOM     18  C   UNL     1       1.312   8.693  20.415  0.00  0.00    +0.000 A 
ATOM     19  C   UNL     1       1.994   7.611  19.830  0.00  0.00    +0.000 A 
ATOM     20  C   UNL     1       2.333   7.639  18.480  0.00  0.00    +0.000 A 
ATOM     21  C   UNL     1       1.987   8.742  17.708  0.00  0.00    +0.000 A 
ATOM     22  C   UNL     1       1.276   9.799  18.284  0.00  0.00    +0.000 A 
ATOM     23  C   UNL     1       0.924   9.796  19.627  0.00  0.00    +0.000 A 
ATOM     24  N   UNL     1       0.318  10.880  20.146  0.00  0.00    +0.000 NA
ENDBRANCH  13  15
BRANCH   1  25
ATOM     25  N   UNL     1       1.304  13.588  20.863  0.00  0.00    +0.000 N 
ATOM     26  H   UNL     1       2.080  13.935  21.425  0.00  0.00    +0.000 HD
BRANCH  25  28
ATOM     27  C   UNL     1       1.799  13.644  18.459  0.00  0.00    +0.000 C 
ATOM     28  C   UNL     1       1.197  14.442  19.630  0.00  0.00    +0.000 C 
ATOM     29  C   UNL     1       2.042  15.733  19.834  0.00  0.00    +0.000 C 
ATOM     30  C   UNL     1       1.814  16.779  18.733  0.00  0.00    +0.000 C 
ATOM     31  C   UNL     1       0.330  17.071  18.527  0.00  0.00    +0.000 C 
ATOM     32  N   UNL     1      -0.411  15.856  18.209  0.00  0.00    +0.000 NA
ATOM     33  C   UNL     1      -0.267  14.880  19.309  0.00  0.00    +0.000 C 
ATOM     34  H   UNL     1      -0.060  15.448  17.344  0.00  0.00    +0.000 HD
ENDBRANCH  25  28
ENDBRANCH   1  25
TORSDOF 3
ENDMDL
MODEL 8
REMARK VINA RESULT:      -7.3      2.706      5.226
REMARK  Name = 
REMARK  4 active torsions:
REMARK  status: ('A' for Active; 'I' for Inactive)
REMARK    1  A    between atoms: C_1  and  C_2
REMARK    2  A    between atoms: C_2  and  N_3
REMARK    3  A    between atoms: N_3  and  C_4
REMARK    4  A    between atoms: C_16  and  C_17
REMARK                            x       y       z     vdW  Elec       q    Type
REMARK                         _______ _______ _______ _____ _____    ______ ____
ROOT
ATOM      1  C   UNL     1       0.122  12.233  20.155  0.00  0.00    +0.000 A 
ATOM      2  N   UNL     1      -0.872  13.113  20.566  0.00  0.00    +0.000 NA
ATOM      3  C   UNL     1      -2.102  12.905  20.227  0.00  0.00    +0.000 A 
ATOM      4  N   UNL     1      -3.173  13.671  20.648  0.00  0.00    +0.000 N 
ATOM      5  C   UNL     1      -4.527  13.128  20.852  0.00  0.00    +0.000 C 
ATOM      6  C   UNL     1      -5.001  13.410  22.282  0.00  0.00    +0.000 C 
ATOM      7  O   UNL     1      -4.981  14.816  22.557  0.00  0.00    +0.000 OA
ATOM      8  C   UNL     1      -3.641  15.324  22.436  0.00  0.00    +0.000 C 
ATOM      9  C   UNL     1      -3.057  15.083  21.033  0.00  0.00    +0.000 C 
ATOM     10  N   UNL     1      -2.427  11.871  19.402  0.00  0.00    +0.000 N 
ATOM     11  C   UNL     1      -1.538  10.936  18.964  0.00  0.00    +0.000 A 
ATOM     12  O   UNL     1      -1.922  10.008  18.263  0.00  0.00    +0.000 OA
ATOM     13  C   UNL     1      -0.156  11.115  19.432  0.00  0.00    +0.000 A 
ATOM     14  H   UNL     1      -3.366  11.768  19.053  0.00  0.00    +0.000 HD
ENDROOT
BRANCH  13  15
ATOM     15  C   UNL     1       0.802  10.032  19.169  0.00  0.00    +0.000 A 
ATOM     16  C   UNL     1       1.474   9.975  17.951  0.00  0.00    +0.000 A 
ATOM     17  C   UNL     1       2.266   8.865  17.678  0.00  0.00    +0.000 A 
ATOM     18  C   UNL     1       2.345   7.826  18.612  0.00  0.00    +0.000 A 
ATOM     19  C   UNL     1       3.034   6.632  18.336  0.00  0.00    +0.000 A 
ATOM     20  C   UNL     1       3.009   5.578  19.245  0.00  0.00    +0.000 A 
ATOM     21  C   UNL     1       2.303   5.714  20.434  0.00  0.00    +0.000 A 
ATOM     22  C   UNL     1       1.650   6.916  20.722  0.00  0.00    +0.000 A 
ATOM     23  C   UNL     1       1.660   7.984  19.834  0.00  0.00    +0.000 A 
ATOM     24  N   UNL     1       0.940   9.083  20.126  0.00  0.00    +0.000 NA
ENDBRANCH  13  15
BRANCH   1  25
ATOM     25  N   UNL     1       1.413  12.512  20.645  0.00  0.00    +0.000 N 
ATOM     26  H   UNL     1       1.264  12.709  21.633  0.00  0.00    +0.000 HD
BRANCH  25  28
ATOM     27  C   UNL     1       3.425  13.844  21.098  0.00  0.00    +0.000 C 
ATOM     28  C   UNL     1       2.301  13.585  20.078  0.00  0.00    +0.000 C 
ATOM     29  C   UNL     1       1.472  14.892  19.915  0.00  0.00    +0.000 C 
ATOM     30  C   UNL     1       2.218  15.979  19.127  0.00  0.00    +0.000 C 
ATOM     31  C   UNL     1       2.756  15.451  17.800  0.00  0.00    +0.000 C 
ATOM     32  N   UNL     1       3.634  14.304  18.002  0.00  0.00    +0.000 NA
ATOM     33  C   UNL     1       2.892  13.220  18.680  0.00  0.00    +0.000 C 
ATOM     34  H   UNL     1       4.437  14.573  18.569  0.00  0.00    +0.000 HD
ENDBRANCH  25  28
ENDBRANCH   1  25
TORSDOF 3
ENDMDL
MODEL 9
REMARK VINA RESULT:      -7.3      1.731      2.492
REMARK  Name = 
REMARK  4 active torsions:
REMARK  status: ('A' for Active; 'I' for Inactive)
REMARK    1  A    between atoms: C_1  and  C_2
REMARK    2  A    between atoms: C_2  and  N_3
REMARK    3  A    between atoms: N_3  and  C_4
REMARK    4  A    between atoms: C_16  and  C_17
REMARK                            x       y       z     vdW  Elec       q    Type
REMARK                         _______ _______ _______ _____ _____    ______ ____
ROOT
ATOM      1  C   UNL     1      -1.002  12.159  19.976  0.00  0.00    +0.000 A 
ATOM      2  N   UNL     1      -1.586  13.405  20.172  0.00  0.00    +0.000 NA
ATOM      3  C   UNL     1      -0.847  14.435  20.421  0.00  0.00    +0.000 A 
ATOM      4  N   UNL     1      -1.319  15.728  20.551  0.00  0.00    +0.000 N 
ATOM      5  C   UNL     1      -0.539  16.918  20.171  0.00  0.00    +0.000 C 
ATOM      6  C   UNL     1      -1.317  17.761  19.154  0.00  0.00    +0.000 C 
ATOM      7  O   UNL     1      -2.590  18.148  19.685  0.00  0.00    +0.000 OA
ATOM      8  C   UNL     1      -3.380  16.982  19.977  0.00  0.00    +0.000 C 
ATOM      9  C   UNL     1      -2.684  16.052  20.986  0.00  0.00    +0.000 C 
ATOM     10  N   UNL     1       0.500  14.300  20.572  0.00  0.00    +0.000 N 
ATOM     11  C   UNL     1       1.177  13.134  20.377  0.00  0.00    +0.000 A 
ATOM     12  O   UNL     1       2.396  13.108  20.487  0.00  0.00    +0.000 OA
ATOM     13  C   UNL     1       0.347  11.983  19.994  0.00  0.00    +0.000 A 
ATOM     14  H   UNL     1       1.065  15.080  20.869  0.00  0.00    +0.000 HD
ENDROOT
BRANCH  13  15
ATOM     15  C   UNL     1       1.033  10.755  19.568  0.00  0.00    +0.000 A 
ATOM     16  C   UNL     1       1.538  10.650  18.275  0.00  0.00    +0.000 A 
ATOM     17  C   UNL     1       2.056   9.428  17.859  0.00  0.00    +0.000 A 
ATOM     18  C   UNL     1       2.032   8.335  18.731  0.00  0.00    +0.000 A 
ATOM     19  C   UNL     1       2.433   7.051  18.321  0.00  0.00    +0.000 A 
ATOM     20  C   UNL     1       2.303   5.964  19.181  0.00  0.00    +0.000 A 
ATOM     21  C   UNL     1       1.778   6.155  20.453  0.00  0.00    +0.000 A 
ATOM     22  C   UNL     1       1.415   7.439  20.871  0.00  0.00    +0.000 A 
ATOM     23  C   UNL     1       1.536   8.541  20.034  0.00  0.00    +0.000 A 
ATOM     24  N   UNL     1       1.088   9.737  20.459  0.00  0.00    +0.000 NA
ENDBRANCH  13  15
BRANCH   1  25
ATOM     25  N   UNL     1      -1.893  11.123  19.635  0.00  0.00    +0.000 N 
ATOM     26  H   UNL     1      -1.324  10.279  19.695  0.00  0.00    +0.000 HD
BRANCH  25  28
ATOM     27  C   UNL     1      -4.024  11.755  18.593  0.00  0.00    +0.000 C 
ATOM     28  C   UNL     1      -2.662  11.082  18.343  0.00  0.00    +0.000 C 
ATOM     29  C   UNL     1      -2.909   9.597  17.950  0.00  0.00    +0.000 C 
ATOM     30  C   UNL     1      -3.479   9.440  16.532  0.00  0.00    +0.000 C 
ATOM     31  C   UNL     1      -2.645  10.194  15.499  0.00  0.00    +0.000 C 
ATOM     32  N   UNL     1      -2.543  11.611  15.832  0.00  0.00    +0.000 NA
ATOM     33  C   UNL     1      -1.912  11.768  17.159  0.00  0.00    +0.000 C 
ATOM     34  H   UNL     1      -3.469  12.035  15.843  0.00  0.00    +0.000 HD
ENDBRANCH  25  28
ENDBRANCH   1  25
TORSDOF 3
ENDMDL
