MODEL 1
REMARK VINA RESULT:      -6.5      0.000      0.000
REMARK  Name = 
REMARK  7 active torsions:
REMARK  status: ('A' for Active; 'I' for Inactive)
REMARK    1  A    between atoms: C_1  and  C_2
REMARK    2  A    between atoms: C_2  and  O_3
REMARK    3  A    between atoms: O_3  and  C_4
REMARK    4  A    between atoms: C_4  and  C_5
REMARK    5  A    between atoms: C_5  and  N_6
REMARK    6  A    between atoms: N_6  and  C_7
REMARK    7  A    between atoms: C_9  and  C_10
REMARK                            x       y       z     vdW  Elec       q    Type
REMARK                         _______ _______ _______ _____ _____    ______ ____
ROOT
ATOM      1  C   UNL     1       6.136   4.581  17.853  0.00  0.00    +0.000 A 
ATOM      2  N   UNL     1       6.736   5.701  18.385  0.00  0.00    +0.000 N 
ATOM      3  C   UNL     1       7.438   6.607  17.616  0.00  0.00    +0.000 A 
ATOM      4  C   UNL     1       8.120   7.753  18.321  0.00  0.00    +0.000 C 
ATOM      5  N   UNL     1       7.559   6.530  16.324  0.00  0.00    +0.000 NA
ATOM      6  C   UNL     1       6.939   5.467  15.732  0.00  0.00    +0.000 A 
ATOM      7  N   UNL     1       6.917   5.204  14.454  0.00  0.00    +0.000 NA
ATOM      8  C   UNL     1       6.184   4.028  14.367  0.00  0.00    +0.000 A 
ATOM      9  C   UNL     1       5.752   3.529  15.540  0.00  0.00    +0.000 A 
ATOM     10  C   UNL     1       6.220   4.447  16.521  0.00  0.00    +0.000 A 
ATOM     11  H   UNL     1       6.758   5.765  19.391  0.00  0.00    +0.000 HD
ENDROOT
BRANCH   1  12
ATOM     12  N   UNL     1       5.501   3.680  18.678  0.00  0.00    +0.000 N 
ATOM     13  H   UNL     1       5.875   2.738  18.600  0.00  0.00    +0.000 HD
BRANCH  12  14
ATOM     14  C   UNL     1       4.049   3.685  18.878  0.00  0.00    +0.000 C 
BRANCH  14  15
ATOM     15  C   UNL     1       3.443   2.340  18.465  0.00  0.00    +0.000 C 
BRANCH  15  16
ATOM     16  O   UNL     1       2.465   1.930  19.424  0.00  0.00    +0.000 OA
BRANCH  16  18
ATOM     17  C   UNL     1       1.372   2.819  21.356  0.00  0.00    +0.000 C 
ATOM     18  C   UNL     1       1.696   3.034  19.891  0.00  0.00    +0.000 C 
ENDBRANCH  16  18
ENDBRANCH  15  16
ENDBRANCH  14  15
ENDBRANCH  12  14
ENDBRANCH   1  12
TORSDOF 5
ENDMDL
MODEL 2
REMARK VINA RESULT:      -6.4      1.042      1.193
REMARK  Name = 
REMARK  7 active torsions:
REMARK  status: ('A' for Active; 'I' for Inactive)
REMARK    1  A    between atoms: C_1  and  C_2
REMARK    2  A    between atoms: C_2  and  O_3
REMARK    3  A    between atoms: O_3  and  C_4
REMARK    4  A    between atoms: C_4  and  C_5
REMARK    5  A    between atoms: C_5  and  N_6
REMARK    6  A    between atoms: N_6  and  C_7
REMARK    7  A    between atoms: C_9  and  C_10
REMARK                            x       y       z     vdW  Elec       q    Type
REMARK                         _______ _______ _______ _____ _____    ______ ____
ROOT
ATOM      1  C   UNL     1       6.281   4.660  18.043  0.00  0.00    +0.000 A 
ATOM      2  N   UNL     1       6.881   5.805  18.519  0.00  0.00    +0.000 N 
ATOM      3  C   UNL     1       7.501   6.719  17.692  0.00  0.00    +0.000 A 
ATOM      4  C   UNL     1       8.194   7.895  18.333  0.00  0.00    +0.000 C 
ATOM      5  N   UNL     1       7.534   6.628  16.395  0.00  0.00    +0.000 NA
ATOM      6  C   UNL     1       6.907   5.539  15.861  0.00  0.00    +0.000 A 
ATOM      7  N   UNL     1       6.806   5.257  14.590  0.00  0.00    +0.000 NA
ATOM      8  C   UNL     1       6.105   4.058  14.570  0.00  0.00    +0.000 A 
ATOM      9  C   UNL     1       5.770   3.563  15.776  0.00  0.00    +0.000 A 
ATOM     10  C   UNL     1       6.277   4.509  16.711  0.00  0.00    +0.000 A 
ATOM     11  H   UNL     1       6.971   5.884  19.519  0.00  0.00    +0.000 HD
ENDROOT
BRANCH   1  12
ATOM     12  N   UNL     1       5.732   3.753  18.921  0.00  0.00    +0.000 N 
ATOM     13  H   UNL     1       6.203   2.853  18.908  0.00  0.00    +0.000 HD
BRANCH  12  14
ATOM     14  C   UNL     1       4.285   3.618  19.110  0.00  0.00    +0.000 C 
BRANCH  14  15
ATOM     15  C   UNL     1       3.682   4.934  19.613  0.00  0.00    +0.000 C 
BRANCH  15  16
ATOM     16  O   UNL     1       2.372   5.111  19.067  0.00  0.00    +0.000 OA
BRANCH  16  18
ATOM     17  C   UNL     1       0.824   3.742  20.270  0.00  0.00    +0.000 C 
ATOM     18  C   UNL     1       1.658   3.879  19.012  0.00  0.00    +0.000 C 
ENDBRANCH  16  18
ENDBRANCH  15  16
ENDBRANCH  14  15
ENDBRANCH  12  14
ENDBRANCH   1  12
TORSDOF 5
ENDMDL
MODEL 3
REMARK VINA RESULT:      -6.4      1.259      2.953
REMARK  Name = 
REMARK  7 active torsions:
REMARK  status: ('A' for Active; 'I' for Inactive)
REMARK    1  A    between atoms: C_1  and  C_2
REMARK    2  A    between atoms: C_2  and  O_3
REMARK    3  A    between atoms: O_3  and  C_4
REMARK    4  A    between atoms: C_4  and  C_5
REMARK    5  A    between atoms: C_5  and  N_6
REMARK    6  A    between atoms: N_6  and  C_7
REMARK    7  A    between atoms: C_9  and  C_10
REMARK                            x       y       z     vdW  Elec       q    Type
REMARK                         _______ _______ _______ _____ _____    ______ ____
ROOT
ATOM      1  C   UNL     1       5.599   3.935  17.168  0.00  0.00    +0.000 A 
ATOM      2  N   UNL     1       5.625   3.538  15.850  0.00  0.00    +0.000 N 
ATOM      3  C   UNL     1       6.316   4.231  14.877  0.00  0.00    +0.000 A 
ATOM      4  C   UNL     1       6.207   3.746  13.453  0.00  0.00    +0.000 C 
ATOM      5  N   UNL     1       7.048   5.280  15.107  0.00  0.00    +0.000 NA
ATOM      6  C   UNL     1       7.103   5.691  16.408  0.00  0.00    +0.000 A 
ATOM      7  N   UNL     1       7.784   6.707  16.865  0.00  0.00    +0.000 NA
ATOM      8  C   UNL     1       7.501   6.714  18.224  0.00  0.00    +0.000 A 
ATOM      9  C   UNL     1       6.659   5.753  18.645  0.00  0.00    +0.000 A 
ATOM     10  C   UNL     1       6.339   5.011  17.473  0.00  0.00    +0.000 A 
ATOM     11  H   UNL     1       5.003   2.788  15.593  0.00  0.00    +0.000 HD
ENDROOT
BRANCH   1  12
ATOM     12  N   UNL     1       4.842   3.239  18.085  0.00  0.00    +0.000 N 
ATOM     13  H   UNL     1       5.402   2.657  18.702  0.00  0.00    +0.000 HD
BRANCH  12  14
ATOM     14  C   UNL     1       3.567   2.608  17.735  0.00  0.00    +0.000 C 
BRANCH  14  15
ATOM     15  C   UNL     1       2.489   3.670  17.491  0.00  0.00    +0.000 C 
BRANCH  15  16
ATOM     16  O   UNL     1       1.223   3.197  17.957  0.00  0.00    +0.000 OA
BRANCH  16  18
ATOM     17  C   UNL     1       1.019   3.341  20.336  0.00  0.00    +0.000 C 
ATOM     18  C   UNL     1       1.356   2.446  19.160  0.00  0.00    +0.000 C 
ENDBRANCH  16  18
ENDBRANCH  15  16
ENDBRANCH  14  15
ENDBRANCH  12  14
ENDBRANCH   1  12
TORSDOF 5
ENDMDL
MODEL 4
REMARK VINA RESULT:      -6.3      1.381      1.536
REMARK  Name = 
REMARK  7 active torsions:
REMARK  status: ('A' for Active; 'I' for Inactive)
REMARK    1  A    between atoms: C_1  and  C_2
REMARK    2  A    between atoms: C_2  and  O_3
REMARK    3  A    between atoms: O_3  and  C_4
REMARK    4  A    between atoms: C_4  and  C_5
REMARK    5  A    between atoms: C_5  and  N_6
REMARK    6  A    between atoms: N_6  and  C_7
REMARK    7  A    between atoms: C_9  and  C_10
REMARK                            x       y       z     vdW  Elec       q    Type
REMARK                         _______ _______ _______ _____ _____    ______ ____
ROOT
ATOM      1  C   UNL     1       5.485   3.697  17.136  0.00  0.00    +0.000 A 
ATOM      2  N   UNL     1       6.027   4.263  18.268  0.00  0.00    +0.000 N 
ATOM      3  C   UNL     1       7.091   5.141  18.227  0.00  0.00    +0.000 A 
ATOM      4  C   UNL     1       7.651   5.635  19.537  0.00  0.00    +0.000 C 
ATOM      5  N   UNL     1       7.648   5.563  17.131  0.00  0.00    +0.000 NA
ATOM      6  C   UNL     1       7.118   5.076  15.970  0.00  0.00    +0.000 A 
ATOM      7  N   UNL     1       7.511   5.375  14.761  0.00  0.00    +0.000 NA
ATOM      8  C   UNL     1       6.679   4.620  13.945  0.00  0.00    +0.000 A 
ATOM      9  C   UNL     1       5.785   3.846  14.587  0.00  0.00    +0.000 A 
ATOM     10  C   UNL     1       6.014   4.096  15.969  0.00  0.00    +0.000 A 
ATOM     11  H   UNL     1       5.700   3.904  19.152  0.00  0.00    +0.000 HD
ENDROOT
BRANCH   1  12
ATOM     12  N   UNL     1       4.464   2.780  17.243  0.00  0.00    +0.000 N 
ATOM     13  H   UNL     1       4.447   2.113  16.476  0.00  0.00    +0.000 HD
BRANCH  12  14
ATOM     14  C   UNL     1       3.117   3.151  17.684  0.00  0.00    +0.000 C 
BRANCH  14  15
ATOM     15  C   UNL     1       2.880   2.701  19.130  0.00  0.00    +0.000 C 
BRANCH  15  16
ATOM     16  O   UNL     1       3.464   3.640  20.036  0.00  0.00    +0.000 OA
BRANCH  16  18
ATOM     17  C   UNL     1       1.339   4.606  20.554  0.00  0.00    +0.000 C 
ATOM     18  C   UNL     1       2.744   4.869  20.051  0.00  0.00    +0.000 C 
ENDBRANCH  16  18
ENDBRANCH  15  16
ENDBRANCH  14  15
ENDBRANCH  12  14
ENDBRANCH   1  12
TORSDOF 5
ENDMDL
MODEL 5
REMARK VINA RESULT:      -6.3      2.839      5.126
REMARK  Name = 
REMARK  7 active torsions:
REMARK  status: ('A' for Active; 'I' for Inactive)
REMARK    1  A    between atoms: C_1  and  C_2
REMARK    2  A    between atoms: C_2  and  O_3
REMARK    3  A    between atoms: O_3  and  C_4
REMARK    4  A    between atoms: C_4  and  C_5
REMARK    5  A    between atoms: C_5  and  N_6
REMARK    6  A    between atoms: N_6  and  C_7
REMARK    7  A    between atoms: C_9  and  C_10
REMARK                            x       y       z     vdW  Elec       q    Type
REMARK                         _______ _______ _______ _____ _____    ______ ____
ROOT
ATOM      1  C   UNL     1       4.774   4.590  18.412  0.00  0.00    +0.000 A 
ATOM      2  N   UNL     1       4.413   5.919  18.383  0.00  0.00    +0.000 N 
ATOM      3  C   UNL     1       3.132   6.336  18.082  0.00  0.00    +0.000 A 
ATOM      4  C   UNL     1       2.874   7.820  18.002  0.00  0.00    +0.000 C 
ATOM      5  N   UNL     1       2.136   5.533  17.854  0.00  0.00    +0.000 NA
ATOM      6  C   UNL     1       2.422   4.199  17.922  0.00  0.00    +0.000 A 
ATOM      7  N   UNL     1       1.575   3.222  17.742  0.00  0.00    +0.000 NA
ATOM      8  C   UNL     1       2.348   2.079  17.898  0.00  0.00    +0.000 A 
ATOM      9  C   UNL     1       3.651   2.292  18.156  0.00  0.00    +0.000 A 
ATOM     10  C   UNL     1       3.788   3.708  18.189  0.00  0.00    +0.000 A 
ATOM     11  H   UNL     1       5.161   6.590  18.459  0.00  0.00    +0.000 HD
ENDROOT
BRANCH   1  12
ATOM     12  N   UNL     1       6.081   4.235  18.658  0.00  0.00    +0.000 N 
ATOM     13  H   UNL     1       6.242   3.959  19.623  0.00  0.00    +0.000 HD
BRANCH  12  14
ATOM     14  C   UNL     1       7.216   4.971  18.096  0.00  0.00    +0.000 C 
BRANCH  14  15
ATOM     15  C   UNL     1       7.551   4.455  16.692  0.00  0.00    +0.000 C 
BRANCH  15  16
ATOM     16  O   UNL     1       7.359   5.495  15.730  0.00  0.00    +0.000 OA
BRANCH  16  18
ATOM     17  C   UNL     1       5.514   4.337  14.742  0.00  0.00    +0.000 C 
ATOM     18  C   UNL     1       6.864   4.981  14.497  0.00  0.00    +0.000 C 
ENDBRANCH  16  18
ENDBRANCH  15  16
ENDBRANCH  14  15
ENDBRANCH  12  14
ENDBRANCH   1  12
TORSDOF 5
ENDMDL
MODEL 6
REMARK VINA RESULT:      -6.3      1.154      2.894
REMARK  Name = 
REMARK  7 active torsions:
REMARK  status: ('A' for Active; 'I' for Inactive)
REMARK    1  A    between atoms: C_1  and  C_2
REMARK    2  A    between atoms: C_2  and  O_3
REMARK    3  A    between atoms: O_3  and  C_4
REMARK    4  A    between atoms: C_4  and  C_5
REMARK    5  A    between atoms: C_5  and  N_6
REMARK    6  A    between atoms: N_6  and  C_7
REMARK    7  A    between atoms: C_9  and  C_10
REMARK                            x       y       z     vdW  Elec       q    Type
REMARK                         _______ _______ _______ _____ _____    ______ ____
ROOT
ATOM      1  C   UNL     1       5.910   4.101  17.667  0.00  0.00    +0.000 A 
ATOM      2  N   UNL     1       5.637   3.703  16.377  0.00  0.00    +0.000 N 
ATOM      3  C   UNL     1       6.021   4.437  15.274  0.00  0.00    +0.000 A 
ATOM      4  C   UNL     1       5.596   3.943  13.914  0.00  0.00    +0.000 C 
ATOM      5  N   UNL     1       6.719   5.532  15.331  0.00  0.00    +0.000 NA
ATOM      6  C   UNL     1       7.067   5.950  16.584  0.00  0.00    +0.000 A 
ATOM      7  N   UNL     1       7.774   7.008  16.873  0.00  0.00    +0.000 NA
ATOM      8  C   UNL     1       7.834   7.001  18.260  0.00  0.00    +0.000 A 
ATOM      9  C   UNL     1       7.184   5.987  18.862  0.00  0.00    +0.000 A 
ATOM     10  C   UNL     1       6.633   5.224  17.794  0.00  0.00    +0.000 A 
ATOM     11  H   UNL     1       5.019   2.914  16.271  0.00  0.00    +0.000 HD
ENDROOT
BRANCH   1  12
ATOM     12  N   UNL     1       5.448   3.360  18.731  0.00  0.00    +0.000 N 
ATOM     13  H   UNL     1       6.129   2.685  19.069  0.00  0.00    +0.000 HD
BRANCH  12  14
ATOM     14  C   UNL     1       4.078   2.846  18.796  0.00  0.00    +0.000 C 
BRANCH  14  15
ATOM     15  C   UNL     1       3.308   3.507  19.945  0.00  0.00    +0.000 C 
BRANCH  15  16
ATOM     16  O   UNL     1       2.068   4.031  19.465  0.00  0.00    +0.000 OA
BRANCH  16  18
ATOM     17  C   UNL     1       1.512   2.844  21.465  0.00  0.00    +0.000 C 
ATOM     18  C   UNL     1       0.999   3.751  20.364  0.00  0.00    +0.000 C 
ENDBRANCH  16  18
ENDBRANCH  15  16
ENDBRANCH  14  15
ENDBRANCH  12  14
ENDBRANCH   1  12
TORSDOF 5
ENDMDL
MODEL 7
REMARK VINA RESULT:      -6.3      1.838      2.309
REMARK  Name = 
REMARK  7 active torsions:
REMARK  status: ('A' for Active; 'I' for Inactive)
REMARK    1  A    between atoms: C_1  and  C_2
REMARK    2  A    between atoms: C_2  and  O_3
REMARK    3  A    between atoms: O_3  and  C_4
REMARK    4  A    between atoms: C_4  and  C_5
REMARK    5  A    between atoms: C_5  and  N_6
REMARK    6  A    between atoms: N_6  and  C_7
REMARK    7  A    between atoms: C_9  and  C_10
REMARK                            x       y       z     vdW  Elec       q    Type
REMARK                         _______ _______ _______ _____ _____    ______ ____
ROOT
ATOM      1  C   UNL     1       4.971   4.450  18.282  0.00  0.00    +0.000 A 
ATOM      2  N   UNL     1       3.977   5.297  18.717  0.00  0.00    +0.000 N 
ATOM      3  C   UNL     1       3.645   6.460  18.051  0.00  0.00    +0.000 A 
ATOM      4  C   UNL     1       2.594   7.349  18.665  0.00  0.00    +0.000 C 
ATOM      5  N   UNL     1       4.187   6.842  16.933  0.00  0.00    +0.000 NA
ATOM      6  C   UNL     1       5.145   6.013  16.424  0.00  0.00    +0.000 A 
ATOM      7  N   UNL     1       5.806   6.193  15.313  0.00  0.00    +0.000 NA
ATOM      8  C   UNL     1       6.659   5.099  15.251  0.00  0.00    +0.000 A 
ATOM      9  C   UNL     1       6.574   4.241  16.284  0.00  0.00    +0.000 A 
ATOM     10  C   UNL     1       5.568   4.786  17.129  0.00  0.00    +0.000 A 
ATOM     11  H   UNL     1       3.586   5.104  19.626  0.00  0.00    +0.000 HD
ENDROOT
BRANCH   1  12
ATOM     12  N   UNL     1       5.301   3.335  19.021  0.00  0.00    +0.000 N 
ATOM     13  H   UNL     1       6.017   2.764  18.579  0.00  0.00    +0.000 HD
BRANCH  12  14
ATOM     14  C   UNL     1       4.296   2.526  19.714  0.00  0.00    +0.000 C 
BRANCH  14  15
ATOM     15  C   UNL     1       3.359   1.850  18.707  0.00  0.00    +0.000 C 
BRANCH  15  16
ATOM     16  O   UNL     1       2.028   1.808  19.230  0.00  0.00    +0.000 OA
BRANCH  16  18
ATOM     17  C   UNL     1       0.871   3.714  20.093  0.00  0.00    +0.000 C 
ATOM     18  C   UNL     1       1.279   2.957  18.845  0.00  0.00    +0.000 C 
ENDBRANCH  16  18
ENDBRANCH  15  16
ENDBRANCH  14  15
ENDBRANCH  12  14
ENDBRANCH   1  12
TORSDOF 5
ENDMDL
MODEL 8
REMARK VINA RESULT:      -6.2      1.004      1.107
REMARK  Name = 
REMARK  7 active torsions:
REMARK  status: ('A' for Active; 'I' for Inactive)
REMARK    1  A    between atoms: C_1  and  C_2
REMARK    2  A    between atoms: C_2  and  O_3
REMARK    3  A    between atoms: O_3  and  C_4
REMARK    4  A    between atoms: C_4  and  C_5
REMARK    5  A    between atoms: C_5  and  N_6
REMARK    6  A    between atoms: N_6  and  C_7
REMARK    7  A    between atoms: C_9  and  C_10
REMARK                            x       y       z     vdW  Elec       q    Type
REMARK                         _______ _______ _______ _____ _____    ______ ____
ROOT
ATOM      1  C   UNL     1       5.515   4.098  16.781  0.00  0.00    +0.000 A 
ATOM      2  N   UNL     1       6.087   4.870  17.768  0.00  0.00    +0.000 N 
ATOM      3  C   UNL     1       7.144   5.724  17.526  0.00  0.00    +0.000 A 
ATOM      4  C   UNL     1       7.740   6.459  18.700  0.00  0.00    +0.000 C 
ATOM      5  N   UNL     1       7.666   5.927  16.354  0.00  0.00    +0.000 NA
ATOM      6  C   UNL     1       7.105   5.227  15.324  0.00  0.00    +0.000 A 
ATOM      7  N   UNL     1       7.460   5.288  14.070  0.00  0.00    +0.000 NA
ATOM      8  C   UNL     1       6.609   4.391  13.438  0.00  0.00    +0.000 A 
ATOM      9  C   UNL     1       5.738   3.755  14.244  0.00  0.00    +0.000 A 
ATOM     10  C   UNL     1       6.007   4.265  15.545  0.00  0.00    +0.000 A 
ATOM     11  H   UNL     1       5.788   4.687  18.713  0.00  0.00    +0.000 HD
ENDROOT
BRANCH   1  12
ATOM     12  N   UNL     1       4.502   3.219  17.093  0.00  0.00    +0.000 N 
ATOM     13  H   UNL     1       3.736   3.243  16.424  0.00  0.00    +0.000 HD
BRANCH  12  14
ATOM     14  C   UNL     1       4.033   3.013  18.465  0.00  0.00    +0.000 C 
BRANCH  14  15
ATOM     15  C   UNL     1       3.095   1.803  18.539  0.00  0.00    +0.000 C 
BRANCH  15  16
ATOM     16  O   UNL     1       2.106   2.012  19.550  0.00  0.00    +0.000 OA
BRANCH  16  18
ATOM     17  C   UNL     1       0.948   3.980  20.261  0.00  0.00    +0.000 C 
ATOM     18  C   UNL     1       1.138   2.975  19.143  0.00  0.00    +0.000 C 
ENDBRANCH  16  18
ENDBRANCH  15  16
ENDBRANCH  14  15
ENDBRANCH  12  14
ENDBRANCH   1  12
TORSDOF 5
ENDMDL
MODEL 9
REMARK VINA RESULT:      -6.2      1.361      1.446
REMARK  Name = 
REMARK  7 active torsions:
REMARK  status: ('A' for Active; 'I' for Inactive)
REMARK    1  A    between atoms: C_1  and  C_2
REMARK    2  A    between atoms: C_2  and  O_3
REMARK    3  A    between atoms: O_3  and  C_4
REMARK    4  A    between atoms: C_4  and  C_5
REMARK    5  A    between atoms: C_5  and  N_6
REMARK    6  A    between atoms: N_6  and  C_7
REMARK    7  A    between atoms: C_9  and  C_10
REMARK                            x       y       z     vdW  Elec       q    Type
REMARK                         _______ _______ _______ _____ _____    ______ ____
ROOT
ATOM      1  C   UNL     1       5.112   4.171  17.272  0.00  0.00    +0.000 A 
ATOM      2  N   UNL     1       5.764   4.657  18.382  0.00  0.00    +0.000 N 
ATOM      3  C   UNL     1       7.015   5.238  18.317  0.00  0.00    +0.000 A 
ATOM      4  C   UNL     1       7.665   5.662  19.610  0.00  0.00    +0.000 C 
ATOM      5  N   UNL     1       7.673   5.434  17.214  0.00  0.00    +0.000 NA
ATOM      6  C   UNL     1       7.052   5.019  16.070  0.00  0.00    +0.000 A 
ATOM      7  N   UNL     1       7.521   5.130  14.857  0.00  0.00    +0.000 NA
ATOM      8  C   UNL     1       6.537   4.554  14.065  0.00  0.00    +0.000 A 
ATOM      9  C   UNL     1       5.469   4.072  14.728  0.00  0.00    +0.000 A 
ATOM     10  C   UNL     1       5.737   4.347  16.098  0.00  0.00    +0.000 A 
ATOM     11  H   UNL     1       5.347   4.450  19.276  0.00  0.00    +0.000 HD
ENDROOT
BRANCH   1  12
ATOM     12  N   UNL     1       3.892   3.546  17.405  0.00  0.00    +0.000 N 
ATOM     13  H   UNL     1       3.573   3.110  16.545  0.00  0.00    +0.000 HD
BRANCH  12  14
ATOM     14  C   UNL     1       2.789   4.131  18.172  0.00  0.00    +0.000 C 
BRANCH  14  15
ATOM     15  C   UNL     1       1.583   3.185  18.189  0.00  0.00    +0.000 C 
BRANCH  15  16
ATOM     16  O   UNL     1       0.886   3.305  19.432  0.00  0.00    +0.000 OA
BRANCH  16  18
ATOM     17  C   UNL     1       1.746   2.809  21.607  0.00  0.00    +0.000 C 
ATOM     18  C   UNL     1       1.735   3.802  20.462  0.00  0.00    +0.000 C 
ENDBRANCH  16  18
ENDBRANCH  15  16
ENDBRANCH  14  15
ENDBRANCH  12  14
ENDBRANCH   1  12
TORSDOF 5
ENDMDL
