MODEL 1
REMARK VINA RESULT:      -6.1      0.000      0.000
REMARK  Name = 
REMARK  11 active torsions:
REMARK  status: ('A' for Active; 'I' for Inactive)
REMARK    1  A    between atoms: C_1  and  O_2
REMARK    2  A    between atoms: O_2  and  C_3
REMARK    3  A    between atoms: C_3  and  C_5
REMARK    4  A    between atoms: C_5  and  C_6
REMARK    5  A    between atoms: C_5  and  N_15
REMARK    6  A    between atoms: C_6  and  C_7
REMARK    7  A    between atoms: C_7  and  C_8
REMARK    8  A    between atoms: C_8  and  C_9
REMARK    9  A    between atoms: C_9  and  N_10
REMARK   10  A    between atoms: C_11  and  C_13
REMARK   11  A    between atoms: C_16  and  C_17
REMARK                            x       y       z     vdW  Elec       q    Type
REMARK                         _______ _______ _______ _____ _____    ______ ____
ROOT
ATOM      1  C   UNL     1       5.243   5.960  17.935  0.00  0.00    +0.000 C 
ENDROOT
BRANCH   1   2
ATOM      2  C   UNL     1       5.676   4.707  17.162  0.00  0.00    +0.000 C 
BRANCH   2   3
ATOM      3  N   UNL     1       5.195   3.505  17.850  0.00  0.00    +0.000 N 
ATOM      4  C   UNL     1       3.907   3.050  17.728  0.00  0.00    +0.000 C 
ATOM      5  C   UNL     1       3.603   1.814  18.538  0.00  0.00    +0.000 C 
ATOM      6  O   UNL     1       3.061   3.608  17.038  0.00  0.00    +0.000 OA
ATOM      7  H   UNL     1       5.848   3.030  18.467  0.00  0.00    +0.000 HD
ENDBRANCH   2   3
BRANCH   2   8
ATOM      8  C   UNL     1       7.203   4.601  17.111  0.00  0.00    +0.000 C 
ATOM      9  O   UNL     1       7.904   4.344  18.084  0.00  0.00    +0.000 OA
BRANCH   8  11
ATOM     10  C   UNL     1       6.770   4.519  14.804  0.00  0.00    +0.000 C 
ATOM     11  O   UNL     1       7.660   4.882  15.861  0.00  0.00    +0.000 OA
ENDBRANCH   8  11
ENDBRANCH   2   8
ENDBRANCH   1   2
BRANCH   1  12
ATOM     12  C   UNL     1       4.498   7.004  17.088  0.00  0.00    +0.000 C 
BRANCH  12  13
ATOM     13  C   UNL     1       3.091   7.322  17.619  0.00  0.00    +0.000 C 
BRANCH  13  14
ATOM     14  C   UNL     1       2.903   6.851  19.060  0.00  0.00    +0.000 C 
BRANCH  14  15
ATOM     15  N   UNL     1       2.039   5.699  19.142  0.00  0.00    +0.000 N 
ATOM     16  C   UNL     1       1.868   4.915  20.258  0.00  0.00    +0.000 C 
ATOM     17  N   UNL     1       2.513   5.095  21.365  0.00  0.00    +0.000 NA
ATOM     18  H   UNL     1       1.387   5.547  18.374  0.00  0.00    +0.000 HD
ATOM     19  H   UNL     1       3.129   5.902  21.289  0.00  0.00    +0.000 HD
BRANCH  16  20
ATOM     20  C   UNL     1       0.918   3.721  20.200  0.00  0.00    +0.000 C 
ATOM     21 CL   UNL     1       1.262   2.581  21.518  0.00  0.00    +0.000 Cl
ENDBRANCH  16  20
ENDBRANCH  14  15
ENDBRANCH  13  14
ENDBRANCH  12  13
ENDBRANCH   1  12
TORSDOF 9
ENDMDL
MODEL 2
REMARK VINA RESULT:      -5.9      2.499      3.808
REMARK  Name = 
REMARK  11 active torsions:
REMARK  status: ('A' for Active; 'I' for Inactive)
REMARK    1  A    between atoms: C_1  and  O_2
REMARK    2  A    between atoms: O_2  and  C_3
REMARK    3  A    between atoms: C_3  and  C_5
REMARK    4  A    between atoms: C_5  and  C_6
REMARK    5  A    between atoms: C_5  and  N_15
REMARK    6  A    between atoms: C_6  and  C_7
REMARK    7  A    between atoms: C_7  and  C_8
REMARK    8  A    between atoms: C_8  and  C_9
REMARK    9  A    between atoms: C_9  and  N_10
REMARK   10  A    between atoms: C_11  and  C_13
REMARK   11  A    between atoms: C_16  and  C_17
REMARK                            x       y       z     vdW  Elec       q    Type
REMARK                         _______ _______ _______ _____ _____    ______ ____
ROOT
ATOM      1  C   UNL     1       4.987   4.901  16.034  0.00  0.00    +0.000 C 
ENDROOT
BRANCH   1   2
ATOM      2  C   UNL     1       6.511   5.059  15.973  0.00  0.00    +0.000 C 
BRANCH   2   3
ATOM      3  N   UNL     1       6.884   6.441  16.296  0.00  0.00    +0.000 N 
ATOM      4  C   UNL     1       7.391   6.803  17.517  0.00  0.00    +0.000 C 
ATOM      5  C   UNL     1       7.684   8.276  17.659  0.00  0.00    +0.000 C 
ATOM      6  O   UNL     1       7.574   6.006  18.431  0.00  0.00    +0.000 OA
ATOM      7  H   UNL     1       6.713   7.146  15.584  0.00  0.00    +0.000 HD
ENDBRANCH   2   3
BRANCH   2   8
ATOM      8  C   UNL     1       7.030   4.785  14.559  0.00  0.00    +0.000 C 
ATOM      9  O   UNL     1       7.908   5.443  14.012  0.00  0.00    +0.000 OA
BRANCH   8  11
ATOM     10  C   UNL     1       6.461   3.675  12.569  0.00  0.00    +0.000 C 
ATOM     11  O   UNL     1       6.347   3.755  13.991  0.00  0.00    +0.000 OA
ENDBRANCH   8  11
ENDBRANCH   2   8
ENDBRANCH   1   2
BRANCH   1  12
ATOM     12  C   UNL     1       4.474   4.148  17.272  0.00  0.00    +0.000 C 
BRANCH  12  13
ATOM     13  C   UNL     1       3.177   3.365  17.011  0.00  0.00    +0.000 C 
BRANCH  13  14
ATOM     14  C   UNL     1       3.106   2.083  17.837  0.00  0.00    +0.000 C 
BRANCH  14  15
ATOM     15  N   UNL     1       2.763   2.346  19.213  0.00  0.00    +0.000 N 
ATOM     16  C   UNL     1       1.483   2.438  19.707  0.00  0.00    +0.000 C 
ATOM     17  N   UNL     1       0.423   2.346  18.969  0.00  0.00    +0.000 NA
ATOM     18  H   UNL     1       3.514   2.304  19.900  0.00  0.00    +0.000 HD
ATOM     19  H   UNL     1       0.680   2.174  17.999  0.00  0.00    +0.000 HD
BRANCH  16  20
ATOM     20  C   UNL     1       1.268   2.724  21.190  0.00  0.00    +0.000 C 
ATOM     21 CL   UNL     1       2.297   4.070  21.726  0.00  0.00    +0.000 Cl
ENDBRANCH  16  20
ENDBRANCH  14  15
ENDBRANCH  13  14
ENDBRANCH  12  13
ENDBRANCH   1  12
TORSDOF 9
ENDMDL
MODEL 3
REMARK VINA RESULT:      -5.9      2.060      3.511
REMARK  Name = 
REMARK  11 active torsions:
REMARK  status: ('A' for Active; 'I' for Inactive)
REMARK    1  A    between atoms: C_1  and  O_2
REMARK    2  A    between atoms: O_2  and  C_3
REMARK    3  A    between atoms: C_3  and  C_5
REMARK    4  A    between atoms: C_5  and  C_6
REMARK    5  A    between atoms: C_5  and  N_15
REMARK    6  A    between atoms: C_6  and  C_7
REMARK    7  A    between atoms: C_7  and  C_8
REMARK    8  A    between atoms: C_8  and  C_9
REMARK    9  A    between atoms: C_9  and  N_10
REMARK   10  A    between atoms: C_11  and  C_13
REMARK   11  A    between atoms: C_16  and  C_17
REMARK                            x       y       z     vdW  Elec       q    Type
REMARK                         _______ _______ _______ _____ _____    ______ ____
ROOT
ATOM      1  C   UNL     1       5.467   4.574  16.398  0.00  0.00    +0.000 C 
ENDROOT
BRANCH   1   2
ATOM      2  C   UNL     1       6.912   4.930  16.025  0.00  0.00    +0.000 C 
BRANCH   2   3
ATOM      3  N   UNL     1       7.178   6.337  16.343  0.00  0.00    +0.000 N 
ATOM      4  C   UNL     1       7.629   6.743  17.572  0.00  0.00    +0.000 C 
ATOM      5  C   UNL     1       7.813   8.234  17.707  0.00  0.00    +0.000 C 
ATOM      6  O   UNL     1       7.846   5.968  18.497  0.00  0.00    +0.000 OA
ATOM      7  H   UNL     1       6.975   7.022  15.620  0.00  0.00    +0.000 HD
ENDBRANCH   2   3
BRANCH   2   8
ATOM      8  C   UNL     1       7.139   4.771  14.519  0.00  0.00    +0.000 C 
ATOM      9  O   UNL     1       7.855   5.511  13.852  0.00  0.00    +0.000 OA
BRANCH   8  11
ATOM     10  C   UNL     1       6.367   3.650  12.605  0.00  0.00    +0.000 C 
ATOM     11  O   UNL     1       6.399   3.739  14.030  0.00  0.00    +0.000 OA
ENDBRANCH   8  11
ENDBRANCH   2   8
ENDBRANCH   1   2
BRANCH   1  12
ATOM     12  C   UNL     1       4.583   5.781  16.748  0.00  0.00    +0.000 C 
BRANCH  12  13
ATOM     13  C   UNL     1       4.088   5.768  18.203  0.00  0.00    +0.000 C 
BRANCH  13  14
ATOM     14  C   UNL     1       4.272   4.401  18.858  0.00  0.00    +0.000 C 
BRANCH  14  15
ATOM     15  N   UNL     1       3.065   3.946  19.505  0.00  0.00    +0.000 N 
ATOM     16  C   UNL     1       2.381   2.797  19.187  0.00  0.00    +0.000 C 
ATOM     17  N   UNL     1       2.721   2.005  18.221  0.00  0.00    +0.000 NA
ATOM     18  H   UNL     1       2.786   4.421  20.362  0.00  0.00    +0.000 HD
ATOM     19  H   UNL     1       3.565   2.345  17.764  0.00  0.00    +0.000 HD
BRANCH  16  20
ATOM     20  C   UNL     1       1.113   2.439  19.957  0.00  0.00    +0.000 C 
ATOM     21 CL   UNL     1       1.369   2.616  21.706  0.00  0.00    +0.000 Cl
ENDBRANCH  16  20
ENDBRANCH  14  15
ENDBRANCH  13  14
ENDBRANCH  12  13
ENDBRANCH   1  12
TORSDOF 9
ENDMDL
MODEL 4
REMARK VINA RESULT:      -5.8      2.557      3.770
REMARK  Name = 
REMARK  11 active torsions:
REMARK  status: ('A' for Active; 'I' for Inactive)
REMARK    1  A    between atoms: C_1  and  O_2
REMARK    2  A    between atoms: O_2  and  C_3
REMARK    3  A    between atoms: C_3  and  C_5
REMARK    4  A    between atoms: C_5  and  C_6
REMARK    5  A    between atoms: C_5  and  N_15
REMARK    6  A    between atoms: C_6  and  C_7
REMARK    7  A    between atoms: C_7  and  C_8
REMARK    8  A    between atoms: C_8  and  C_9
REMARK    9  A    between atoms: C_9  and  N_10
REMARK   10  A    between atoms: C_11  and  C_13
REMARK   11  A    between atoms: C_16  and  C_17
REMARK                            x       y       z     vdW  Elec       q    Type
REMARK                         _______ _______ _______ _____ _____    ______ ____
ROOT
ATOM      1  C   UNL     1       5.011   4.627  16.350  0.00  0.00    +0.000 C 
ENDROOT
BRANCH   1   2
ATOM      2  C   UNL     1       6.530   4.568  16.148  0.00  0.00    +0.000 C 
BRANCH   2   3
ATOM      3  N   UNL     1       7.162   5.744  16.756  0.00  0.00    +0.000 N 
ATOM      4  C   UNL     1       7.491   5.800  18.086  0.00  0.00    +0.000 C 
ATOM      5  C   UNL     1       8.104   7.107  18.522  0.00  0.00    +0.000 C 
ATOM      6  O   UNL     1       7.287   4.877  18.868  0.00  0.00    +0.000 OA
ATOM      7  H   UNL     1       7.315   6.550  16.158  0.00  0.00    +0.000 HD
ENDBRANCH   2   3
BRANCH   2   8
ATOM      8  C   UNL     1       6.883   4.604  14.658  0.00  0.00    +0.000 C 
ATOM      9  O   UNL     1       7.694   5.380  14.165  0.00  0.00    +0.000 OA
BRANCH   8  11
ATOM     10  C   UNL     1       6.408   3.646  12.567  0.00  0.00    +0.000 C 
ATOM     11  O   UNL     1       6.136   3.700  13.968  0.00  0.00    +0.000 OA
ENDBRANCH   8  11
ENDBRANCH   2   8
ENDBRANCH   1   2
BRANCH   1  12
ATOM     12  C   UNL     1       4.429   3.453  17.153  0.00  0.00    +0.000 C 
BRANCH  12  13
ATOM     13  C   UNL     1       2.897   3.366  17.075  0.00  0.00    +0.000 C 
BRANCH  13  14
ATOM     14  C   UNL     1       2.236   3.693  18.412  0.00  0.00    +0.000 C 
BRANCH  14  15
ATOM     15  N   UNL     1       1.953   5.102  18.543  0.00  0.00    +0.000 N 
ATOM     16  C   UNL     1       2.721   6.002  19.243  0.00  0.00    +0.000 C 
ATOM     17  N   UNL     1       3.776   5.673  19.916  0.00  0.00    +0.000 NA
ATOM     18  H   UNL     1       1.224   5.491  17.947  0.00  0.00    +0.000 HD
ATOM     19  H   UNL     1       3.956   4.674  19.827  0.00  0.00    +0.000 HD
BRANCH  16  20
ATOM     20  C   UNL     1       2.299   7.468  19.298  0.00  0.00    +0.000 C 
ATOM     21 CL   UNL     1       2.567   8.258  17.730  0.00  0.00    +0.000 Cl
ENDBRANCH  16  20
ENDBRANCH  14  15
ENDBRANCH  13  14
ENDBRANCH  12  13
ENDBRANCH   1  12
TORSDOF 9
ENDMDL
MODEL 5
REMARK VINA RESULT:      -5.6      2.198      3.371
REMARK  Name = 
REMARK  11 active torsions:
REMARK  status: ('A' for Active; 'I' for Inactive)
REMARK    1  A    between atoms: C_1  and  O_2
REMARK    2  A    between atoms: O_2  and  C_3
REMARK    3  A    between atoms: C_3  and  C_5
REMARK    4  A    between atoms: C_5  and  C_6
REMARK    5  A    between atoms: C_5  and  N_15
REMARK    6  A    between atoms: C_6  and  C_7
REMARK    7  A    between atoms: C_7  and  C_8
REMARK    8  A    between atoms: C_8  and  C_9
REMARK    9  A    between atoms: C_9  and  N_10
REMARK   10  A    between atoms: C_11  and  C_13
REMARK   11  A    between atoms: C_16  and  C_17
REMARK                            x       y       z     vdW  Elec       q    Type
REMARK                         _______ _______ _______ _____ _____    ______ ____
ROOT
ATOM      1  C   UNL     1       3.764   5.819  17.439  0.00  0.00    +0.000 C 
ENDROOT
BRANCH   1   2
ATOM      2  C   UNL     1       5.066   5.285  16.828  0.00  0.00    +0.000 C 
BRANCH   2   3
ATOM      3  N   UNL     1       6.218   5.808  17.570  0.00  0.00    +0.000 N 
ATOM      4  C   UNL     1       6.701   5.207  18.703  0.00  0.00    +0.000 C 
ATOM      5  C   UNL     1       7.873   5.916  19.334  0.00  0.00    +0.000 C 
ATOM      6  O   UNL     1       6.212   4.190  19.184  0.00  0.00    +0.000 OA
ATOM      7  H   UNL     1       6.633   6.673  17.234  0.00  0.00    +0.000 HD
ENDBRANCH   2   3
BRANCH   2   8
ATOM      8  C   UNL     1       5.223   5.763  15.382  0.00  0.00    +0.000 C 
ATOM      9  O   UNL     1       5.147   6.937  15.036  0.00  0.00    +0.000 OA
BRANCH   8  11
ATOM     10  C   UNL     1       6.767   4.418  14.230  0.00  0.00    +0.000 C 
ATOM     11  O   UNL     1       5.404   4.705  14.545  0.00  0.00    +0.000 OA
ENDBRANCH   8  11
ENDBRANCH   2   8
ENDBRANCH   1   2
BRANCH   1  12
ATOM     12  C   UNL     1       2.744   4.732  17.813  0.00  0.00    +0.000 C 
BRANCH  12  13
ATOM     13  C   UNL     1       2.794   3.508  16.884  0.00  0.00    +0.000 C 
BRANCH  13  14
ATOM     14  C   UNL     1       2.858   2.198  17.666  0.00  0.00    +0.000 C 
BRANCH  14  15
ATOM     15  N   UNL     1       2.527   2.384  19.058  0.00  0.00    +0.000 N 
ATOM     16  C   UNL     1       3.417   2.297  20.102  0.00  0.00    +0.000 C 
ATOM     17  N   UNL     1       4.664   1.983  19.955  0.00  0.00    +0.000 NA
ATOM     18  H   UNL     1       1.607   2.764  19.273  0.00  0.00    +0.000 HD
ATOM     19  H   UNL     1       4.881   1.841  18.971  0.00  0.00    +0.000 HD
BRANCH  16  20
ATOM     20  C   UNL     1       2.925   2.518  21.530  0.00  0.00    +0.000 C 
ATOM     21 CL   UNL     1       1.208   2.972  21.539  0.00  0.00    +0.000 Cl
ENDBRANCH  16  20
ENDBRANCH  14  15
ENDBRANCH  13  14
ENDBRANCH  12  13
ENDBRANCH   1  12
TORSDOF 9
ENDMDL
MODEL 6
REMARK VINA RESULT:      -5.6      2.093      3.439
REMARK  Name = 
REMARK  11 active torsions:
REMARK  status: ('A' for Active; 'I' for Inactive)
REMARK    1  A    between atoms: C_1  and  O_2
REMARK    2  A    between atoms: O_2  and  C_3
REMARK    3  A    between atoms: C_3  and  C_5
REMARK    4  A    between atoms: C_5  and  C_6
REMARK    5  A    between atoms: C_5  and  N_15
REMARK    6  A    between atoms: C_6  and  C_7
REMARK    7  A    between atoms: C_7  and  C_8
REMARK    8  A    between atoms: C_8  and  C_9
REMARK    9  A    between atoms: C_9  and  N_10
REMARK   10  A    between atoms: C_11  and  C_13
REMARK   11  A    between atoms: C_16  and  C_17
REMARK                            x       y       z     vdW  Elec       q    Type
REMARK                         _______ _______ _______ _____ _____    ______ ____
ROOT
ATOM      1  C   UNL     1       5.437   4.921  16.831  0.00  0.00    +0.000 C 
ENDROOT
BRANCH   1   2
ATOM      2  C   UNL     1       6.892   5.087  16.371  0.00  0.00    +0.000 C 
BRANCH   2   3
ATOM      3  N   UNL     1       7.309   6.484  16.527  0.00  0.00    +0.000 N 
ATOM      4  C   UNL     1       7.683   7.012  17.736  0.00  0.00    +0.000 C 
ATOM      5  C   UNL     1       8.050   8.474  17.691  0.00  0.00    +0.000 C 
ATOM      6  O   UNL     1       7.700   6.363  18.776  0.00  0.00    +0.000 OA
ATOM      7  H   UNL     1       7.274   7.074  15.701  0.00  0.00    +0.000 HD
ENDBRANCH   2   3
BRANCH   2   8
ATOM      8  C   UNL     1       7.033   4.751  14.884  0.00  0.00    +0.000 C 
ATOM      9  O   UNL     1       6.465   3.812  14.337  0.00  0.00    +0.000 OA
BRANCH   8  11
ATOM     10  C   UNL     1       8.032   5.431  12.870  0.00  0.00    +0.000 C 
ATOM     11  O   UNL     1       7.909   5.601  14.283  0.00  0.00    +0.000 OA
ENDBRANCH   8  11
ENDBRANCH   2   8
ENDBRANCH   1   2
BRANCH   1  12
ATOM     12  C   UNL     1       4.557   6.162  16.616  0.00  0.00    +0.000 C 
BRANCH  12  13
ATOM     13  C   UNL     1       3.998   6.742  17.925  0.00  0.00    +0.000 C 
BRANCH  13  14
ATOM     14  C   UNL     1       2.576   6.259  18.205  0.00  0.00    +0.000 C 
BRANCH  14  15
ATOM     15  N   UNL     1       2.564   4.984  18.881  0.00  0.00    +0.000 N 
ATOM     16  C   UNL     1       1.867   3.874  18.466  0.00  0.00    +0.000 C 
ATOM     17  N   UNL     1       1.089   3.863  17.431  0.00  0.00    +0.000 NA
ATOM     18  H   UNL     1       3.242   4.843  19.628  0.00  0.00    +0.000 HD
ATOM     19  H   UNL     1       1.097   4.772  16.972  0.00  0.00    +0.000 HD
BRANCH  16  20
ATOM     20  C   UNL     1       1.945   2.588  19.283  0.00  0.00    +0.000 C 
ATOM     21 CL   UNL     1       3.215   2.705  20.519  0.00  0.00    +0.000 Cl
ENDBRANCH  16  20
ENDBRANCH  14  15
ENDBRANCH  13  14
ENDBRANCH  12  13
ENDBRANCH   1  12
TORSDOF 9
ENDMDL
MODEL 7
REMARK VINA RESULT:      -5.6      2.280      3.520
REMARK  Name = 
REMARK  11 active torsions:
REMARK  status: ('A' for Active; 'I' for Inactive)
REMARK    1  A    between atoms: C_1  and  O_2
REMARK    2  A    between atoms: O_2  and  C_3
REMARK    3  A    between atoms: C_3  and  C_5
REMARK    4  A    between atoms: C_5  and  C_6
REMARK    5  A    between atoms: C_5  and  N_15
REMARK    6  A    between atoms: C_6  and  C_7
REMARK    7  A    between atoms: C_7  and  C_8
REMARK    8  A    between atoms: C_8  and  C_9
REMARK    9  A    between atoms: C_9  and  N_10
REMARK   10  A    between atoms: C_11  and  C_13
REMARK   11  A    between atoms: C_16  and  C_17
REMARK                            x       y       z     vdW  Elec       q    Type
REMARK                         _______ _______ _______ _____ _____    ______ ____
ROOT
ATOM      1  C   UNL     1       5.205   4.361  15.509  0.00  0.00    +0.000 C 
ENDROOT
BRANCH   1   2
ATOM      2  C   UNL     1       6.706   4.672  15.437  0.00  0.00    +0.000 C 
BRANCH   2   3
ATOM      3  N   UNL     1       6.984   5.946  16.109  0.00  0.00    +0.000 N 
ATOM      4  C   UNL     1       7.512   6.013  17.373  0.00  0.00    +0.000 C 
ATOM      5  C   UNL     1       7.697   7.415  17.897  0.00  0.00    +0.000 C 
ATOM      6  O   UNL     1       7.792   5.021  18.038  0.00  0.00    +0.000 OA
ATOM      7  H   UNL     1       6.732   6.796  15.615  0.00  0.00    +0.000 HD
ENDBRANCH   2   3
BRANCH   2   8
ATOM      8  C   UNL     1       7.158   4.836  13.984  0.00  0.00    +0.000 C 
ATOM      9  O   UNL     1       8.111   5.525  13.637  0.00  0.00    +0.000 OA
BRANCH   8  11
ATOM     10  C   UNL     1       6.976   3.550  12.027  0.00  0.00    +0.000 C 
ATOM     11  O   UNL     1       6.328   4.159  13.145  0.00  0.00    +0.000 OA
ENDBRANCH   8  11
ENDBRANCH   2   8
ENDBRANCH   1   2
BRANCH   1  12
ATOM     12  C   UNL     1       4.688   4.038  16.919  0.00  0.00    +0.000 C 
BRANCH  12  13
ATOM     13  C   UNL     1       3.681   5.073  17.446  0.00  0.00    +0.000 C 
BRANCH  13  14
ATOM     14  C   UNL     1       2.293   4.467  17.651  0.00  0.00    +0.000 C 
BRANCH  14  15
ATOM     15  N   UNL     1       2.092   4.030  19.011  0.00  0.00    +0.000 N 
ATOM     16  C   UNL     1       1.255   3.011  19.400  0.00  0.00    +0.000 C 
ATOM     17  N   UNL     1       0.503   2.350  18.580  0.00  0.00    +0.000 NA
ATOM     18  H   UNL     1       2.730   4.391  19.719  0.00  0.00    +0.000 HD
ATOM     19  H   UNL     1       0.645   2.677  17.626  0.00  0.00    +0.000 HD
BRANCH  16  20
ATOM     20  C   UNL     1       1.139   2.656  20.880  0.00  0.00    +0.000 C 
ATOM     21 CL   UNL     1       2.255   3.639  21.851  0.00  0.00    +0.000 Cl
ENDBRANCH  16  20
ENDBRANCH  14  15
ENDBRANCH  13  14
ENDBRANCH  12  13
ENDBRANCH   1  12
TORSDOF 9
ENDMDL
MODEL 8
REMARK VINA RESULT:      -5.6      1.914      2.592
REMARK  Name = 
REMARK  11 active torsions:
REMARK  status: ('A' for Active; 'I' for Inactive)
REMARK    1  A    between atoms: C_1  and  O_2
REMARK    2  A    between atoms: O_2  and  C_3
REMARK    3  A    between atoms: C_3  and  C_5
REMARK    4  A    between atoms: C_5  and  C_6
REMARK    5  A    between atoms: C_5  and  N_15
REMARK    6  A    between atoms: C_6  and  C_7
REMARK    7  A    between atoms: C_7  and  C_8
REMARK    8  A    between atoms: C_8  and  C_9
REMARK    9  A    between atoms: C_9  and  N_10
REMARK   10  A    between atoms: C_11  and  C_13
REMARK   11  A    between atoms: C_16  and  C_17
REMARK                            x       y       z     vdW  Elec       q    Type
REMARK                         _______ _______ _______ _____ _____    ______ ____
ROOT
ATOM      1  C   UNL     1       5.142   6.516  15.993  0.00  0.00    +0.000 C 
ENDROOT
BRANCH   1   2
ATOM      2  C   UNL     1       6.059   5.332  16.326  0.00  0.00    +0.000 C 
BRANCH   2   3
ATOM      3  N   UNL     1       7.043   5.730  17.338  0.00  0.00    +0.000 N 
ATOM      4  C   UNL     1       7.054   5.205  18.604  0.00  0.00    +0.000 C 
ATOM      5  C   UNL     1       8.127   5.766  19.503  0.00  0.00    +0.000 C 
ATOM      6  O   UNL     1       6.248   4.364  18.990  0.00  0.00    +0.000 OA
ATOM      7  H   UNL     1       7.707   6.454  17.079  0.00  0.00    +0.000 HD
ENDBRANCH   2   3
BRANCH   2   8
ATOM      8  C   UNL     1       6.852   4.895  15.092  0.00  0.00    +0.000 C 
ATOM      9  O   UNL     1       7.780   5.537  14.612  0.00  0.00    +0.000 OA
BRANCH   8  11
ATOM     10  C   UNL     1       6.111   3.756  13.177  0.00  0.00    +0.000 C 
ATOM     11  O   UNL     1       6.349   3.737  14.585  0.00  0.00    +0.000 OA
ENDBRANCH   8  11
ENDBRANCH   2   8
ENDBRANCH   1   2
BRANCH   1  12
ATOM     12  C   UNL     1       4.340   7.056  17.188  0.00  0.00    +0.000 C 
BRANCH  12  13
ATOM     13  C   UNL     1       3.392   6.013  17.802  0.00  0.00    +0.000 C 
BRANCH  13  14
ATOM     14  C   UNL     1       2.673   6.551  19.038  0.00  0.00    +0.000 C 
BRANCH  14  15
ATOM     15  N   UNL     1       2.845   5.687  20.180  0.00  0.00    +0.000 N 
ATOM     16  C   UNL     1       2.090   4.570  20.449  0.00  0.00    +0.000 C 
ATOM     17  N   UNL     1       1.089   4.190  19.722  0.00  0.00    +0.000 NA
ATOM     18  H   UNL     1       3.684   5.817  20.743  0.00  0.00    +0.000 HD
ATOM     19  H   UNL     1       0.970   4.816  18.928  0.00  0.00    +0.000 HD
BRANCH  16  20
ATOM     20  C   UNL     1       2.384   3.747  21.701  0.00  0.00    +0.000 C 
ATOM     21 CL   UNL     1       1.276   2.363  21.817  0.00  0.00    +0.000 Cl
ENDBRANCH  16  20
ENDBRANCH  14  15
ENDBRANCH  13  14
ENDBRANCH  12  13
ENDBRANCH   1  12
TORSDOF 9
ENDMDL
MODEL 9
REMARK VINA RESULT:      -5.5      2.204      3.558
REMARK  Name = 
REMARK  11 active torsions:
REMARK  status: ('A' for Active; 'I' for Inactive)
REMARK    1  A    between atoms: C_1  and  O_2
REMARK    2  A    between atoms: O_2  and  C_3
REMARK    3  A    between atoms: C_3  and  C_5
REMARK    4  A    between atoms: C_5  and  C_6
REMARK    5  A    between atoms: C_5  and  N_15
REMARK    6  A    between atoms: C_6  and  C_7
REMARK    7  A    between atoms: C_7  and  C_8
REMARK    8  A    between atoms: C_8  and  C_9
REMARK    9  A    between atoms: C_9  and  N_10
REMARK   10  A    between atoms: C_11  and  C_13
REMARK   11  A    between atoms: C_16  and  C_17
REMARK                            x       y       z     vdW  Elec       q    Type
REMARK                         _______ _______ _______ _____ _____    ______ ____
ROOT
ATOM      1  C   UNL     1       4.032   3.824  16.706  0.00  0.00    +0.000 C 
ENDROOT
BRANCH   1   2
ATOM      2  C   UNL     1       5.509   4.151  16.454  0.00  0.00    +0.000 C 
BRANCH   2   3
ATOM      3  N   UNL     1       6.052   4.913  17.584  0.00  0.00    +0.000 N 
ATOM      4  C   UNL     1       7.374   4.861  17.943  0.00  0.00    +0.000 C 
ATOM      5  C   UNL     1       7.726   5.694  19.149  0.00  0.00    +0.000 C 
ATOM      6  O   UNL     1       8.204   4.179  17.350  0.00  0.00    +0.000 OA
ATOM      7  H   UNL     1       5.395   5.462  18.131  0.00  0.00    +0.000 HD
ENDBRANCH   2   3
BRANCH   2   8
ATOM      8  C   UNL     1       5.667   5.035  15.214  0.00  0.00    +0.000 C 
ATOM      9  O   UNL     1       5.356   6.220  15.174  0.00  0.00    +0.000 OA
BRANCH   8  11
ATOM     10  C   UNL     1       7.242   4.907  13.476  0.00  0.00    +0.000 C 
ATOM     11  O   UNL     1       6.144   4.309  14.167  0.00  0.00    +0.000 OA
ENDBRANCH   8  11
ENDBRANCH   2   8
ENDBRANCH   1   2
BRANCH   1  12
ATOM     12  C   UNL     1       3.782   2.868  17.883  0.00  0.00    +0.000 C 
BRANCH  12  13
ATOM     13  C   UNL     1       2.312   2.438  18.013  0.00  0.00    +0.000 C 
BRANCH  13  14
ATOM     14  C   UNL     1       1.576   3.231  19.090  0.00  0.00    +0.000 C 
BRANCH  14  15
ATOM     15  N   UNL     1       1.768   4.653  18.939  0.00  0.00    +0.000 N 
ATOM     16  C   UNL     1       2.203   5.503  19.928  0.00  0.00    +0.000 C 
ATOM     17  N   UNL     1       2.445   5.125  21.142  0.00  0.00    +0.000 NA
ATOM     18  H   UNL     1       1.734   5.032  17.994  0.00  0.00    +0.000 HD
ATOM     19  H   UNL     1       2.292   4.123  21.238  0.00  0.00    +0.000 HD
BRANCH  16  20
ATOM     20  C   UNL     1       2.359   6.991  19.626  0.00  0.00    +0.000 C 
ATOM     21 CL   UNL     1       3.063   7.233  18.013  0.00  0.00    +0.000 Cl
ENDBRANCH  16  20
ENDBRANCH  14  15
ENDBRANCH  13  14
ENDBRANCH  12  13
ENDBRANCH   1  12
TORSDOF 9
ENDMDL
