MODEL 1
REMARK VINA RESULT:      -7.5      0.000      0.000
REMARK  Name = 
REMARK  4 active torsions:
REMARK  status: ('A' for Active; 'I' for Inactive)
REMARK    1  A    between atoms: C_1  and  C_2
REMARK    2  A    between atoms: C_7  and  C_8
REMARK    3  A    between atoms: N_10  and  N_11
REMARK    4  A    between atoms: C_12  and  C_13
REMARK                            x       y       z     vdW  Elec       q    Type
REMARK                         _______ _______ _______ _____ _____    ______ ____
ROOT
ATOM      1  C   UNL     1       2.346   6.862  19.712  0.00  0.00    +0.000 C 
ATOM      2  O   UNL     1       1.782   6.146  20.540  0.00  0.00    +0.000 OA
ATOM      3  N   UNL     1       2.044   8.218  19.549  0.00  0.00    +0.000 N 
ATOM      4  H   UNL     1       2.518   8.746  18.822  0.00  0.00    +0.000 HD
ENDROOT
BRANCH   1  11
ATOM      5  C   UNL     1       6.079   4.140  14.029  0.00  0.00    +0.000 C 
ATOM      6  C   UNL     1       6.393   5.130  15.160  0.00  0.00    +0.000 C 
ATOM      7  C   UNL     1       7.126   4.387  16.303  0.00  0.00    +0.000 C 
ATOM      8  C   UNL     1       6.545   4.375  17.710  0.00  0.00    +0.000 C 
ATOM      9  C   UNL     1       5.334   5.206  17.872  0.00  0.00    +0.000 A 
ATOM     10  S   UNL     1       4.607   5.320  19.399  0.00  0.00    +0.000 S 
ATOM     11  C   UNL     1       3.379   6.356  18.816  0.00  0.00    +0.000 A 
ATOM     12  C   UNL     1       3.537   6.596  17.459  0.00  0.00    +0.000 A 
ATOM     13  C   UNL     1       4.685   5.926  16.908  0.00  0.00    +0.000 A 
ATOM     14  C   UNL     1       5.145   5.985  15.487  0.00  0.00    +0.000 C 
ENDBRANCH   1  11
BRANCH   3  15
ATOM     15  N   UNL     1       1.065   8.790  20.291  0.00  0.00    +0.000 NA
ATOM     16  C   UNL     1       1.025  10.084  20.323  0.00  0.00    +0.000 C 
BRANCH  16  17
ATOM     17  C   UNL     1      -0.062  10.752  21.071  0.00  0.00    +0.000 A 
ATOM     18  C   UNL     1      -0.260  10.394  22.417  0.00  0.00    +0.000 A 
ATOM     19  C   UNL     1      -1.313  10.944  23.148  0.00  0.00    +0.000 A 
ATOM     20  C   UNL     1      -2.168  11.854  22.537  0.00  0.00    +0.000 A 
ATOM     21 CL   UNL     1      -3.486  12.512  23.426  0.00  0.00    +0.000 Cl
ATOM     22  C   UNL     1      -1.976  12.227  21.207  0.00  0.00    +0.000 A 
ATOM     23  C   UNL     1      -0.920  11.679  20.470  0.00  0.00    +0.000 A 
ATOM     24 CL   UNL     1      -0.754  12.177  18.826  0.00  0.00    +0.000 Cl
ENDBRANCH  16  17
ENDBRANCH   3  15
TORSDOF 3
ENDMDL
MODEL 2
REMARK VINA RESULT:      -7.5      3.757      9.848
REMARK  Name = 
REMARK  4 active torsions:
REMARK  status: ('A' for Active; 'I' for Inactive)
REMARK    1  A    between atoms: C_1  and  C_2
REMARK    2  A    between atoms: C_7  and  C_8
REMARK    3  A    between atoms: N_10  and  N_11
REMARK    4  A    between atoms: C_12  and  C_13
REMARK                            x       y       z     vdW  Elec       q    Type
REMARK                         _______ _______ _______ _____ _____    ______ ____
ROOT
ATOM      1  C   UNL     1       1.429  10.037  18.830  0.00  0.00    +0.000 C 
ATOM      2  O   UNL     1       2.057  10.722  18.023  0.00  0.00    +0.000 OA
ATOM      3  N   UNL     1       1.604   8.655  18.953  0.00  0.00    +0.000 N 
ATOM      4  H   UNL     1       1.029   8.140  19.612  0.00  0.00    +0.000 HD
ENDROOT
BRANCH   1  11
ATOM      5  C   UNL     1      -3.282  14.439  22.305  0.00  0.00    +0.000 C 
ATOM      6  C   UNL     1      -3.226  12.936  21.997  0.00  0.00    +0.000 C 
ATOM      7  C   UNL     1      -2.658  12.181  23.223  0.00  0.00    +0.000 C 
ATOM      8  C   UNL     1      -1.406  11.326  23.089  0.00  0.00    +0.000 C 
ATOM      9  C   UNL     1      -0.897  11.212  21.706  0.00  0.00    +0.000 A 
ATOM     10  S   UNL     1       0.467  10.252  21.403  0.00  0.00    +0.000 S 
ATOM     11  C   UNL     1       0.435  10.607  19.731  0.00  0.00    +0.000 A 
ATOM     12  C   UNL     1      -0.616  11.460  19.427  0.00  0.00    +0.000 A 
ATOM     13  C   UNL     1      -1.398  11.811  20.583  0.00  0.00    +0.000 A 
ATOM     14  C   UNL     1      -2.601  12.696  20.601  0.00  0.00    +0.000 C 
ENDBRANCH   1  11
BRANCH   3  15
ATOM     15  N   UNL     1       2.466   8.004  18.133  0.00  0.00    +0.000 NA
ATOM     16  C   UNL     1       2.854   6.824  18.499  0.00  0.00    +0.000 C 
BRANCH  16  17
ATOM     17  C   UNL     1       3.747   6.052  17.606  0.00  0.00    +0.000 A 
ATOM     18  C   UNL     1       4.673   6.760  16.819  0.00  0.00    +0.000 A 
ATOM     19  C   UNL     1       5.491   6.087  15.912  0.00  0.00    +0.000 A 
ATOM     20  C   UNL     1       5.388   4.705  15.793  0.00  0.00    +0.000 A 
ATOM     21 CL   UNL     1       6.374   3.875  14.654  0.00  0.00    +0.000 Cl
ATOM     22  C   UNL     1       4.483   3.990  16.577  0.00  0.00    +0.000 A 
ATOM     23  C   UNL     1       3.661   4.661  17.489  0.00  0.00    +0.000 A 
ATOM     24 CL   UNL     1       2.556   3.710  18.414  0.00  0.00    +0.000 Cl
ENDBRANCH  16  17
ENDBRANCH   3  15
TORSDOF 3
ENDMDL
MODEL 3
REMARK VINA RESULT:      -7.3      3.873      9.932
REMARK  Name = 
REMARK  4 active torsions:
REMARK  status: ('A' for Active; 'I' for Inactive)
REMARK    1  A    between atoms: C_1  and  C_2
REMARK    2  A    between atoms: C_7  and  C_8
REMARK    3  A    between atoms: N_10  and  N_11
REMARK    4  A    between atoms: C_12  and  C_13
REMARK                            x       y       z     vdW  Elec       q    Type
REMARK                         _______ _______ _______ _____ _____    ______ ____
ROOT
ATOM      1  C   UNL     1       1.348  10.375  18.734  0.00  0.00    +0.000 C 
ATOM      2  O   UNL     1       2.147  11.004  18.039  0.00  0.00    +0.000 OA
ATOM      3  N   UNL     1       1.360   8.980  18.833  0.00  0.00    +0.000 N 
ATOM      4  H   UNL     1       0.651   8.518  19.393  0.00  0.00    +0.000 HD
ENDROOT
BRANCH   1  11
ATOM      5  C   UNL     1      -3.460  12.326  23.904  0.00  0.00    +0.000 C 
ATOM      6  C   UNL     1      -2.629  13.078  22.855  0.00  0.00    +0.000 C 
ATOM      7  C   UNL     1      -3.502  13.347  21.605  0.00  0.00    +0.000 C 
ATOM      8  C   UNL     1      -3.074  12.826  20.240  0.00  0.00    +0.000 C 
ATOM      9  C   UNL     1      -1.746  12.178  20.229  0.00  0.00    +0.000 A 
ATOM     10  S   UNL     1      -1.123  11.592  18.765  0.00  0.00    +0.000 S 
ATOM     11  C   UNL     1       0.307  11.032  19.515  0.00  0.00    +0.000 A 
ATOM     12  C   UNL     1       0.287  11.296  20.877  0.00  0.00    +0.000 A 
ATOM     13  C   UNL     1      -0.913  11.970  21.294  0.00  0.00    +0.000 A 
ATOM     14  C   UNL     1      -1.244  12.408  22.684  0.00  0.00    +0.000 C 
ENDBRANCH   1  11
BRANCH   3  15
ATOM     15  N   UNL     1       2.251   8.256  18.112  0.00  0.00    +0.000 NA
ATOM     16  C   UNL     1       2.564   7.083  18.564  0.00  0.00    +0.000 C 
BRANCH  16  17
ATOM     17  C   UNL     1       3.487   6.233  17.779  0.00  0.00    +0.000 A 
ATOM     18  C   UNL     1       4.558   6.855  17.112  0.00  0.00    +0.000 A 
ATOM     19  C   UNL     1       5.417   6.110  16.305  0.00  0.00    +0.000 A 
ATOM     20  C   UNL     1       5.210   4.742  16.165  0.00  0.00    +0.000 A 
ATOM     21 CL   UNL     1       6.249   3.824  15.147  0.00  0.00    +0.000 Cl
ATOM     22  C   UNL     1       4.159   4.111  16.830  0.00  0.00    +0.000 A 
ATOM     23  C   UNL     1       3.295   4.855  17.642  0.00  0.00    +0.000 A 
ATOM     24 CL   UNL     1       2.009   4.007  18.422  0.00  0.00    +0.000 Cl
ENDBRANCH  16  17
ENDBRANCH   3  15
TORSDOF 3
ENDMDL
MODEL 4
REMARK VINA RESULT:      -7.3      1.228      1.627
REMARK  Name = 
REMARK  4 active torsions:
REMARK  status: ('A' for Active; 'I' for Inactive)
REMARK    1  A    between atoms: C_1  and  C_2
REMARK    2  A    between atoms: C_7  and  C_8
REMARK    3  A    between atoms: N_10  and  N_11
REMARK    4  A    between atoms: C_12  and  C_13
REMARK                            x       y       z     vdW  Elec       q    Type
REMARK                         _______ _______ _______ _____ _____    ______ ____
ROOT
ATOM      1  C   UNL     1       2.046   7.396  19.595  0.00  0.00    +0.000 C 
ATOM      2  O   UNL     1       1.576   6.868  20.604  0.00  0.00    +0.000 OA
ATOM      3  N   UNL     1       1.595   8.624  19.100  0.00  0.00    +0.000 N 
ATOM      4  H   UNL     1       1.998   8.989  18.242  0.00  0.00    +0.000 HD
ENDROOT
BRANCH   1  11
ATOM      5  C   UNL     1       6.121   4.367  14.316  0.00  0.00    +0.000 C 
ATOM      6  C   UNL     1       6.407   5.268  15.526  0.00  0.00    +0.000 C 
ATOM      7  C   UNL     1       6.874   4.396  16.717  0.00  0.00    +0.000 C 
ATOM      8  C   UNL     1       6.111   4.419  18.034  0.00  0.00    +0.000 C 
ATOM      9  C   UNL     1       5.011   5.404  18.079  0.00  0.00    +0.000 A 
ATOM     10  S   UNL     1       4.105   5.569  19.503  0.00  0.00    +0.000 S 
ATOM     11  C   UNL     1       3.114   6.781  18.817  0.00  0.00    +0.000 A 
ATOM     12  C   UNL     1       3.485   7.040  17.506  0.00  0.00    +0.000 A 
ATOM     13  C   UNL     1       4.598   6.237  17.075  0.00  0.00    +0.000 A 
ATOM     14  C   UNL     1       5.250   6.276  15.731  0.00  0.00    +0.000 C 
ENDBRANCH   1  11
BRANCH   3  15
ATOM     15  N   UNL     1       0.571   9.268  19.711  0.00  0.00    +0.000 NA
ATOM     16  C   UNL     1       0.876  10.132  20.626  0.00  0.00    +0.000 C 
BRANCH  16  17
ATOM     17  C   UNL     1      -0.207  10.902  21.277  0.00  0.00    +0.000 A 
ATOM     18  C   UNL     1      -0.807  11.948  20.553  0.00  0.00    +0.000 A 
ATOM     19  C   UNL     1      -1.785  12.748  21.144  0.00  0.00    +0.000 A 
ATOM     20  C   UNL     1      -2.168  12.502  22.458  0.00  0.00    +0.000 A 
ATOM     21 CL   UNL     1      -3.352  13.505  23.200  0.00  0.00    +0.000 Cl
ATOM     22  C   UNL     1      -1.589  11.460  23.183  0.00  0.00    +0.000 A 
ATOM     23  C   UNL     1      -0.609  10.655  22.594  0.00  0.00    +0.000 A 
ATOM     24 CL   UNL     1       0.071   9.394  23.558  0.00  0.00    +0.000 Cl
ENDBRANCH  16  17
ENDBRANCH   3  15
TORSDOF 3
ENDMDL
MODEL 5
REMARK VINA RESULT:      -7.2      4.662      9.369
REMARK  Name = 
REMARK  4 active torsions:
REMARK  status: ('A' for Active; 'I' for Inactive)
REMARK    1  A    between atoms: C_1  and  C_2
REMARK    2  A    between atoms: C_7  and  C_8
REMARK    3  A    between atoms: N_10  and  N_11
REMARK    4  A    between atoms: C_12  and  C_13
REMARK                            x       y       z     vdW  Elec       q    Type
REMARK                         _______ _______ _______ _____ _____    ______ ____
ROOT
ATOM      1  C   UNL     1       0.972  10.419  18.713  0.00  0.00    +0.000 C 
ATOM      2  O   UNL     1       0.248   9.789  19.483  0.00  0.00    +0.000 OA
ATOM      3  N   UNL     1       1.822   9.801  17.791  0.00  0.00    +0.000 N 
ATOM      4  H   UNL     1       2.423  10.377  17.209  0.00  0.00    +0.000 HD
ENDROOT
BRANCH   1  11
ATOM      5  C   UNL     1      -0.491  17.540  17.819  0.00  0.00    +0.000 C 
ATOM      6  C   UNL     1       0.265  16.711  18.866  0.00  0.00    +0.000 C 
ATOM      7  C   UNL     1       1.779  16.738  18.547  0.00  0.00    +0.000 C 
ATOM      8  C   UNL     1       2.539  15.441  18.305  0.00  0.00    +0.000 C 
ATOM      9  C   UNL     1       1.733  14.220  18.518  0.00  0.00    +0.000 A 
ATOM     10  S   UNL     1       2.465  12.702  18.327  0.00  0.00    +0.000 S 
ATOM     11  C   UNL     1       1.016  11.877  18.700  0.00  0.00    +0.000 A 
ATOM     12  C   UNL     1      -0.011  12.773  18.960  0.00  0.00    +0.000 A 
ATOM     13  C   UNL     1       0.410  14.144  18.857  0.00  0.00    +0.000 A 
ATOM     14  C   UNL     1      -0.441  15.351  19.087  0.00  0.00    +0.000 C 
ENDBRANCH   1  11
BRANCH   3  15
ATOM     15  N   UNL     1       1.905   8.449  17.745  0.00  0.00    +0.000 NA
ATOM     16  C   UNL     1       3.091   7.930  17.700  0.00  0.00    +0.000 C 
BRANCH  16  17
ATOM     17  C   UNL     1       3.232   6.457  17.710  0.00  0.00    +0.000 A 
ATOM     18  C   UNL     1       2.113   5.685  18.074  0.00  0.00    +0.000 A 
ATOM     19  C   UNL     1       2.211   4.296  18.163  0.00  0.00    +0.000 A 
ATOM     20  C   UNL     1       3.425   3.677  17.887  0.00  0.00    +0.000 A 
ATOM     21 CL   UNL     1       3.558   1.968  18.026  0.00  0.00    +0.000 Cl
ATOM     22  C   UNL     1       4.538   4.430  17.513  0.00  0.00    +0.000 A 
ATOM     23  C   UNL     1       4.444   5.823  17.420  0.00  0.00    +0.000 A 
ATOM     24 CL   UNL     1       5.867   6.688  16.965  0.00  0.00    +0.000 Cl
ENDBRANCH  16  17
ENDBRANCH   3  15
TORSDOF 3
ENDMDL
MODEL 6
REMARK VINA RESULT:      -7.2      4.372      9.723
REMARK  Name = 
REMARK  4 active torsions:
REMARK  status: ('A' for Active; 'I' for Inactive)
REMARK    1  A    between atoms: C_1  and  C_2
REMARK    2  A    between atoms: C_7  and  C_8
REMARK    3  A    between atoms: N_10  and  N_11
REMARK    4  A    between atoms: C_12  and  C_13
REMARK                            x       y       z     vdW  Elec       q    Type
REMARK                         _______ _______ _______ _____ _____    ______ ____
ROOT
ATOM      1  C   UNL     1       0.907  10.295  18.495  0.00  0.00    +0.000 C 
ATOM      2  O   UNL     1       1.854  11.081  18.476  0.00  0.00    +0.000 OA
ATOM      3  N   UNL     1       1.069   8.908  18.417  0.00  0.00    +0.000 N 
ATOM      4  H   UNL     1       0.245   8.315  18.400  0.00  0.00    +0.000 HD
ENDROOT
BRANCH   1  11
ATOM      5  C   UNL     1      -5.914  12.577  17.110  0.00  0.00    +0.000 C 
ATOM      6  C   UNL     1      -5.260  11.702  18.189  0.00  0.00    +0.000 C 
ATOM      7  C   UNL     1      -4.972  12.563  19.443  0.00  0.00    +0.000 C 
ATOM      8  C   UNL     1      -3.553  12.690  19.980  0.00  0.00    +0.000 C 
ATOM      9  C   UNL     1      -2.562  11.848  19.277  0.00  0.00    +0.000 A 
ATOM     10  S   UNL     1      -0.950  11.856  19.801  0.00  0.00    +0.000 S 
ATOM     11  C   UNL     1      -0.477  10.743  18.594  0.00  0.00    +0.000 A 
ATOM     12  C   UNL     1      -1.558  10.383  17.802  0.00  0.00    +0.000 A 
ATOM     13  C   UNL     1      -2.780  11.027  18.205  0.00  0.00    +0.000 A 
ATOM     14  C   UNL     1      -4.123  10.850  17.574  0.00  0.00    +0.000 C 
ENDBRANCH   1  11
BRANCH   3  15
ATOM     15  N   UNL     1       2.306   8.376  18.272  0.00  0.00    +0.000 NA
ATOM     16  C   UNL     1       2.409   7.087  18.344  0.00  0.00    +0.000 C 
BRANCH  16  17
ATOM     17  C   UNL     1       3.732   6.458  18.131  0.00  0.00    +0.000 A 
ATOM     18  C   UNL     1       4.534   6.936  17.080  0.00  0.00    +0.000 A 
ATOM     19  C   UNL     1       5.759   6.335  16.795  0.00  0.00    +0.000 A 
ATOM     20  C   UNL     1       6.187   5.256  17.562  0.00  0.00    +0.000 A 
ATOM     21 CL   UNL     1       7.683   4.492  17.194  0.00  0.00    +0.000 Cl
ATOM     22  C   UNL     1       5.406   4.780  18.615  0.00  0.00    +0.000 A 
ATOM     23  C   UNL     1       4.177   5.382  18.905  0.00  0.00    +0.000 A 
ATOM     24 CL   UNL     1       3.261   4.728  20.214  0.00  0.00    +0.000 Cl
ENDBRANCH  16  17
ENDBRANCH   3  15
TORSDOF 3
ENDMDL
MODEL 7
REMARK VINA RESULT:      -7.2      1.926      2.249
REMARK  Name = 
REMARK  4 active torsions:
REMARK  status: ('A' for Active; 'I' for Inactive)
REMARK    1  A    between atoms: C_1  and  C_2
REMARK    2  A    between atoms: C_7  and  C_8
REMARK    3  A    between atoms: N_10  and  N_11
REMARK    4  A    between atoms: C_12  and  C_13
REMARK                            x       y       z     vdW  Elec       q    Type
REMARK                         _______ _______ _______ _____ _____    ______ ____
ROOT
ATOM      1  C   UNL     1       1.814   8.222  19.348  0.00  0.00    +0.000 C 
ATOM      2  O   UNL     1       1.507   8.069  20.530  0.00  0.00    +0.000 OA
ATOM      3  N   UNL     1       1.261   9.223  18.542  0.00  0.00    +0.000 N 
ATOM      4  H   UNL     1       1.528   9.274  17.564  0.00  0.00    +0.000 HD
ENDROOT
BRANCH   1  11
ATOM      5  C   UNL     1       5.716   4.442  14.436  0.00  0.00    +0.000 C 
ATOM      6  C   UNL     1       6.030   5.140  15.766  0.00  0.00    +0.000 C 
ATOM      7  C   UNL     1       6.013   4.096  16.910  0.00  0.00    +0.000 C 
ATOM      8  C   UNL     1       5.070   4.266  18.093  0.00  0.00    +0.000 C 
ATOM      9  C   UNL     1       4.306   5.530  18.081  0.00  0.00    +0.000 A 
ATOM     10  S   UNL     1       3.250   5.871  19.363  0.00  0.00    +0.000 S 
ATOM     11  C   UNL     1       2.782   7.364  18.675  0.00  0.00    +0.000 A 
ATOM     12  C   UNL     1       3.435   7.580  17.471  0.00  0.00    +0.000 A 
ATOM     13  C   UNL     1       4.331   6.508  17.125  0.00  0.00    +0.000 A 
ATOM     14  C   UNL     1       5.192   6.433  15.906  0.00  0.00    +0.000 C 
ENDBRANCH   1  11
BRANCH   3  15
ATOM     15  N   UNL     1       0.312  10.050  19.043  0.00  0.00    +0.000 NA
ATOM     16  C   UNL     1      -0.727  10.277  18.304  0.00  0.00    +0.000 C 
BRANCH  16  17
ATOM     17  C   UNL     1      -1.816  11.127  18.835  0.00  0.00    +0.000 A 
ATOM     18  C   UNL     1      -1.567  11.874  20.001  0.00  0.00    +0.000 A 
ATOM     19  C   UNL     1      -2.580  12.638  20.580  0.00  0.00    +0.000 A 
ATOM     20  C   UNL     1      -3.841  12.660  19.994  0.00  0.00    +0.000 A 
ATOM     21 CL   UNL     1      -5.101  13.577  20.722  0.00  0.00    +0.000 Cl
ATOM     22  C   UNL     1      -4.097  11.934  18.831  0.00  0.00    +0.000 A 
ATOM     23  C   UNL     1      -3.083  11.167  18.245  0.00  0.00    +0.000 A 
ATOM     24 CL   UNL     1      -3.479  10.284  16.815  0.00  0.00    +0.000 Cl
ENDBRANCH  16  17
ENDBRANCH   3  15
TORSDOF 3
ENDMDL
MODEL 8
REMARK VINA RESULT:      -7.2      4.794      9.256
REMARK  Name = 
REMARK  4 active torsions:
REMARK  status: ('A' for Active; 'I' for Inactive)
REMARK    1  A    between atoms: C_1  and  C_2
REMARK    2  A    between atoms: C_7  and  C_8
REMARK    3  A    between atoms: N_10  and  N_11
REMARK    4  A    between atoms: C_12  and  C_13
REMARK                            x       y       z     vdW  Elec       q    Type
REMARK                         _______ _______ _______ _____ _____    ______ ____
ROOT
ATOM      1  C   UNL     1       1.092  10.262  18.746  0.00  0.00    +0.000 C 
ATOM      2  O   UNL     1       0.489   9.623  19.609  0.00  0.00    +0.000 OA
ATOM      3  N   UNL     1       1.802   9.653  17.707  0.00  0.00    +0.000 N 
ATOM      4  H   UNL     1       2.310  10.235  17.048  0.00  0.00    +0.000 HD
ENDROOT
BRANCH   1  11
ATOM      5  C   UNL     1       2.853  17.311  19.671  0.00  0.00    +0.000 C 
ATOM      6  C   UNL     1       2.150  16.504  18.571  0.00  0.00    +0.000 C 
ATOM      7  C   UNL     1       0.617  16.616  18.750  0.00  0.00    +0.000 C 
ATOM      8  C   UNL     1      -0.230  15.366  18.940  0.00  0.00    +0.000 C 
ATOM      9  C   UNL     1       0.524  14.100  18.819  0.00  0.00    +0.000 A 
ATOM     10  S   UNL     1      -0.304  12.628  18.963  0.00  0.00    +0.000 S 
ATOM     11  C   UNL     1       1.126  11.720  18.735  0.00  0.00    +0.000 A 
ATOM     12  C   UNL     1       2.219  12.555  18.557  0.00  0.00    +0.000 A 
ATOM     13  C   UNL     1       1.866  13.949  18.602  0.00  0.00    +0.000 A 
ATOM     14  C   UNL     1       2.798  15.104  18.434  0.00  0.00    +0.000 C 
ENDBRANCH   1  11
BRANCH   3  15
ATOM     15  N   UNL     1       1.884   8.302  17.641  0.00  0.00    +0.000 NA
ATOM     16  C   UNL     1       3.044   7.768  17.855  0.00  0.00    +0.000 C 
BRANCH  16  17
ATOM     17  C   UNL     1       3.168   6.293  17.853  0.00  0.00    +0.000 A 
ATOM     18  C   UNL     1       2.243   5.548  18.607  0.00  0.00    +0.000 A 
ATOM     19  C   UNL     1       2.356   4.160  18.693  0.00  0.00    +0.000 A 
ATOM     20  C   UNL     1       3.391   3.515  18.023  0.00  0.00    +0.000 A 
ATOM     21 CL   UNL     1       3.551   1.807  18.151  0.00  0.00    +0.000 Cl
ATOM     22  C   UNL     1       4.307   4.241  17.263  0.00  0.00    +0.000 A 
ATOM     23  C   UNL     1       4.196   5.633  17.173  0.00  0.00    +0.000 A 
ATOM     24 CL   UNL     1       5.375   6.465  16.225  0.00  0.00    +0.000 Cl
ENDBRANCH  16  17
ENDBRANCH   3  15
TORSDOF 3
ENDMDL
MODEL 9
REMARK VINA RESULT:      -7.2      3.870      9.802
REMARK  Name = 
REMARK  4 active torsions:
REMARK  status: ('A' for Active; 'I' for Inactive)
REMARK    1  A    between atoms: C_1  and  C_2
REMARK    2  A    between atoms: C_7  and  C_8
REMARK    3  A    between atoms: N_10  and  N_11
REMARK    4  A    between atoms: C_12  and  C_13
REMARK                            x       y       z     vdW  Elec       q    Type
REMARK                         _______ _______ _______ _____ _____    ______ ____
ROOT
ATOM      1  C   UNL     1       1.673   9.706  18.559  0.00  0.00    +0.000 C 
ATOM      2  O   UNL     1       2.121  10.223  17.535  0.00  0.00    +0.000 OA
ATOM      3  N   UNL     1       1.783   8.338  18.831  0.00  0.00    +0.000 N 
ATOM      4  H   UNL     1       1.360   7.967  19.676  0.00  0.00    +0.000 HD
ENDROOT
BRANCH   1  11
ATOM      5  C   UNL     1      -3.113  12.214  23.504  0.00  0.00    +0.000 C 
ATOM      6  C   UNL     1      -1.584  12.238  23.363  0.00  0.00    +0.000 C 
ATOM      7  C   UNL     1      -1.146  13.590  22.750  0.00  0.00    +0.000 C 
ATOM      8  C   UNL     1      -0.352  13.625  21.452  0.00  0.00    +0.000 C 
ATOM      9  C   UNL     1       0.032  12.293  20.941  0.00  0.00    +0.000 A 
ATOM     10  S   UNL     1       0.958  12.185  19.525  0.00  0.00    +0.000 S 
ATOM     11  C   UNL     1       0.977  10.477  19.582  0.00  0.00    +0.000 A 
ATOM     12  C   UNL     1       0.269  10.011  20.680  0.00  0.00    +0.000 A 
ATOM     13  C   UNL     1      -0.281  11.074  21.478  0.00  0.00    +0.000 A 
ATOM     14  C   UNL     1      -1.082  10.918  22.730  0.00  0.00    +0.000 C 
ENDBRANCH   1  11
BRANCH   3  15
ATOM     15  N   UNL     1       2.367   7.512  17.930  0.00  0.00    +0.000 NA
ATOM     16  C   UNL     1       3.582   7.135  18.172  0.00  0.00    +0.000 C 
BRANCH  16  17
ATOM     17  C   UNL     1       4.238   6.184  17.247  0.00  0.00    +0.000 A 
ATOM     18  C   UNL     1       5.040   6.707  16.216  0.00  0.00    +0.000 A 
ATOM     19  C   UNL     1       5.627   5.858  15.277  0.00  0.00    +0.000 A 
ATOM     20  C   UNL     1       5.416   4.487  15.368  0.00  0.00    +0.000 A 
ATOM     21 CL   UNL     1       6.113   3.440  14.195  0.00  0.00    +0.000 Cl
ATOM     22  C   UNL     1       4.633   3.955  16.393  0.00  0.00    +0.000 A 
ATOM     23  C   UNL     1       4.044   4.802  17.338  0.00  0.00    +0.000 A 
ATOM     24 CL   UNL     1       3.077   4.072  18.568  0.00  0.00    +0.000 Cl
ENDBRANCH  16  17
ENDBRANCH   3  15
TORSDOF 3
ENDMDL
