MODEL 1
REMARK VINA RESULT:      -7.1      0.000      0.000
REMARK  Name = 
REMARK  3 active torsions:
REMARK  status: ('A' for Active; 'I' for Inactive)
REMARK    1  A    between atoms: O_1  and  C_2
REMARK    2  A    between atoms: C_9  and  C_10
REMARK    3  A    between atoms: C_17  and  O_18
REMARK                            x       y       z     vdW  Elec       q    Type
REMARK                         _______ _______ _______ _____ _____    ______ ____
ROOT
ATOM      1  C   UNL     1       6.565   5.124  15.695  0.00  0.00    +0.000 A 
ATOM      2  C   UNL     1       6.054   3.831  15.631  0.00  0.00    +0.000 A 
ATOM      3  C   UNL     1       4.880   3.516  16.317  0.00  0.00    +0.000 A 
ATOM      4  C   UNL     1       4.193   4.500  17.050  0.00  0.00    +0.000 A 
ATOM      5  C   UNL     1       2.929   4.203  17.772  0.00  0.00    +0.000 A 
ATOM      6  S   UNL     1       2.241   2.672  17.933  0.00  0.00    +0.000 S 
ATOM      7  C   UNL     1       2.268   5.375  18.380  0.00  0.00    +0.000 A 
ATOM      8  C   UNL     1       2.855   6.580  18.343  0.00  0.00    +0.000 A 
ATOM      9  O   UNL     1       4.078   6.836  17.760  0.00  0.00    +0.000 OA
ATOM     10  C   UNL     1       4.705   5.803  17.094  0.00  0.00    +0.000 A 
ATOM     11  C   UNL     1       5.903   6.104  16.438  0.00  0.00    +0.000 A 
ENDROOT
BRANCH   8  12
ATOM     12  C   UNL     1       2.184   7.682  18.955  0.00  0.00    +0.000 A 
ATOM     13  C   UNL     1       1.741   7.798  20.267  0.00  0.00    +0.000 A 
ATOM     14  C   UNL     1       0.992   8.979  20.509  0.00  0.00    +0.000 A 
ATOM     15  C   UNL     1       0.902   9.761  19.383  0.00  0.00    +0.000 A 
ATOM     16  S   UNL     1       1.744   9.085  18.059  0.00  0.00    +0.000 S 
ENDBRANCH   8  12
BRANCH   1  17
ATOM     17  O   UNL     1       7.717   5.436  15.032  0.00  0.00    +0.000 OA
ATOM     18  H   UNL     1       7.817   6.399  14.988  0.00  0.00    +0.000 HD
ENDBRANCH   1  17
BRANCH  11  19
ATOM     19  O   UNL     1       6.448   7.359  16.516  0.00  0.00    +0.000 OA
ATOM     20  H   UNL     1       7.298   7.284  16.984  0.00  0.00    +0.000 HD
ENDBRANCH  11  19
TORSDOF 3
ENDMDL
MODEL 2
REMARK VINA RESULT:      -6.9      0.809      1.058
REMARK  Name = 
REMARK  3 active torsions:
REMARK  status: ('A' for Active; 'I' for Inactive)
REMARK    1  A    between atoms: O_1  and  C_2
REMARK    2  A    between atoms: C_9  and  C_10
REMARK    3  A    between atoms: C_17  and  O_18
REMARK                            x       y       z     vdW  Elec       q    Type
REMARK                         _______ _______ _______ _____ _____    ______ ____
ROOT
ATOM      1  C   UNL     1       6.499   5.191  15.918  0.00  0.00    +0.000 A 
ATOM      2  C   UNL     1       5.965   3.907  15.945  0.00  0.00    +0.000 A 
ATOM      3  C   UNL     1       4.751   3.675  16.593  0.00  0.00    +0.000 A 
ATOM      4  C   UNL     1       4.047   4.734  17.195  0.00  0.00    +0.000 A 
ATOM      5  C   UNL     1       2.742   4.525  17.872  0.00  0.00    +0.000 A 
ATOM      6  S   UNL     1       2.014   3.027  18.136  0.00  0.00    +0.000 S 
ATOM      7  C   UNL     1       2.074   5.759  18.335  0.00  0.00    +0.000 A 
ATOM      8  C   UNL     1       2.689   6.946  18.220  0.00  0.00    +0.000 A 
ATOM      9  O   UNL     1       3.945   7.127  17.682  0.00  0.00    +0.000 OA
ATOM     10  C   UNL     1       4.584   6.027  17.148  0.00  0.00    +0.000 A 
ATOM     11  C   UNL     1       5.820   6.247  16.532  0.00  0.00    +0.000 A 
ENDROOT
BRANCH   8  12
ATOM     12  C   UNL     1       2.010   8.110  18.692  0.00  0.00    +0.000 A 
ATOM     13  C   UNL     1       1.699   9.269  17.990  0.00  0.00    +0.000 A 
ATOM     14  C   UNL     1       1.134  10.287  18.801  0.00  0.00    +0.000 A 
ATOM     15  C   UNL     1       0.995   9.877  20.105  0.00  0.00    +0.000 A 
ATOM     16  S   UNL     1       1.513   8.264  20.333  0.00  0.00    +0.000 S 
ENDBRANCH   8  12
BRANCH   1  17
ATOM     17  O   UNL     1       7.690   5.423  15.292  0.00  0.00    +0.000 OA
ATOM     18  H   UNL     1       7.715   6.335  14.966  0.00  0.00    +0.000 HD
ENDBRANCH   1  17
BRANCH  11  19
ATOM     19  O   UNL     1       6.387   7.494  16.524  0.00  0.00    +0.000 OA
ATOM     20  H   UNL     1       6.663   7.700  17.434  0.00  0.00    +0.000 HD
ENDBRANCH  11  19
TORSDOF 3
ENDMDL
MODEL 3
REMARK VINA RESULT:      -6.8      3.000      6.050
REMARK  Name = 
REMARK  3 active torsions:
REMARK  status: ('A' for Active; 'I' for Inactive)
REMARK    1  A    between atoms: O_1  and  C_2
REMARK    2  A    between atoms: C_9  and  C_10
REMARK    3  A    between atoms: C_17  and  O_18
REMARK                            x       y       z     vdW  Elec       q    Type
REMARK                         _______ _______ _______ _____ _____    ______ ____
ROOT
ATOM      1  C   UNL     1       2.945   3.176  21.108  0.00  0.00    +0.000 A 
ATOM      2  C   UNL     1       2.116   4.275  21.311  0.00  0.00    +0.000 A 
ATOM      3  C   UNL     1       2.164   5.352  20.424  0.00  0.00    +0.000 A 
ATOM      4  C   UNL     1       3.021   5.324  19.310  0.00  0.00    +0.000 A 
ATOM      5  C   UNL     1       3.078   6.443  18.335  0.00  0.00    +0.000 A 
ATOM      6  S   UNL     1       2.266   7.913  18.495  0.00  0.00    +0.000 S 
ATOM      7  C   UNL     1       3.932   6.199  17.154  0.00  0.00    +0.000 A 
ATOM      8  C   UNL     1       4.659   5.076  17.064  0.00  0.00    +0.000 A 
ATOM      9  O   UNL     1       4.683   4.081  18.019  0.00  0.00    +0.000 OA
ATOM     10  C   UNL     1       3.839   4.206  19.103  0.00  0.00    +0.000 A 
ATOM     11  C   UNL     1       3.816   3.147  20.016  0.00  0.00    +0.000 A 
ENDROOT
BRANCH   8  12
ATOM     12  C   UNL     1       5.478   4.888  15.910  0.00  0.00    +0.000 A 
ATOM     13  C   UNL     1       5.171   4.208  14.737  0.00  0.00    +0.000 A 
ATOM     14  C   UNL     1       6.266   4.100  13.841  0.00  0.00    +0.000 A 
ATOM     15  C   UNL     1       7.384   4.728  14.332  0.00  0.00    +0.000 A 
ATOM     16  S   UNL     1       7.099   5.467  15.846  0.00  0.00    +0.000 S 
ENDBRANCH   8  12
BRANCH   1  17
ATOM     17  O   UNL     1       2.908   2.123  21.976  0.00  0.00    +0.000 OA
ATOM     18  H   UNL     1       2.108   1.599  21.818  0.00  0.00    +0.000 HD
ENDBRANCH   1  17
BRANCH  11  19
ATOM     19  O   UNL     1       4.649   2.070  19.861  0.00  0.00    +0.000 OA
ATOM     20  H   UNL     1       4.846   1.717  20.746  0.00  0.00    +0.000 HD
ENDBRANCH  11  19
TORSDOF 3
ENDMDL
MODEL 4
REMARK VINA RESULT:      -6.5      3.406      6.469
REMARK  Name = 
REMARK  3 active torsions:
REMARK  status: ('A' for Active; 'I' for Inactive)
REMARK    1  A    between atoms: O_1  and  C_2
REMARK    2  A    between atoms: C_9  and  C_10
REMARK    3  A    between atoms: C_17  and  O_18
REMARK                            x       y       z     vdW  Elec       q    Type
REMARK                         _______ _______ _______ _____ _____    ______ ____
ROOT
ATOM      1  C   UNL     1       2.397   4.242  19.077  0.00  0.00    +0.000 A 
ATOM      2  C   UNL     1       3.232   4.913  19.965  0.00  0.00    +0.000 A 
ATOM      3  C   UNL     1       4.522   5.268  19.568  0.00  0.00    +0.000 A 
ATOM      4  C   UNL     1       4.977   4.980  18.269  0.00  0.00    +0.000 A 
ATOM      5  C   UNL     1       6.335   5.365  17.808  0.00  0.00    +0.000 A 
ATOM      6  S   UNL     1       7.534   6.045  18.781  0.00  0.00    +0.000 S 
ATOM      7  C   UNL     1       6.606   5.107  16.379  0.00  0.00    +0.000 A 
ATOM      8  C   UNL     1       5.697   4.478  15.620  0.00  0.00    +0.000 A 
ATOM      9  O   UNL     1       4.475   4.029  16.074  0.00  0.00    +0.000 OA
ATOM     10  C   UNL     1       4.123   4.320  17.376  0.00  0.00    +0.000 A 
ATOM     11  C   UNL     1       2.845   3.931  17.791  0.00  0.00    +0.000 A 
ENDROOT
BRANCH   8  12
ATOM     12  C   UNL     1       6.008   4.239  14.247  0.00  0.00    +0.000 A 
ATOM     13  C   UNL     1       5.300   3.479  13.323  0.00  0.00    +0.000 A 
ATOM     14  C   UNL     1       5.961   3.344  12.075  0.00  0.00    +0.000 A 
ATOM     15  C   UNL     1       7.151   4.031  12.057  0.00  0.00    +0.000 A 
ATOM     16  S   UNL     1       7.445   4.855  13.524  0.00  0.00    +0.000 S 
ENDBRANCH   8  12
BRANCH   1  17
ATOM     17  O   UNL     1       1.136   3.886  19.462  0.00  0.00    +0.000 OA
ATOM     18  H   UNL     1       1.146   3.602  20.388  0.00  0.00    +0.000 HD
ENDBRANCH   1  17
BRANCH  11  19
ATOM     19  O   UNL     1       2.016   3.236  16.949  0.00  0.00    +0.000 OA
ATOM     20  H   UNL     1       1.104   3.359  17.264  0.00  0.00    +0.000 HD
ENDBRANCH  11  19
TORSDOF 3
ENDMDL
MODEL 5
REMARK VINA RESULT:      -6.5      2.785      3.837
REMARK  Name = 
REMARK  3 active torsions:
REMARK  status: ('A' for Active; 'I' for Inactive)
REMARK    1  A    between atoms: O_1  and  C_2
REMARK    2  A    between atoms: C_9  and  C_10
REMARK    3  A    between atoms: C_17  and  O_18
REMARK                            x       y       z     vdW  Elec       q    Type
REMARK                         _______ _______ _______ _____ _____    ______ ____
ROOT
ATOM      1  C   UNL     1       2.336   2.266  18.648  0.00  0.00    +0.000 A 
ATOM      2  C   UNL     1       3.473   2.207  17.848  0.00  0.00    +0.000 A 
ATOM      3  C   UNL     1       4.053   3.387  17.380  0.00  0.00    +0.000 A 
ATOM      4  C   UNL     1       3.517   4.637  17.733  0.00  0.00    +0.000 A 
ATOM      5  C   UNL     1       4.124   5.911  17.272  0.00  0.00    +0.000 A 
ATOM      6  S   UNL     1       5.404   6.037  16.181  0.00  0.00    +0.000 S 
ATOM      7  C   UNL     1       3.518   7.134  17.839  0.00  0.00    +0.000 A 
ATOM      8  C   UNL     1       2.438   7.050  18.629  0.00  0.00    +0.000 A 
ATOM      9  O   UNL     1       1.812   5.872  18.976  0.00  0.00    +0.000 OA
ATOM     10  C   UNL     1       2.383   4.689  18.554  0.00  0.00    +0.000 A 
ATOM     11  C   UNL     1       1.781   3.503  18.987  0.00  0.00    +0.000 A 
ENDROOT
BRANCH   8  12
ATOM     12  C   UNL     1       1.879   8.259  19.145  0.00  0.00    +0.000 A 
ATOM     13  C   UNL     1       1.386   8.503  20.421  0.00  0.00    +0.000 A 
ATOM     14  C   UNL     1       0.780   9.779  20.559  0.00  0.00    +0.000 A 
ATOM     15  C   UNL     1       0.850  10.501  19.392  0.00  0.00    +0.000 A 
ATOM     16  S   UNL     1       1.668   9.653  18.155  0.00  0.00    +0.000 S 
ENDBRANCH   8  12
BRANCH   1  17
ATOM     17  O   UNL     1       1.760   1.115  19.103  0.00  0.00    +0.000 OA
ATOM     18  H   UNL     1       1.642   0.496  18.366  0.00  0.00    +0.000 HD
ENDBRANCH   1  17
BRANCH  11  19
ATOM     19  O   UNL     1       0.640   3.532  19.745  0.00  0.00    +0.000 OA
ATOM     20  H   UNL     1       0.003   2.915  19.345  0.00  0.00    +0.000 HD
ENDBRANCH  11  19
TORSDOF 3
ENDMDL
MODEL 6
REMARK VINA RESULT:      -6.5      2.779      3.882
REMARK  Name = 
REMARK  3 active torsions:
REMARK  status: ('A' for Active; 'I' for Inactive)
REMARK    1  A    between atoms: O_1  and  C_2
REMARK    2  A    between atoms: C_9  and  C_10
REMARK    3  A    between atoms: C_17  and  O_18
REMARK                            x       y       z     vdW  Elec       q    Type
REMARK                         _______ _______ _______ _____ _____    ______ ____
ROOT
ATOM      1  C   UNL     1       2.467   2.390  18.547  0.00  0.00    +0.000 A 
ATOM      2  C   UNL     1       3.657   2.296  17.831  0.00  0.00    +0.000 A 
ATOM      3  C   UNL     1       4.262   3.453  17.339  0.00  0.00    +0.000 A 
ATOM      4  C   UNL     1       3.697   4.717  17.585  0.00  0.00    +0.000 A 
ATOM      5  C   UNL     1       4.328   5.969  17.095  0.00  0.00    +0.000 A 
ATOM      6  S   UNL     1       5.680   6.045  16.089  0.00  0.00    +0.000 S 
ATOM      7  C   UNL     1       3.679   7.215  17.551  0.00  0.00    +0.000 A 
ATOM      8  C   UNL     1       2.547   7.166  18.268  0.00  0.00    +0.000 A 
ATOM      9  O   UNL     1       1.905   6.003  18.637  0.00  0.00    +0.000 OA
ATOM     10  C   UNL     1       2.509   4.803  18.321  0.00  0.00    +0.000 A 
ATOM     11  C   UNL     1       1.885   3.638  18.778  0.00  0.00    +0.000 A 
ENDROOT
BRANCH   8  12
ATOM     12  C   UNL     1       1.948   8.396  18.676  0.00  0.00    +0.000 A 
ATOM     13  C   UNL     1       1.811   9.571  17.946  0.00  0.00    +0.000 A 
ATOM     14  C   UNL     1       1.284  10.650  18.702  0.00  0.00    +0.000 A 
ATOM     15  C   UNL     1       0.999  10.271  19.992  0.00  0.00    +0.000 A 
ATOM     16  S   UNL     1       1.335   8.620  20.270  0.00  0.00    +0.000 S 
ENDBRANCH   8  12
BRANCH   1  17
ATOM     17  O   UNL     1       1.867   1.260  19.025  0.00  0.00    +0.000 OA
ATOM     18  H   UNL     1       2.287   0.478  18.636  0.00  0.00    +0.000 HD
ENDBRANCH   1  17
BRANCH  11  19
ATOM     19  O   UNL     1       0.693   3.699  19.453  0.00  0.00    +0.000 OA
ATOM     20  H   UNL     1       0.200   4.467  19.114  0.00  0.00    +0.000 HD
ENDBRANCH  11  19
TORSDOF 3
ENDMDL
MODEL 7
REMARK VINA RESULT:      -6.5      2.340      5.927
REMARK  Name = 
REMARK  3 active torsions:
REMARK  status: ('A' for Active; 'I' for Inactive)
REMARK    1  A    between atoms: O_1  and  C_2
REMARK    2  A    between atoms: C_9  and  C_10
REMARK    3  A    between atoms: C_17  and  O_18
REMARK                            x       y       z     vdW  Elec       q    Type
REMARK                         _______ _______ _______ _____ _____    ______ ____
ROOT
ATOM      1  C   UNL     1       1.118   9.572  19.531  0.00  0.00    +0.000 A 
ATOM      2  C   UNL     1       0.820   8.860  20.689  0.00  0.00    +0.000 A 
ATOM      3  C   UNL     1       1.277   7.549  20.833  0.00  0.00    +0.000 A 
ATOM      4  C   UNL     1       2.061   6.951  19.831  0.00  0.00    +0.000 A 
ATOM      5  C   UNL     1       2.583   5.567  19.963  0.00  0.00    +0.000 A 
ATOM      6  S   UNL     1       2.204   4.502  21.216  0.00  0.00    +0.000 S 
ATOM      7  C   UNL     1       3.497   5.138  18.884  0.00  0.00    +0.000 A 
ATOM      8  C   UNL     1       3.727   5.938  17.833  0.00  0.00    +0.000 A 
ATOM      9  O   UNL     1       3.162   7.184  17.661  0.00  0.00    +0.000 OA
ATOM     10  C   UNL     1       2.372   7.681  18.677  0.00  0.00    +0.000 A 
ATOM     11  C   UNL     1       1.878   8.980  18.520  0.00  0.00    +0.000 A 
ENDROOT
BRANCH   8  12
ATOM     12  C   UNL     1       4.608   5.477  16.809  0.00  0.00    +0.000 A 
ATOM     13  C   UNL     1       5.207   6.212  15.793  0.00  0.00    +0.000 A 
ATOM     14  C   UNL     1       5.923   5.414  14.863  0.00  0.00    +0.000 A 
ATOM     15  C   UNL     1       5.883   4.084  15.202  0.00  0.00    +0.000 A 
ATOM     16  S   UNL     1       5.016   3.811  16.649  0.00  0.00    +0.000 S 
ENDBRANCH   8  12
BRANCH   1  17
ATOM     17  O   UNL     1       0.668  10.852  19.382  0.00  0.00    +0.000 OA
ATOM     18  H   UNL     1       0.388  10.995  18.465  0.00  0.00    +0.000 HD
ENDBRANCH   1  17
BRANCH  11  19
ATOM     19  O   UNL     1       2.125   9.690  17.374  0.00  0.00    +0.000 OA
ATOM     20  H   UNL     1       3.071   9.918  17.364  0.00  0.00    +0.000 HD
ENDBRANCH  11  19
TORSDOF 3
ENDMDL
MODEL 8
REMARK VINA RESULT:      -6.4      1.675      2.199
REMARK  Name = 
REMARK  3 active torsions:
REMARK  status: ('A' for Active; 'I' for Inactive)
REMARK    1  A    between atoms: O_1  and  C_2
REMARK    2  A    between atoms: C_9  and  C_10
REMARK    3  A    between atoms: C_17  and  O_18
REMARK                            x       y       z     vdW  Elec       q    Type
REMARK                         _______ _______ _______ _____ _____    ______ ____
ROOT
ATOM      1  C   UNL     1       4.549   4.445  16.750  0.00  0.00    +0.000 A 
ATOM      2  C   UNL     1       4.228   3.245  17.377  0.00  0.00    +0.000 A 
ATOM      3  C   UNL     1       3.481   3.258  18.556  0.00  0.00    +0.000 A 
ATOM      4  C   UNL     1       3.024   4.472  19.100  0.00  0.00    +0.000 A 
ATOM      5  C   UNL     1       2.207   4.519  20.340  0.00  0.00    +0.000 A 
ATOM      6  S   UNL     1       1.848   3.191  21.316  0.00  0.00    +0.000 S 
ATOM      7  C   UNL     1       1.699   5.858  20.702  0.00  0.00    +0.000 A 
ATOM      8  C   UNL     1       2.060   6.935  19.989  0.00  0.00    +0.000 A 
ATOM      9  O   UNL     1       2.900   6.905  18.897  0.00  0.00    +0.000 OA
ATOM     10  C   UNL     1       3.336   5.673  18.452  0.00  0.00    +0.000 A 
ATOM     11  C   UNL     1       4.119   5.657  17.293  0.00  0.00    +0.000 A 
ENDROOT
BRANCH   8  12
ATOM     12  C   UNL     1       1.553   8.211  20.384  0.00  0.00    +0.000 A 
ATOM     13  C   UNL     1       1.240   8.654  21.663  0.00  0.00    +0.000 A 
ATOM     14  C   UNL     1       0.632   9.936  21.685  0.00  0.00    +0.000 A 
ATOM     15  C   UNL     1       0.519  10.464  20.422  0.00  0.00    +0.000 A 
ATOM     16  S   UNL     1       1.173   9.430  19.229  0.00  0.00    +0.000 S 
ENDBRANCH   8  12
BRANCH   1  17
ATOM     17  O   UNL     1       5.286   4.438  15.600  0.00  0.00    +0.000 OA
ATOM     18  H   UNL     1       4.760   4.062  14.878  0.00  0.00    +0.000 HD
ENDBRANCH   1  17
BRANCH  11  19
ATOM     19  O   UNL     1       4.481   6.826  16.676  0.00  0.00    +0.000 OA
ATOM     20  H   UNL     1       3.748   7.094  16.094  0.00  0.00    +0.000 HD
ENDBRANCH  11  19
TORSDOF 3
ENDMDL
MODEL 9
REMARK VINA RESULT:      -6.2      2.332      5.755
REMARK  Name = 
REMARK  3 active torsions:
REMARK  status: ('A' for Active; 'I' for Inactive)
REMARK    1  A    between atoms: O_1  and  C_2
REMARK    2  A    between atoms: C_9  and  C_10
REMARK    3  A    between atoms: C_17  and  O_18
REMARK                            x       y       z     vdW  Elec       q    Type
REMARK                         _______ _______ _______ _____ _____    ______ ____
ROOT
ATOM      1  C   UNL     1       1.574   8.202  19.850  0.00  0.00    +0.000 A 
ATOM      2  C   UNL     1       1.315   7.237  20.819  0.00  0.00    +0.000 A 
ATOM      3  C   UNL     1       1.834   5.950  20.671  0.00  0.00    +0.000 A 
ATOM      4  C   UNL     1       2.641   5.626  19.567  0.00  0.00    +0.000 A 
ATOM      5  C   UNL     1       3.228   4.273  19.392  0.00  0.00    +0.000 A 
ATOM      6  S   UNL     1       2.904   2.941  20.374  0.00  0.00    +0.000 S 
ATOM      7  C   UNL     1       4.156   4.137  18.250  0.00  0.00    +0.000 A 
ATOM      8  C   UNL     1       4.343   5.161  17.404  0.00  0.00    +0.000 A 
ATOM      9  O   UNL     1       3.720   6.386  17.509  0.00  0.00    +0.000 OA
ATOM     10  C   UNL     1       2.912   6.608  18.605  0.00  0.00    +0.000 A 
ATOM     11  C   UNL     1       2.356   7.885  18.737  0.00  0.00    +0.000 A 
ENDROOT
BRANCH   8  12
ATOM     12  C   UNL     1       5.241   4.980  16.309  0.00  0.00    +0.000 A 
ATOM     13  C   UNL     1       4.996   4.359  15.089  0.00  0.00    +0.000 A 
ATOM     14  C   UNL     1       6.152   4.235  14.275  0.00  0.00    +0.000 A 
ATOM     15  C   UNL     1       7.255   4.793  14.875  0.00  0.00    +0.000 A 
ATOM     16  S   UNL     1       6.885   5.486  16.392  0.00  0.00    +0.000 S 
ENDBRANCH   8  12
BRANCH   1  17
ATOM     17  O   UNL     1       1.064   9.461  19.986  0.00  0.00    +0.000 OA
ATOM     18  H   UNL     1       0.137   9.408  20.265  0.00  0.00    +0.000 HD
ENDBRANCH   1  17
BRANCH  11  19
ATOM     19  O   UNL     1       2.565   8.842  17.779  0.00  0.00    +0.000 OA
ATOM     20  H   UNL     1       3.295   8.539  17.211  0.00  0.00    +0.000 HD
ENDBRANCH  11  19
TORSDOF 3
ENDMDL
