MODEL 1
REMARK VINA RESULT:      -8.6      0.000      0.000
REMARK  Name = 
REMARK  8 active torsions:
REMARK  status: ('A' for Active; 'I' for Inactive)
REMARK    1  A    between atoms: C_2  and  C_3
REMARK    2  A    between atoms: C_2  and  C_4
REMARK    3  A    between atoms: C_4  and  N_5
REMARK    4  A    between atoms: C_9  and  C_10
REMARK    5  A    between atoms: C_9  and  C_12
REMARK    6  A    between atoms: C_10  and  C_11
REMARK    7  A    between atoms: C_16  and  C_18
REMARK    8  A    between atoms: C_18  and  C_19
REMARK                            x       y       z     vdW  Elec       q    Type
REMARK                         _______ _______ _______ _____ _____    ______ ____
ROOT
ATOM      1  C   UNL     1       5.158   5.595  18.183  0.00  0.00    +0.000 C 
ATOM      2  C   UNL     1       4.365   5.974  19.447  0.00  0.00    +0.000 C 
ATOM      3  C   UNL     1       2.983   6.518  19.149  0.00  0.00    +0.000 C 
ATOM      4  N   UNL     1       3.031   7.624  18.203  0.00  0.00    +0.000 N 
ATOM      5  C   UNL     1       2.217   8.748  18.313  0.00  0.00    +0.000 C 
ATOM      6  O   UNL     1       2.223   9.649  17.470  0.00  0.00    +0.000 OA
ATOM      7  C   UNL     1       3.783   7.404  16.968  0.00  0.00    +0.000 C 
ATOM      8  C   UNL     1       5.169   6.826  17.246  0.00  0.00    +0.000 C 
ENDROOT
BRANCH   1  13
ATOM      9  N   UNL     1       3.004   2.928  18.458  0.00  0.00    +0.000 N 
ATOM     10  C   UNL     1       2.488   3.587  17.387  0.00  0.00    +0.000 C 
ATOM     11  O   UNL     1       1.331   3.615  17.004  0.00  0.00    +0.000 OA
ATOM     12  N   UNL     1       3.495   4.301  16.785  0.00  0.00    +0.000 N 
ATOM     13  C   UNL     1       4.742   4.240  17.511  0.00  0.00    +0.000 C 
ATOM     14  C   UNL     1       4.337   3.217  18.608  0.00  0.00    +0.000 C 
ATOM     15  O   UNL     1       5.073   2.802  19.486  0.00  0.00    +0.000 OA
ATOM     16  H   UNL     1       3.309   4.802  15.927  0.00  0.00    +0.000 HD
BRANCH  13  17
ATOM     17  C   UNL     1       5.874   3.688  16.626  0.00  0.00    +0.000 C 
ATOM     18  C   UNL     1       5.765   4.040  15.147  0.00  0.00    +0.000 C 
ENDBRANCH  13  17
BRANCH   9  19
ATOM     19  C   UNL     1       2.223   2.083  19.328  0.00  0.00    +0.000 C 
BRANCH  19  21
ATOM     20  C   UNL     1       0.771   3.827  20.362  0.00  0.00    +0.000 C 
ATOM     21  C   UNL     1       1.728   2.895  20.503  0.00  0.00    +0.000 C 
ATOM     22  C   UNL     1       2.381   2.640  21.832  0.00  0.00    +0.000 C 
ENDBRANCH  19  21
ENDBRANCH   9  19
ENDBRANCH   1  13
BRANCH   5  23
ATOM     23  C   UNL     1       1.316   8.844  19.540  0.00  0.00    +0.000 C 
BRANCH  23  24
ATOM     24  C   UNL     1       0.429  10.052  19.523  0.00  0.00    +0.000 A 
ATOM     25  C   UNL     1       0.543  11.175  20.322  0.00  0.00    +0.000 A 
ATOM     26  N   UNL     1      -0.386  12.093  19.918  0.00  0.00    +0.000 N 
ATOM     27  C   UNL     1      -1.137  11.585  18.886  0.00  0.00    +0.000 A 
ATOM     28  C   UNL     1      -2.168  12.178  18.147  0.00  0.00    +0.000 A 
ATOM     29  C   UNL     1      -2.763  11.416  17.138  0.00  0.00    +0.000 A 
ATOM     30  C   UNL     1      -2.350  10.110  16.888  0.00  0.00    +0.000 A 
ATOM     31  C   UNL     1      -1.310   9.535  17.630  0.00  0.00    +0.000 A 
ATOM     32  C   UNL     1      -0.677  10.290  18.641  0.00  0.00    +0.000 A 
ATOM     33  H   UNL     1      -0.489  13.023  20.302  0.00  0.00    +0.000 HD
ENDBRANCH  23  24
ENDBRANCH   5  23
TORSDOF 6
ENDMDL
MODEL 2
REMARK VINA RESULT:      -8.5      1.722      3.742
REMARK  Name = 
REMARK  8 active torsions:
REMARK  status: ('A' for Active; 'I' for Inactive)
REMARK    1  A    between atoms: C_2  and  C_3
REMARK    2  A    between atoms: C_2  and  C_4
REMARK    3  A    between atoms: C_4  and  N_5
REMARK    4  A    between atoms: C_9  and  C_10
REMARK    5  A    between atoms: C_9  and  C_12
REMARK    6  A    between atoms: C_10  and  C_11
REMARK    7  A    between atoms: C_16  and  C_18
REMARK    8  A    between atoms: C_18  and  C_19
REMARK                            x       y       z     vdW  Elec       q    Type
REMARK                         _______ _______ _______ _____ _____    ______ ____
ROOT
ATOM      1  C   UNL     1       2.282   4.426  18.817  0.00  0.00    +0.000 C 
ATOM      2  C   UNL     1       2.305   5.771  18.069  0.00  0.00    +0.000 C 
ATOM      3  C   UNL     1       2.624   6.952  18.963  0.00  0.00    +0.000 C 
ATOM      4  N   UNL     1       1.742   7.005  20.121  0.00  0.00    +0.000 N 
ATOM      5  C   UNL     1       1.239   8.198  20.631  0.00  0.00    +0.000 C 
ATOM      6  O   UNL     1       0.542   8.235  21.650  0.00  0.00    +0.000 OA
ATOM      7  C   UNL     1       1.606   5.778  20.904  0.00  0.00    +0.000 C 
ATOM      8  C   UNL     1       1.314   4.569  20.016  0.00  0.00    +0.000 C 
ENDROOT
BRANCH   1  13
ATOM      9  N   UNL     1       5.546   4.270  17.743  0.00  0.00    +0.000 N 
ATOM     10  C   UNL     1       5.655   5.069  18.838  0.00  0.00    +0.000 C 
ATOM     11  O   UNL     1       6.477   5.943  19.054  0.00  0.00    +0.000 OA
ATOM     12  N   UNL     1       4.626   4.776  19.699  0.00  0.00    +0.000 N 
ATOM     13  C   UNL     1       3.689   3.821  19.155  0.00  0.00    +0.000 C 
ATOM     14  C   UNL     1       4.435   3.470  17.837  0.00  0.00    +0.000 C 
ATOM     15  O   UNL     1       4.051   2.665  17.008  0.00  0.00    +0.000 OA
ATOM     16  H   UNL     1       4.586   5.229  20.602  0.00  0.00    +0.000 HD
BRANCH  13  17
ATOM     17  C   UNL     1       3.560   2.588  20.067  0.00  0.00    +0.000 C 
ATOM     18  C   UNL     1       4.875   1.887  20.391  0.00  0.00    +0.000 C 
ENDBRANCH  13  17
BRANCH   9  19
ATOM     19  C   UNL     1       6.459   4.313  16.628  0.00  0.00    +0.000 C 
BRANCH  19  21
ATOM     20  C   UNL     1       5.261   6.227  15.571  0.00  0.00    +0.000 C 
ATOM     21  C   UNL     1       5.791   4.998  15.458  0.00  0.00    +0.000 C 
ATOM     22  C   UNL     1       5.713   4.227  14.171  0.00  0.00    +0.000 C 
ENDBRANCH  19  21
ENDBRANCH   9  19
ENDBRANCH   1  13
BRANCH   5  23
ATOM     23  C   UNL     1       1.560   9.479  19.868  0.00  0.00    +0.000 C 
BRANCH  23  24
ATOM     24  C   UNL     1       0.407  10.435  19.816  0.00  0.00    +0.000 A 
ATOM     25  C   UNL     1       0.166  11.491  20.677  0.00  0.00    +0.000 A 
ATOM     26  N   UNL     1      -0.920  12.184  20.222  0.00  0.00    +0.000 N 
ATOM     27  C   UNL     1      -1.427  11.586  19.094  0.00  0.00    +0.000 A 
ATOM     28  C   UNL     1      -2.502  11.965  18.281  0.00  0.00    +0.000 A 
ATOM     29  C   UNL     1      -2.797  11.158  17.179  0.00  0.00    +0.000 A 
ATOM     30  C   UNL     1      -2.052  10.012  16.910  0.00  0.00    +0.000 A 
ATOM     31  C   UNL     1      -0.973   9.653  17.728  0.00  0.00    +0.000 A 
ATOM     32  C   UNL     1      -0.640  10.462  18.835  0.00  0.00    +0.000 A 
ATOM     33  H   UNL     1      -1.285  13.031  20.638  0.00  0.00    +0.000 HD
ENDBRANCH  23  24
ENDBRANCH   5  23
TORSDOF 6
ENDMDL
MODEL 3
REMARK VINA RESULT:      -8.4      1.923      4.011
REMARK  Name = 
REMARK  8 active torsions:
REMARK  status: ('A' for Active; 'I' for Inactive)
REMARK    1  A    between atoms: C_2  and  C_3
REMARK    2  A    between atoms: C_2  and  C_4
REMARK    3  A    between atoms: C_4  and  N_5
REMARK    4  A    between atoms: C_9  and  C_10
REMARK    5  A    between atoms: C_9  and  C_12
REMARK    6  A    between atoms: C_10  and  C_11
REMARK    7  A    between atoms: C_16  and  C_18
REMARK    8  A    between atoms: C_18  and  C_19
REMARK                            x       y       z     vdW  Elec       q    Type
REMARK                         _______ _______ _______ _____ _____    ______ ____
ROOT
ATOM      1  C   UNL     1       2.209   4.415  18.855  0.00  0.00    +0.000 C 
ATOM      2  C   UNL     1       2.256   5.771  18.128  0.00  0.00    +0.000 C 
ATOM      3  C   UNL     1       2.611   6.929  19.038  0.00  0.00    +0.000 C 
ATOM      4  N   UNL     1       1.742   6.984  20.205  0.00  0.00    +0.000 N 
ATOM      5  C   UNL     1       1.272   8.180  20.740  0.00  0.00    +0.000 C 
ATOM      6  O   UNL     1       0.587   8.216  21.767  0.00  0.00    +0.000 OA
ATOM      7  C   UNL     1       1.586   5.747  20.971  0.00  0.00    +0.000 C 
ATOM      8  C   UNL     1       1.257   4.561  20.066  0.00  0.00    +0.000 C 
ENDROOT
BRANCH   1  13
ATOM      9  N   UNL     1       5.470   4.245  17.775  0.00  0.00    +0.000 N 
ATOM     10  C   UNL     1       5.593   4.997  18.902  0.00  0.00    +0.000 C 
ATOM     11  O   UNL     1       6.429   5.847  19.153  0.00  0.00    +0.000 OA
ATOM     12  N   UNL     1       4.558   4.688  19.750  0.00  0.00    +0.000 N 
ATOM     13  C   UNL     1       3.605   3.772  19.168  0.00  0.00    +0.000 C 
ATOM     14  C   UNL     1       4.345   3.461  17.837  0.00  0.00    +0.000 C 
ATOM     15  O   UNL     1       3.947   2.697  16.976  0.00  0.00    +0.000 OA
ATOM     16  H   UNL     1       4.525   5.104  20.671  0.00  0.00    +0.000 HD
BRANCH  13  17
ATOM     17  C   UNL     1       3.453   2.506  20.030  0.00  0.00    +0.000 C 
ATOM     18  C   UNL     1       4.764   1.906  20.528  0.00  0.00    +0.000 C 
ENDBRANCH  13  17
BRANCH   9  19
ATOM     19  C   UNL     1       6.385   4.317  16.664  0.00  0.00    +0.000 C 
BRANCH  19  21
ATOM     20  C   UNL     1       5.572   4.376  14.307  0.00  0.00    +0.000 C 
ATOM     21  C   UNL     1       5.703   4.990  15.495  0.00  0.00    +0.000 C 
ATOM     22  C   UNL     1       5.210   6.393  15.709  0.00  0.00    +0.000 C 
ENDBRANCH  19  21
ENDBRANCH   9  19
ENDBRANCH   1  13
BRANCH   5  23
ATOM     23  C   UNL     1       1.615   9.465  19.994  0.00  0.00    +0.000 C 
BRANCH  23  24
ATOM     24  C   UNL     1       0.480   9.981  19.163  0.00  0.00    +0.000 A 
ATOM     25  C   UNL     1       0.203   9.657  17.847  0.00  0.00    +0.000 A 
ATOM     26  N   UNL     1      -0.978  10.248  17.493  0.00  0.00    +0.000 N 
ATOM     27  C   UNL     1      -1.472  10.987  18.540  0.00  0.00    +0.000 A 
ATOM     28  C   UNL     1      -2.657  11.726  18.639  0.00  0.00    +0.000 A 
ATOM     29  C   UNL     1      -2.909  12.388  19.844  0.00  0.00    +0.000 A 
ATOM     30  C   UNL     1      -2.004  12.321  20.901  0.00  0.00    +0.000 A 
ATOM     31  C   UNL     1      -0.828  11.568  20.789  0.00  0.00    +0.000 A 
ATOM     32  C   UNL     1      -0.559  10.873  19.590  0.00  0.00    +0.000 A 
ATOM     33  H   UNL     1      -1.438  10.136  16.599  0.00  0.00    +0.000 HD
ENDBRANCH  23  24
ENDBRANCH   5  23
TORSDOF 6
ENDMDL
MODEL 4
REMARK VINA RESULT:      -8.2      1.519      2.149
REMARK  Name = 
REMARK  8 active torsions:
REMARK  status: ('A' for Active; 'I' for Inactive)
REMARK    1  A    between atoms: C_2  and  C_3
REMARK    2  A    between atoms: C_2  and  C_4
REMARK    3  A    between atoms: C_4  and  N_5
REMARK    4  A    between atoms: C_9  and  C_10
REMARK    5  A    between atoms: C_9  and  C_12
REMARK    6  A    between atoms: C_10  and  C_11
REMARK    7  A    between atoms: C_16  and  C_18
REMARK    8  A    between atoms: C_18  and  C_19
REMARK                            x       y       z     vdW  Elec       q    Type
REMARK                         _______ _______ _______ _____ _____    ______ ____
ROOT
ATOM      1  C   UNL     1       5.192   5.647  18.206  0.00  0.00    +0.000 C 
ATOM      2  C   UNL     1       4.371   6.016  19.455  0.00  0.00    +0.000 C 
ATOM      3  C   UNL     1       2.973   6.502  19.133  0.00  0.00    +0.000 C 
ATOM      4  N   UNL     1       2.990   7.594  18.170  0.00  0.00    +0.000 N 
ATOM      5  C   UNL     1       2.132   8.687  18.252  0.00  0.00    +0.000 C 
ATOM      6  O   UNL     1       2.114   9.574  17.394  0.00  0.00    +0.000 OA
ATOM      7  C   UNL     1       3.764   7.382  16.946  0.00  0.00    +0.000 C 
ATOM      8  C   UNL     1       5.168   6.862  17.249  0.00  0.00    +0.000 C 
ENDROOT
BRANCH   1  13
ATOM      9  N   UNL     1       3.123   2.914  18.490  0.00  0.00    +0.000 N 
ATOM     10  C   UNL     1       2.607   3.536  17.396  0.00  0.00    +0.000 C 
ATOM     11  O   UNL     1       1.459   3.517  16.990  0.00  0.00    +0.000 OA
ATOM     12  N   UNL     1       3.603   4.271  16.800  0.00  0.00    +0.000 N 
ATOM     13  C   UNL     1       4.836   4.266  17.552  0.00  0.00    +0.000 C 
ATOM     14  C   UNL     1       4.442   3.251  18.661  0.00  0.00    +0.000 C 
ATOM     15  O   UNL     1       5.173   2.878  19.562  0.00  0.00    +0.000 OA
ATOM     16  H   UNL     1       3.418   4.750  15.929  0.00  0.00    +0.000 HD
BRANCH  13  17
ATOM     17  C   UNL     1       6.004   3.736  16.702  0.00  0.00    +0.000 C 
ATOM     18  C   UNL     1       5.866   3.972  15.202  0.00  0.00    +0.000 C 
ENDBRANCH  13  17
BRANCH   9  19
ATOM     19  C   UNL     1       2.353   2.060  19.360  0.00  0.00    +0.000 C 
BRANCH  19  21
ATOM     20  C   UNL     1       2.405   2.679  21.776  0.00  0.00    +0.000 C 
ATOM     21  C   UNL     1       1.877   2.858  20.553  0.00  0.00    +0.000 C 
ATOM     22  C   UNL     1       0.761   3.836  20.319  0.00  0.00    +0.000 C 
ENDBRANCH  19  21
ENDBRANCH   9  19
ENDBRANCH   1  13
BRANCH   5  23
ATOM     23  C   UNL     1       1.215   8.768  19.468  0.00  0.00    +0.000 C 
BRANCH  23  24
ATOM     24  C   UNL     1       0.871  10.177  19.849  0.00  0.00    +0.000 A 
ATOM     25  C   UNL     1       1.123  11.320  19.112  0.00  0.00    +0.000 A 
ATOM     26  N   UNL     1       0.554  12.385  19.752  0.00  0.00    +0.000 N 
ATOM     27  C   UNL     1      -0.042  11.974  20.919  0.00  0.00    +0.000 A 
ATOM     28  C   UNL     1      -0.765  12.708  21.867  0.00  0.00    +0.000 A 
ATOM     29  C   UNL     1      -1.267  12.019  22.975  0.00  0.00    +0.000 A 
ATOM     30  C   UNL     1      -1.043  10.654  23.132  0.00  0.00    +0.000 A 
ATOM     31  C   UNL     1      -0.326   9.933  22.169  0.00  0.00    +0.000 A 
ATOM     32  C   UNL     1       0.173  10.599  21.029  0.00  0.00    +0.000 A 
ATOM     33  H   UNL     1       0.547  13.334  19.405  0.00  0.00    +0.000 HD
ENDBRANCH  23  24
ENDBRANCH   5  23
TORSDOF 6
ENDMDL
MODEL 5
REMARK VINA RESULT:      -8.2      0.981      1.917
REMARK  Name = 
REMARK  8 active torsions:
REMARK  status: ('A' for Active; 'I' for Inactive)
REMARK    1  A    between atoms: C_2  and  C_3
REMARK    2  A    between atoms: C_2  and  C_4
REMARK    3  A    between atoms: C_4  and  N_5
REMARK    4  A    between atoms: C_9  and  C_10
REMARK    5  A    between atoms: C_9  and  C_12
REMARK    6  A    between atoms: C_10  and  C_11
REMARK    7  A    between atoms: C_16  and  C_18
REMARK    8  A    between atoms: C_18  and  C_19
REMARK                            x       y       z     vdW  Elec       q    Type
REMARK                         _______ _______ _______ _____ _____    ______ ____
ROOT
ATOM      1  C   UNL     1       5.101   5.715  18.290  0.00  0.00    +0.000 C 
ATOM      2  C   UNL     1       4.243   6.083  19.513  0.00  0.00    +0.000 C 
ATOM      3  C   UNL     1       2.869   6.607  19.148  0.00  0.00    +0.000 C 
ATOM      4  N   UNL     1       2.947   7.714  18.204  0.00  0.00    +0.000 N 
ATOM      5  C   UNL     1       2.112   8.825  18.274  0.00  0.00    +0.000 C 
ATOM      6  O   UNL     1       2.147   9.726  17.431  0.00  0.00    +0.000 OA
ATOM      7  C   UNL     1       3.762   7.504  17.008  0.00  0.00    +0.000 C 
ATOM      8  C   UNL     1       5.141   6.946  17.353  0.00  0.00    +0.000 C 
ENDROOT
BRANCH   1  13
ATOM      9  N   UNL     1       3.040   2.971  18.518  0.00  0.00    +0.000 N 
ATOM     10  C   UNL     1       2.510   3.625  17.450  0.00  0.00    +0.000 C 
ATOM     11  O   UNL     1       1.356   3.616  17.058  0.00  0.00    +0.000 OA
ATOM     12  N   UNL     1       3.496   4.379  16.864  0.00  0.00    +0.000 N 
ATOM     13  C   UNL     1       4.739   4.354  17.599  0.00  0.00    +0.000 C 
ATOM     14  C   UNL     1       4.361   3.305  18.682  0.00  0.00    +0.000 C 
ATOM     15  O   UNL     1       5.104   2.907  19.562  0.00  0.00    +0.000 OA
ATOM     16  H   UNL     1       3.299   4.884  16.010  0.00  0.00    +0.000 HD
BRANCH  13  17
ATOM     17  C   UNL     1       5.896   3.852  16.718  0.00  0.00    +0.000 C 
ATOM     18  C   UNL     1       5.667   3.986  15.217  0.00  0.00    +0.000 C 
ENDBRANCH  13  17
BRANCH   9  19
ATOM     19  C   UNL     1       2.283   2.090  19.372  0.00  0.00    +0.000 C 
BRANCH  19  21
ATOM     20  C   UNL     1       2.328   2.594  21.814  0.00  0.00    +0.000 C 
ATOM     21  C   UNL     1       1.824   2.850  20.595  0.00  0.00    +0.000 C 
ATOM     22  C   UNL     1       0.750   3.882  20.395  0.00  0.00    +0.000 C 
ENDBRANCH  19  21
ENDBRANCH   9  19
ENDBRANCH   1  13
BRANCH   5  23
ATOM     23  C   UNL     1       1.151   8.908  19.455  0.00  0.00    +0.000 C 
BRANCH  23  24
ATOM     24  C   UNL     1       0.082   9.942  19.269  0.00  0.00    +0.000 A 
ATOM     25  C   UNL     1      -0.686  10.146  18.137  0.00  0.00    +0.000 A 
ATOM     26  N   UNL     1      -1.620  11.105  18.411  0.00  0.00    +0.000 N 
ATOM     27  C   UNL     1      -1.463  11.567  19.696  0.00  0.00    +0.000 A 
ATOM     28  C   UNL     1      -2.207  12.515  20.408  0.00  0.00    +0.000 A 
ATOM     29  C   UNL     1      -1.817  12.792  21.721  0.00  0.00    +0.000 A 
ATOM     30  C   UNL     1      -0.718  12.154  22.292  0.00  0.00    +0.000 A 
ATOM     31  C   UNL     1       0.008  11.200  21.569  0.00  0.00    +0.000 A 
ATOM     32  C   UNL     1      -0.377  10.885  20.248  0.00  0.00    +0.000 A 
ATOM     33  H   UNL     1      -2.341  11.413  17.773  0.00  0.00    +0.000 HD
ENDBRANCH  23  24
ENDBRANCH   5  23
TORSDOF 6
ENDMDL
MODEL 6
REMARK VINA RESULT:      -8.1      2.037      4.117
REMARK  Name = 
REMARK  8 active torsions:
REMARK  status: ('A' for Active; 'I' for Inactive)
REMARK    1  A    between atoms: C_2  and  C_3
REMARK    2  A    between atoms: C_2  and  C_4
REMARK    3  A    between atoms: C_4  and  N_5
REMARK    4  A    between atoms: C_9  and  C_10
REMARK    5  A    between atoms: C_9  and  C_12
REMARK    6  A    between atoms: C_10  and  C_11
REMARK    7  A    between atoms: C_16  and  C_18
REMARK    8  A    between atoms: C_18  and  C_19
REMARK                            x       y       z     vdW  Elec       q    Type
REMARK                         _______ _______ _______ _____ _____    ______ ____
ROOT
ATOM      1  C   UNL     1       2.222   4.341  19.023  0.00  0.00    +0.000 C 
ATOM      2  C   UNL     1       2.170   5.397  17.905  0.00  0.00    +0.000 C 
ATOM      3  C   UNL     1       2.658   6.763  18.344  0.00  0.00    +0.000 C 
ATOM      4  N   UNL     1       1.967   7.223  19.541  0.00  0.00    +0.000 N 
ATOM      5  C   UNL     1       1.584   8.548  19.728  0.00  0.00    +0.000 C 
ATOM      6  O   UNL     1       1.055   8.937  20.774  0.00  0.00    +0.000 OA
ATOM      7  C   UNL     1       1.917   6.297  20.672  0.00  0.00    +0.000 C 
ATOM      8  C   UNL     1       1.456   4.905  20.243  0.00  0.00    +0.000 C 
ENDROOT
BRANCH   1  13
ATOM      9  N   UNL     1       5.453   4.198  17.854  0.00  0.00    +0.000 N 
ATOM     10  C   UNL     1       5.587   5.022  18.927  0.00  0.00    +0.000 C 
ATOM     11  O   UNL     1       6.403   5.909  19.099  0.00  0.00    +0.000 OA
ATOM     12  N   UNL     1       4.587   4.737  19.825  0.00  0.00    +0.000 N 
ATOM     13  C   UNL     1       3.646   3.759  19.331  0.00  0.00    +0.000 C 
ATOM     14  C   UNL     1       4.356   3.387  17.999  0.00  0.00    +0.000 C 
ATOM     15  O   UNL     1       3.956   2.559  17.200  0.00  0.00    +0.000 OA
ATOM     16  H   UNL     1       4.568   5.209  20.719  0.00  0.00    +0.000 HD
BRANCH  13  17
ATOM     17  C   UNL     1       3.559   2.545  20.273  0.00  0.00    +0.000 C 
ATOM     18  C   UNL     1       4.871   1.797  20.481  0.00  0.00    +0.000 C 
ENDBRANCH  13  17
BRANCH   9  19
ATOM     19  C   UNL     1       6.333   4.226  16.711  0.00  0.00    +0.000 C 
BRANCH  19  21
ATOM     20  C   UNL     1       5.215   6.239  15.753  0.00  0.00    +0.000 C 
ATOM     21  C   UNL     1       5.668   4.985  15.586  0.00  0.00    +0.000 C 
ATOM     22  C   UNL     1       5.503   4.261  14.280  0.00  0.00    +0.000 C 
ENDBRANCH  19  21
ENDBRANCH   9  19
ENDBRANCH   1  13
BRANCH   5  23
ATOM     23  C   UNL     1       1.821   9.517  18.575  0.00  0.00    +0.000 C 
BRANCH  23  24
ATOM     24  C   UNL     1       0.802  10.614  18.512  0.00  0.00    +0.000 A 
ATOM     25  C   UNL     1      -0.562  10.469  18.336  0.00  0.00    +0.000 A 
ATOM     26  N   UNL     1      -1.149  11.698  18.451  0.00  0.00    +0.000 N 
ATOM     27  C   UNL     1      -0.193  12.662  18.666  0.00  0.00    +0.000 A 
ATOM     28  C   UNL     1      -0.336  14.039  18.873  0.00  0.00    +0.000 A 
ATOM     29  C   UNL     1       0.827  14.789  19.070  0.00  0.00    +0.000 A 
ATOM     30  C   UNL     1       2.081  14.184  19.048  0.00  0.00    +0.000 A 
ATOM     31  C   UNL     1       2.205  12.804  18.850  0.00  0.00    +0.000 A 
ATOM     32  C   UNL     1       1.046  12.020  18.669  0.00  0.00    +0.000 A 
ATOM     33  H   UNL     1      -2.144  11.873  18.412  0.00  0.00    +0.000 HD
ENDBRANCH  23  24
ENDBRANCH   5  23
TORSDOF 6
ENDMDL
MODEL 7
REMARK VINA RESULT:      -7.8      1.764      3.880
REMARK  Name = 
REMARK  8 active torsions:
REMARK  status: ('A' for Active; 'I' for Inactive)
REMARK    1  A    between atoms: C_2  and  C_3
REMARK    2  A    between atoms: C_2  and  C_4
REMARK    3  A    between atoms: C_4  and  N_5
REMARK    4  A    between atoms: C_9  and  C_10
REMARK    5  A    between atoms: C_9  and  C_12
REMARK    6  A    between atoms: C_10  and  C_11
REMARK    7  A    between atoms: C_16  and  C_18
REMARK    8  A    between atoms: C_18  and  C_19
REMARK                            x       y       z     vdW  Elec       q    Type
REMARK                         _______ _______ _______ _____ _____    ______ ____
ROOT
ATOM      1  C   UNL     1       2.230   5.033  18.911  0.00  0.00    +0.000 C 
ATOM      2  C   UNL     1       1.631   6.055  17.929  0.00  0.00    +0.000 C 
ATOM      3  C   UNL     1       2.042   7.483  18.222  0.00  0.00    +0.000 C 
ATOM      4  N   UNL     1       1.765   7.852  19.603  0.00  0.00    +0.000 N 
ATOM      5  C   UNL     1       1.287   9.107  19.968  0.00  0.00    +0.000 C 
ATOM      6  O   UNL     1       1.116   9.427  21.148  0.00  0.00    +0.000 OA
ATOM      7  C   UNL     1       2.255   6.943  20.640  0.00  0.00    +0.000 C 
ATOM      8  C   UNL     1       1.877   5.493  20.346  0.00  0.00    +0.000 C 
ENDROOT
BRANCH   1  13
ATOM      9  N   UNL     1       4.835   5.412  16.697  0.00  0.00    +0.000 N 
ATOM     10  C   UNL     1       5.219   6.229  17.715  0.00  0.00    +0.000 C 
ATOM     11  O   UNL     1       5.912   7.229  17.658  0.00  0.00    +0.000 OA
ATOM     12  N   UNL     1       4.646   5.777  18.879  0.00  0.00    +0.000 N 
ATOM     13  C   UNL     1       3.738   4.674  18.671  0.00  0.00    +0.000 C 
ATOM     14  C   UNL     1       3.982   4.439  17.153  0.00  0.00    +0.000 C 
ATOM     15  O   UNL     1       3.447   3.573  16.483  0.00  0.00    +0.000 OA
ATOM     16  H   UNL     1       4.876   6.225  19.756  0.00  0.00    +0.000 HD
BRANCH  13  17
ATOM     17  C   UNL     1       4.156   3.445  19.498  0.00  0.00    +0.000 C 
ATOM     18  C   UNL     1       3.170   2.284  19.468  0.00  0.00    +0.000 C 
ENDBRANCH  13  17
BRANCH   9  19
ATOM     19  C   UNL     1       5.246   5.596  15.328  0.00  0.00    +0.000 C 
BRANCH  19  21
ATOM     20  C   UNL     1       7.384   4.392  15.776  0.00  0.00    +0.000 C 
ATOM     21  C   UNL     1       6.314   4.583  14.985  0.00  0.00    +0.000 C 
ATOM     22  C   UNL     1       6.146   3.823  13.700  0.00  0.00    +0.000 C 
ENDBRANCH  19  21
ENDBRANCH   9  19
ENDBRANCH   1  13
BRANCH   5  23
ATOM     23  C   UNL     1       0.956  10.085  18.846  0.00  0.00    +0.000 C 
BRANCH  23  24
ATOM     24  C   UNL     1      -0.394  10.717  19.000  0.00  0.00    +0.000 A 
ATOM     25  C   UNL     1      -0.781  11.619  19.974  0.00  0.00    +0.000 A 
ATOM     26  N   UNL     1      -2.052  12.041  19.698  0.00  0.00    +0.000 N 
ATOM     27  C   UNL     1      -2.528  11.408  18.575  0.00  0.00    +0.000 A 
ATOM     28  C   UNL     1      -3.753  11.551  17.913  0.00  0.00    +0.000 A 
ATOM     29  C   UNL     1      -3.971  10.769  16.776  0.00  0.00    +0.000 A 
ATOM     30  C   UNL     1      -3.006   9.870  16.329  0.00  0.00    +0.000 A 
ATOM     31  C   UNL     1      -1.781   9.746  16.997  0.00  0.00    +0.000 A 
ATOM     32  C   UNL     1      -1.526  10.540  18.136  0.00  0.00    +0.000 A 
ATOM     33  H   UNL     1      -2.560  12.738  20.225  0.00  0.00    +0.000 HD
ENDBRANCH  23  24
ENDBRANCH   5  23
TORSDOF 6
ENDMDL
MODEL 8
REMARK VINA RESULT:      -7.6      2.069      4.134
REMARK  Name = 
REMARK  8 active torsions:
REMARK  status: ('A' for Active; 'I' for Inactive)
REMARK    1  A    between atoms: C_2  and  C_3
REMARK    2  A    between atoms: C_2  and  C_4
REMARK    3  A    between atoms: C_4  and  N_5
REMARK    4  A    between atoms: C_9  and  C_10
REMARK    5  A    between atoms: C_9  and  C_12
REMARK    6  A    between atoms: C_10  and  C_11
REMARK    7  A    between atoms: C_16  and  C_18
REMARK    8  A    between atoms: C_18  and  C_19
REMARK                            x       y       z     vdW  Elec       q    Type
REMARK                         _______ _______ _______ _____ _____    ______ ____
ROOT
ATOM      1  C   UNL     1       2.522   3.816  18.832  0.00  0.00    +0.000 C 
ATOM      2  C   UNL     1       2.301   4.904  17.766  0.00  0.00    +0.000 C 
ATOM      3  C   UNL     1       2.817   6.266  18.180  0.00  0.00    +0.000 C 
ATOM      4  N   UNL     1       2.284   6.676  19.472  0.00  0.00    +0.000 N 
ATOM      5  C   UNL     1       1.904   7.985  19.751  0.00  0.00    +0.000 C 
ATOM      6  O   UNL     1       1.512   8.331  20.870  0.00  0.00    +0.000 OA
ATOM      7  C   UNL     1       2.403   5.716  20.569  0.00  0.00    +0.000 C 
ATOM      8  C   UNL     1       1.915   4.327  20.161  0.00  0.00    +0.000 C 
ENDROOT
BRANCH   1  13
ATOM      9  N   UNL     1       5.771   4.418  17.875  0.00  0.00    +0.000 N 
ATOM     10  C   UNL     1       5.819   4.704  19.204  0.00  0.00    +0.000 C 
ATOM     11  O   UNL     1       6.556   5.484  19.781  0.00  0.00    +0.000 OA
ATOM     12  N   UNL     1       4.834   3.990  19.842  0.00  0.00    +0.000 N 
ATOM     13  C   UNL     1       3.986   3.259  18.930  0.00  0.00    +0.000 C 
ATOM     14  C   UNL     1       4.743   3.550  17.604  0.00  0.00    +0.000 C 
ATOM     15  O   UNL     1       4.426   3.125  16.507  0.00  0.00    +0.000 OA
ATOM     16  H   UNL     1       4.763   4.026  20.850  0.00  0.00    +0.000 HD
BRANCH  13  17
ATOM     17  C   UNL     1       3.988   1.754  19.253  0.00  0.00    +0.000 C 
ATOM     18  C   UNL     1       4.759   1.367  20.509  0.00  0.00    +0.000 C 
ENDBRANCH  13  17
BRANCH   9  19
ATOM     19  C   UNL     1       6.661   4.999  16.901  0.00  0.00    +0.000 C 
BRANCH  19  21
ATOM     20  C   UNL     1       5.188   6.620  15.707  0.00  0.00    +0.000 C 
ATOM     21  C   UNL     1       6.195   6.399  16.568  0.00  0.00    +0.000 C 
ATOM     22  C   UNL     1       6.934   7.535  17.216  0.00  0.00    +0.000 C 
ENDBRANCH  19  21
ENDBRANCH   9  19
ENDBRANCH   1  13
BRANCH   5  23
ATOM     23  C   UNL     1       1.966   8.993  18.608  0.00  0.00    +0.000 C 
BRANCH  23  24
ATOM     24  C   UNL     1       1.012  10.135  18.781  0.00  0.00    +0.000 A 
ATOM     25  C   UNL     1      -0.319  10.054  19.149  0.00  0.00    +0.000 A 
ATOM     26  N   UNL     1      -0.805  11.322  19.306  0.00  0.00    +0.000 N 
ATOM     27  C   UNL     1       0.171  12.244  19.014  0.00  0.00    +0.000 A 
ATOM     28  C   UNL     1       0.133  13.643  19.069  0.00  0.00    +0.000 A 
ATOM     29  C   UNL     1       1.292  14.337  18.712  0.00  0.00    +0.000 A 
ATOM     30  C   UNL     1       2.438  13.658  18.306  0.00  0.00    +0.000 A 
ATOM     31  C   UNL     1       2.462  12.258  18.267  0.00  0.00    +0.000 A 
ATOM     32  C   UNL     1       1.312  11.531  18.642  0.00  0.00    +0.000 A 
ATOM     33  H   UNL     1      -1.739  11.552  19.618  0.00  0.00    +0.000 HD
ENDBRANCH  23  24
ENDBRANCH   5  23
TORSDOF 6
ENDMDL
MODEL 9
REMARK VINA RESULT:      -7.6      1.682      3.838
REMARK  Name = 
REMARK  8 active torsions:
REMARK  status: ('A' for Active; 'I' for Inactive)
REMARK    1  A    between atoms: C_2  and  C_3
REMARK    2  A    between atoms: C_2  and  C_4
REMARK    3  A    between atoms: C_4  and  N_5
REMARK    4  A    between atoms: C_9  and  C_10
REMARK    5  A    between atoms: C_9  and  C_12
REMARK    6  A    between atoms: C_10  and  C_11
REMARK    7  A    between atoms: C_16  and  C_18
REMARK    8  A    between atoms: C_18  and  C_19
REMARK                            x       y       z     vdW  Elec       q    Type
REMARK                         _______ _______ _______ _____ _____    ______ ____
ROOT
ATOM      1  C   UNL     1       1.947   4.269  18.917  0.00  0.00    +0.000 C 
ATOM      2  C   UNL     1       1.592   5.466  18.017  0.00  0.00    +0.000 C 
ATOM      3  C   UNL     1       2.158   6.781  18.513  0.00  0.00    +0.000 C 
ATOM      4  N   UNL     1       1.793   7.035  19.900  0.00  0.00    +0.000 N 
ATOM      5  C   UNL     1       1.453   8.300  20.370  0.00  0.00    +0.000 C 
ATOM      6  O   UNL     1       1.207   8.513  21.562  0.00  0.00    +0.000 OA
ATOM      7  C   UNL     1       2.051   5.960  20.858  0.00  0.00    +0.000 C 
ATOM      8  C   UNL     1       1.514   4.619  20.361  0.00  0.00    +0.000 C 
ENDROOT
BRANCH   1  13
ATOM      9  N   UNL     1       5.076   5.069  17.737  0.00  0.00    +0.000 N 
ATOM     10  C   UNL     1       5.267   5.130  19.082  0.00  0.00    +0.000 C 
ATOM     11  O   UNL     1       6.064   5.813  19.700  0.00  0.00    +0.000 OA
ATOM     12  N   UNL     1       4.353   4.305  19.692  0.00  0.00    +0.000 N 
ATOM     13  C   UNL     1       3.410   3.724  18.765  0.00  0.00    +0.000 C 
ATOM     14  C   UNL     1       4.023   4.243  17.434  0.00  0.00    +0.000 C 
ATOM     15  O   UNL     1       3.589   4.002  16.322  0.00  0.00    +0.000 OA
ATOM     16  H   UNL     1       4.390   4.171  20.694  0.00  0.00    +0.000 HD
BRANCH  13  17
ATOM     17  C   UNL     1       3.441   2.187  18.830  0.00  0.00    +0.000 C 
ATOM     18  C   UNL     1       2.096   1.507  18.602  0.00  0.00    +0.000 C 
ENDBRANCH  13  17
BRANCH   9  19
ATOM     19  C   UNL     1       5.860   5.816  16.785  0.00  0.00    +0.000 C 
BRANCH  19  21
ATOM     20  C   UNL     1       7.879   4.380  17.063  0.00  0.00    +0.000 C 
ATOM     21  C   UNL     1       6.968   4.939  16.249  0.00  0.00    +0.000 C 
ATOM     22  C   UNL     1       7.029   4.751  14.760  0.00  0.00    +0.000 C 
ENDBRANCH  19  21
ENDBRANCH   9  19
ENDBRANCH   1  13
BRANCH   5  23
ATOM     23  C   UNL     1       1.370   9.430  19.350  0.00  0.00    +0.000 C 
BRANCH  23  24
ATOM     24  C   UNL     1       0.146  10.279  19.512  0.00  0.00    +0.000 A 
ATOM     25  C   UNL     1      -0.101  11.192  20.521  0.00  0.00    +0.000 A 
ATOM     26  N   UNL     1      -1.274  11.838  20.246  0.00  0.00    +0.000 N 
ATOM     27  C   UNL     1      -1.828  11.343  19.090  0.00  0.00    +0.000 A 
ATOM     28  C   UNL     1      -2.996  11.723  18.418  0.00  0.00    +0.000 A 
ATOM     29  C   UNL     1      -3.321  11.038  17.244  0.00  0.00    +0.000 A 
ATOM     30  C   UNL     1      -2.515  10.005  16.771  0.00  0.00    +0.000 A 
ATOM     31  C   UNL     1      -1.344   9.645  17.450  0.00  0.00    +0.000 A 
ATOM     32  C   UNL     1      -0.981  10.335  18.626  0.00  0.00    +0.000 A 
ATOM     33  H   UNL     1      -1.667  12.590  20.796  0.00  0.00    +0.000 HD
ENDBRANCH  23  24
ENDBRANCH   5  23
TORSDOF 6
ENDMDL
