MODEL 1
REMARK VINA RESULT:      -7.5      0.000      0.000
REMARK  Name = 
REMARK  3 active torsions:
REMARK  status: ('A' for Active; 'I' for Inactive)
REMARK    1  A    between atoms: C_1  and  O_2
REMARK    2  A    between atoms: O_2  and  C_3
REMARK    3  A    between atoms: C_7  and  C_8
REMARK                            x       y       z     vdW  Elec       q    Type
REMARK                         _______ _______ _______ _____ _____    ______ ____
ROOT
ATOM      1  C   UNL     1       4.143   3.576  18.279  0.00  0.00    +0.000 A 
ATOM      2  N   UNL     1       3.960   2.388  17.717  0.00  0.00    +0.000 NA
ATOM      3  C   UNL     1       2.765   1.911  18.181  0.00  0.00    +0.000 A 
ATOM      4  C   UNL     1       2.182   2.814  19.036  0.00  0.00    +0.000 A 
ATOM      5  C   UNL     1       0.976   2.875  19.786  0.00  0.00    +0.000 A 
ATOM      6  C   UNL     1       0.713   3.967  20.534  0.00  0.00    +0.000 A 
ATOM      7  C   UNL     1       1.627   5.092  20.571  0.00  0.00    +0.000 A 
ATOM      8  C   UNL     1       2.754   5.045  19.841  0.00  0.00    +0.000 A 
ATOM      9  N   UNL     1       3.053   3.900  19.090  0.00  0.00    +0.000 N 
ENDROOT
BRANCH   1  14
ATOM     10  C   UNL     1       6.958   5.393  16.490  0.00  0.00    +0.000 A 
ATOM     11  C   UNL     1       7.613   5.974  17.576  0.00  0.00    +0.000 A 
ATOM     12  C   UNL     1       7.106   5.827  18.867  0.00  0.00    +0.000 A 
ATOM     13  C   UNL     1       5.962   5.056  19.079  0.00  0.00    +0.000 A 
ATOM     14  C   UNL     1       5.307   4.436  18.005  0.00  0.00    +0.000 A 
ATOM     15  C   UNL     1       5.785   4.668  16.707  0.00  0.00    +0.000 A 
BRANCH  10  17
ATOM     16  C   UNL     1       7.002   4.894  14.165  0.00  0.00    +0.000 C 
ATOM     17  O   UNL     1       7.556   5.591  15.275  0.00  0.00    +0.000 OA
ENDBRANCH  10  17
ENDBRANCH   1  14
TORSDOF 2
ENDMDL
MODEL 2
REMARK VINA RESULT:      -7.3      1.305      1.463
REMARK  Name = 
REMARK  3 active torsions:
REMARK  status: ('A' for Active; 'I' for Inactive)
REMARK    1  A    between atoms: C_1  and  O_2
REMARK    2  A    between atoms: O_2  and  C_3
REMARK    3  A    between atoms: C_7  and  C_8
REMARK                            x       y       z     vdW  Elec       q    Type
REMARK                         _______ _______ _______ _____ _____    ______ ____
ROOT
ATOM      1  C   UNL     1       4.747   3.727  19.025  0.00  0.00    +0.000 A 
ATOM      2  N   UNL     1       5.148   2.849  19.935  0.00  0.00    +0.000 NA
ATOM      3  C   UNL     1       4.042   2.143  20.319  0.00  0.00    +0.000 A 
ATOM      4  C   UNL     1       2.931   2.573  19.634  0.00  0.00    +0.000 A 
ATOM      5  C   UNL     1       1.556   2.217  19.599  0.00  0.00    +0.000 A 
ATOM      6  C   UNL     1       0.722   2.867  18.759  0.00  0.00    +0.000 A 
ATOM      7  C   UNL     1       1.208   3.906  17.872  0.00  0.00    +0.000 A 
ATOM      8  C   UNL     1       2.513   4.223  17.886  0.00  0.00    +0.000 A 
ATOM      9  N   UNL     1       3.379   3.579  18.782  0.00  0.00    +0.000 N 
ENDROOT
BRANCH   1  14
ATOM     10  C   UNL     1       6.657   5.572  16.309  0.00  0.00    +0.000 A 
ATOM     11  C   UNL     1       7.509   6.354  17.088  0.00  0.00    +0.000 A 
ATOM     12  C   UNL     1       7.418   6.326  18.479  0.00  0.00    +0.000 A 
ATOM     13  C   UNL     1       6.499   5.477  19.097  0.00  0.00    +0.000 A 
ATOM     14  C   UNL     1       5.655   4.658  18.334  0.00  0.00    +0.000 A 
ATOM     15  C   UNL     1       5.705   4.766  16.936  0.00  0.00    +0.000 A 
BRANCH  10  17
ATOM     16  C   UNL     1       6.617   4.494  14.189  0.00  0.00    +0.000 C 
ATOM     17  O   UNL     1       6.849   5.670  14.958  0.00  0.00    +0.000 OA
ENDBRANCH  10  17
ENDBRANCH   1  14
TORSDOF 2
ENDMDL
MODEL 3
REMARK VINA RESULT:      -7.3      1.736      1.934
REMARK  Name = 
REMARK  3 active torsions:
REMARK  status: ('A' for Active; 'I' for Inactive)
REMARK    1  A    between atoms: C_1  and  O_2
REMARK    2  A    between atoms: O_2  and  C_3
REMARK    3  A    between atoms: C_7  and  C_8
REMARK                            x       y       z     vdW  Elec       q    Type
REMARK                         _______ _______ _______ _____ _____    ______ ____
ROOT
ATOM      1  C   UNL     1       4.332   3.726  18.939  0.00  0.00    +0.000 A 
ATOM      2  N   UNL     1       5.217   2.892  19.469  0.00  0.00    +0.000 NA
ATOM      3  C   UNL     1       4.591   2.256  20.506  0.00  0.00    +0.000 A 
ATOM      4  C   UNL     1       3.292   2.688  20.624  0.00  0.00    +0.000 A 
ATOM      5  C   UNL     1       2.194   2.387  21.474  0.00  0.00    +0.000 A 
ATOM      6  C   UNL     1       1.015   3.017  21.284  0.00  0.00    +0.000 A 
ATOM      7  C   UNL     1       0.839   3.978  20.212  0.00  0.00    +0.000 A 
ATOM      8  C   UNL     1       1.871   4.241  19.393  0.00  0.00    +0.000 A 
ATOM      9  N   UNL     1       3.109   3.619  19.606  0.00  0.00    +0.000 N 
ENDROOT
BRANCH   1  14
ATOM     10  C   UNL     1       5.292   4.871  15.448  0.00  0.00    +0.000 A 
ATOM     11  C   UNL     1       5.267   6.255  15.621  0.00  0.00    +0.000 A 
ATOM     12  C   UNL     1       4.880   6.806  16.841  0.00  0.00    +0.000 A 
ATOM     13  C   UNL     1       4.560   5.969  17.910  0.00  0.00    +0.000 A 
ATOM     14  C   UNL     1       4.611   4.575  17.768  0.00  0.00    +0.000 A 
ATOM     15  C   UNL     1       4.919   4.043  16.508  0.00  0.00    +0.000 A 
BRANCH  10  17
ATOM     16  C   UNL     1       7.056   4.710  13.860  0.00  0.00    +0.000 C 
ATOM     17  O   UNL     1       5.702   4.446  14.213  0.00  0.00    +0.000 OA
ENDBRANCH  10  17
ENDBRANCH   1  14
TORSDOF 2
ENDMDL
MODEL 4
REMARK VINA RESULT:      -7.2      1.068      1.939
REMARK  Name = 
REMARK  3 active torsions:
REMARK  status: ('A' for Active; 'I' for Inactive)
REMARK    1  A    between atoms: C_1  and  O_2
REMARK    2  A    between atoms: O_2  and  C_3
REMARK    3  A    between atoms: C_7  and  C_8
REMARK                            x       y       z     vdW  Elec       q    Type
REMARK                         _______ _______ _______ _____ _____    ______ ____
ROOT
ATOM      1  C   UNL     1       3.975   3.379  18.026  0.00  0.00    +0.000 A 
ATOM      2  N   UNL     1       3.735   2.102  17.763  0.00  0.00    +0.000 NA
ATOM      3  C   UNL     1       2.649   1.740  18.511  0.00  0.00    +0.000 A 
ATOM      4  C   UNL     1       2.192   2.806  19.248  0.00  0.00    +0.000 A 
ATOM      5  C   UNL     1       1.128   3.030  20.162  0.00  0.00    +0.000 A 
ATOM      6  C   UNL     1       0.962   4.255  20.702  0.00  0.00    +0.000 A 
ATOM      7  C   UNL     1       1.835   5.358  20.348  0.00  0.00    +0.000 A 
ATOM      8  C   UNL     1       2.825   5.152  19.464  0.00  0.00    +0.000 A 
ATOM      9  N   UNL     1       3.027   3.873  18.926  0.00  0.00    +0.000 N 
ENDROOT
BRANCH   1  14
ATOM     10  C   UNL     1       6.905   5.734  17.482  0.00  0.00    +0.000 A 
ATOM     11  C   UNL     1       6.984   5.720  16.089  0.00  0.00    +0.000 A 
ATOM     12  C   UNL     1       6.135   4.904  15.343  0.00  0.00    +0.000 A 
ATOM     13  C   UNL     1       5.169   4.132  15.990  0.00  0.00    +0.000 A 
ATOM     14  C   UNL     1       5.051   4.156  17.387  0.00  0.00    +0.000 A 
ATOM     15  C   UNL     1       5.971   4.917  18.122  0.00  0.00    +0.000 A 
BRANCH  10  17
ATOM     16  C   UNL     1       7.786   7.936  17.662  0.00  0.00    +0.000 C 
ATOM     17  O   UNL     1       7.778   6.583  18.106  0.00  0.00    +0.000 OA
ENDBRANCH  10  17
ENDBRANCH   1  14
TORSDOF 2
ENDMDL
MODEL 5
REMARK VINA RESULT:      -7.2      1.641      1.973
REMARK  Name = 
REMARK  3 active torsions:
REMARK  status: ('A' for Active; 'I' for Inactive)
REMARK    1  A    between atoms: C_1  and  O_2
REMARK    2  A    between atoms: O_2  and  C_3
REMARK    3  A    between atoms: C_7  and  C_8
REMARK                            x       y       z     vdW  Elec       q    Type
REMARK                         _______ _______ _______ _____ _____    ______ ____
ROOT
ATOM      1  C   UNL     1       4.338   4.541  18.040  0.00  0.00    +0.000 A 
ATOM      2  N   UNL     1       4.090   3.885  16.914  0.00  0.00    +0.000 NA
ATOM      3  C   UNL     1       2.851   3.320  17.051  0.00  0.00    +0.000 A 
ATOM      4  C   UNL     1       2.309   3.633  18.273  0.00  0.00    +0.000 A 
ATOM      5  C   UNL     1       1.089   3.355  18.947  0.00  0.00    +0.000 A 
ATOM      6  C   UNL     1       0.880   3.860  20.181  0.00  0.00    +0.000 A 
ATOM      7  C   UNL     1       1.868   4.704  20.825  0.00  0.00    +0.000 A 
ATOM      8  C   UNL     1       3.010   4.988  20.176  0.00  0.00    +0.000 A 
ATOM      9  N   UNL     1       3.250   4.438  18.910  0.00  0.00    +0.000 N 
ENDROOT
BRANCH   1  14
ATOM     10  C   UNL     1       7.089   7.141  17.726  0.00  0.00    +0.000 A 
ATOM     11  C   UNL     1       7.990   6.671  18.682  0.00  0.00    +0.000 A 
ATOM     12  C   UNL     1       7.676   5.558  19.461  0.00  0.00    +0.000 A 
ATOM     13  C   UNL     1       6.472   4.884  19.252  0.00  0.00    +0.000 A 
ATOM     14  C   UNL     1       5.567   5.320  18.275  0.00  0.00    +0.000 A 
ATOM     15  C   UNL     1       5.865   6.491  17.563  0.00  0.00    +0.000 A 
BRANCH  10  17
ATOM     16  C   UNL     1       8.130   9.279  17.748  0.00  0.00    +0.000 C 
ATOM     17  O   UNL     1       7.513   8.229  17.012  0.00  0.00    +0.000 OA
ENDBRANCH  10  17
ENDBRANCH   1  14
TORSDOF 2
ENDMDL
MODEL 6
REMARK VINA RESULT:      -7.2      1.608      2.322
REMARK  Name = 
REMARK  3 active torsions:
REMARK  status: ('A' for Active; 'I' for Inactive)
REMARK    1  A    between atoms: C_1  and  O_2
REMARK    2  A    between atoms: O_2  and  C_3
REMARK    3  A    between atoms: C_7  and  C_8
REMARK                            x       y       z     vdW  Elec       q    Type
REMARK                         _______ _______ _______ _____ _____    ______ ____
ROOT
ATOM      1  C   UNL     1       4.495   3.522  18.994  0.00  0.00    +0.000 A 
ATOM      2  N   UNL     1       5.208   2.584  19.602  0.00  0.00    +0.000 NA
ATOM      3  C   UNL     1       4.417   2.063  20.589  0.00  0.00    +0.000 A 
ATOM      4  C   UNL     1       3.187   2.673  20.596  0.00  0.00    +0.000 A 
ATOM      5  C   UNL     1       1.992   2.546  21.355  0.00  0.00    +0.000 A 
ATOM      6  C   UNL     1       0.932   3.330  21.063  0.00  0.00    +0.000 A 
ATOM      7  C   UNL     1       0.980   4.284  19.971  0.00  0.00    +0.000 A 
ATOM      8  C   UNL     1       2.101   4.384  19.238  0.00  0.00    +0.000 A 
ATOM      9  N   UNL     1       3.219   3.600  19.558  0.00  0.00    +0.000 N 
ENDROOT
BRANCH   1  14
ATOM     10  C   UNL     1       5.944   6.316  16.868  0.00  0.00    +0.000 A 
ATOM     11  C   UNL     1       5.761   5.783  15.592  0.00  0.00    +0.000 A 
ATOM     12  C   UNL     1       5.231   4.503  15.432  0.00  0.00    +0.000 A 
ATOM     13  C   UNL     1       4.839   3.770  16.553  0.00  0.00    +0.000 A 
ATOM     14  C   UNL     1       4.983   4.300  17.842  0.00  0.00    +0.000 A 
ATOM     15  C   UNL     1       5.598   5.553  17.985  0.00  0.00    +0.000 A 
BRANCH  10  17
ATOM     16  C   UNL     1       7.697   7.759  17.578  0.00  0.00    +0.000 C 
ATOM     17  O   UNL     1       6.457   7.585  16.901  0.00  0.00    +0.000 OA
ENDBRANCH  10  17
ENDBRANCH   1  14
TORSDOF 2
ENDMDL
MODEL 7
REMARK VINA RESULT:      -7.2      1.209      2.202
REMARK  Name = 
REMARK  3 active torsions:
REMARK  status: ('A' for Active; 'I' for Inactive)
REMARK    1  A    between atoms: C_1  and  O_2
REMARK    2  A    between atoms: O_2  and  C_3
REMARK    3  A    between atoms: C_7  and  C_8
REMARK                            x       y       z     vdW  Elec       q    Type
REMARK                         _______ _______ _______ _____ _____    ______ ____
ROOT
ATOM      1  C   UNL     1       3.884   5.447  18.664  0.00  0.00    +0.000 A 
ATOM      2  N   UNL     1       3.420   6.629  19.047  0.00  0.00    +0.000 NA
ATOM      3  C   UNL     1       2.284   6.393  19.771  0.00  0.00    +0.000 A 
ATOM      4  C   UNL     1       2.035   5.044  19.854  0.00  0.00    +0.000 A 
ATOM      5  C   UNL     1       1.045   4.228  20.466  0.00  0.00    +0.000 A 
ATOM      6  C   UNL     1       1.127   2.886  20.350  0.00  0.00    +0.000 A 
ATOM      7  C   UNL     1       2.220   2.257  19.634  0.00  0.00    +0.000 A 
ATOM      8  C   UNL     1       3.169   3.029  19.078  0.00  0.00    +0.000 A 
ATOM      9  N   UNL     1       3.072   4.425  19.162  0.00  0.00    +0.000 N 
ENDROOT
BRANCH   1  14
ATOM     10  C   UNL     1       6.331   5.135  15.776  0.00  0.00    +0.000 A 
ATOM     11  C   UNL     1       7.490   4.780  16.465  0.00  0.00    +0.000 A 
ATOM     12  C   UNL     1       7.488   4.706  17.857  0.00  0.00    +0.000 A 
ATOM     13  C   UNL     1       6.308   4.943  18.563  0.00  0.00    +0.000 A 
ATOM     14  C   UNL     1       5.124   5.270  17.888  0.00  0.00    +0.000 A 
ATOM     15  C   UNL     1       5.169   5.423  16.495  0.00  0.00    +0.000 A 
BRANCH  10  17
ATOM     16  C   UNL     1       6.186   3.942  13.723  0.00  0.00    +0.000 C 
ATOM     17  O   UNL     1       6.448   5.159  14.412  0.00  0.00    +0.000 OA
ENDBRANCH  10  17
ENDBRANCH   1  14
TORSDOF 2
ENDMDL
MODEL 8
REMARK VINA RESULT:      -7.1      1.569      2.719
REMARK  Name = 
REMARK  3 active torsions:
REMARK  status: ('A' for Active; 'I' for Inactive)
REMARK    1  A    between atoms: C_1  and  O_2
REMARK    2  A    between atoms: O_2  and  C_3
REMARK    3  A    between atoms: C_7  and  C_8
REMARK                            x       y       z     vdW  Elec       q    Type
REMARK                         _______ _______ _______ _____ _____    ______ ____
ROOT
ATOM      1  C   UNL     1       3.602   5.045  18.460  0.00  0.00    +0.000 A 
ATOM      2  N   UNL     1       2.690   6.008  18.511  0.00  0.00    +0.000 NA
ATOM      3  C   UNL     1       1.834   5.688  19.529  0.00  0.00    +0.000 A 
ATOM      4  C   UNL     1       2.217   4.516  20.134  0.00  0.00    +0.000 A 
ATOM      5  C   UNL     1       1.742   3.726  21.216  0.00  0.00    +0.000 A 
ATOM      6  C   UNL     1       2.403   2.600  21.557  0.00  0.00    +0.000 A 
ATOM      7  C   UNL     1       3.605   2.192  20.857  0.00  0.00    +0.000 A 
ATOM      8  C   UNL     1       4.069   2.953  19.852  0.00  0.00    +0.000 A 
ATOM      9  N   UNL     1       3.368   4.105  19.467  0.00  0.00    +0.000 N 
ENDROOT
BRANCH   1  14
ATOM     10  C   UNL     1       6.769   6.014  16.601  0.00  0.00    +0.000 A 
ATOM     11  C   UNL     1       6.771   5.053  15.590  0.00  0.00    +0.000 A 
ATOM     12  C   UNL     1       5.788   4.065  15.553  0.00  0.00    +0.000 A 
ATOM     13  C   UNL     1       4.769   4.064  16.507  0.00  0.00    +0.000 A 
ATOM     14  C   UNL     1       4.730   5.040  17.513  0.00  0.00    +0.000 A 
ATOM     15  C   UNL     1       5.776   5.972  17.581  0.00  0.00    +0.000 A 
BRANCH  10  17
ATOM     16  C   UNL     1       7.797   7.945  17.533  0.00  0.00    +0.000 C 
ATOM     17  O   UNL     1       7.772   6.941  16.525  0.00  0.00    +0.000 OA
ENDBRANCH  10  17
ENDBRANCH   1  14
TORSDOF 2
ENDMDL
MODEL 9
REMARK VINA RESULT:      -7.1      1.607      2.283
REMARK  Name = 
REMARK  3 active torsions:
REMARK  status: ('A' for Active; 'I' for Inactive)
REMARK    1  A    between atoms: C_1  and  O_2
REMARK    2  A    between atoms: O_2  and  C_3
REMARK    3  A    between atoms: C_7  and  C_8
REMARK                            x       y       z     vdW  Elec       q    Type
REMARK                         _______ _______ _______ _____ _____    ______ ____
ROOT
ATOM      1  C   UNL     1       4.860   3.805  19.213  0.00  0.00    +0.000 A 
ATOM      2  N   UNL     1       5.207   2.587  19.607  0.00  0.00    +0.000 NA
ATOM      3  C   UNL     1       4.149   2.083  20.313  0.00  0.00    +0.000 A 
ATOM      4  C   UNL     1       3.119   2.990  20.354  0.00  0.00    +0.000 A 
ATOM      5  C   UNL     1       1.810   3.020  20.909  0.00  0.00    +0.000 A 
ATOM      6  C   UNL     1       1.039   4.114  20.733  0.00  0.00    +0.000 A 
ATOM      7  C   UNL     1       1.510   5.252  19.967  0.00  0.00    +0.000 A 
ATOM      8  C   UNL     1       2.737   5.212  19.422  0.00  0.00    +0.000 A 
ATOM      9  N   UNL     1       3.558   4.095  19.630  0.00  0.00    +0.000 N 
ENDROOT
BRANCH   1  14
ATOM     10  C   UNL     1       7.390   6.429  18.148  0.00  0.00    +0.000 A 
ATOM     11  C   UNL     1       7.225   6.391  16.763  0.00  0.00    +0.000 A 
ATOM     12  C   UNL     1       6.346   5.478  16.183  0.00  0.00    +0.000 A 
ATOM     13  C   UNL     1       5.594   4.627  16.994  0.00  0.00    +0.000 A 
ATOM     14  C   UNL     1       5.721   4.671  18.389  0.00  0.00    +0.000 A 
ATOM     15  C   UNL     1       6.672   5.537  18.947  0.00  0.00    +0.000 A 
BRANCH  10  17
ATOM     16  C   UNL     1       8.203   8.658  17.989  0.00  0.00    +0.000 C 
ATOM     17  O   UNL     1       8.266   7.376  18.604  0.00  0.00    +0.000 OA
ENDBRANCH  10  17
ENDBRANCH   1  14
TORSDOF 2
ENDMDL
