MODEL 1
REMARK VINA RESULT:      -8.7      0.000      0.000
REMARK  Name = 
REMARK  9 active torsions:
REMARK  status: ('A' for Active; 'I' for Inactive)
REMARK    1  A    between atoms: C_1  and  C_2
REMARK    2  A    between atoms: C_2  and  C_3
REMARK    3  A    between atoms: C_6  and  C_7
REMARK    4  A    between atoms: C_9  and  C_10
REMARK    5  A    between atoms: N_13  and  C_14
REMARK    6  A    between atoms: C_14  and  C_15
REMARK    7  A    between atoms: C_18  and  C_19
REMARK    8  A    between atoms: N_26  and  C_27
REMARK    9  A    between atoms: C_30  and  C_31
REMARK                            x       y       z     vdW  Elec       q    Type
REMARK                         _______ _______ _______ _____ _____    ______ ____
ROOT
ATOM      1  C   UNL     1       2.129   7.613  19.387  0.00  0.00    +0.000 A 
ATOM      2  C   UNL     1       1.255   8.134  20.355  0.00  0.00    +0.000 A 
ATOM      3  C   UNL     1       0.636   9.389  20.185  0.00  0.00    +0.000 A 
ATOM      4  C   UNL     1       0.861  10.148  19.033  0.00  0.00    +0.000 A 
ATOM      5  C   UNL     1       1.652   9.586  18.020  0.00  0.00    +0.000 A 
ATOM      6  C   UNL     1       2.276   8.335  18.193  0.00  0.00    +0.000 A 
ENDROOT
BRANCH   4   7
ATOM      7  C   UNL     1       0.394  11.551  18.922  0.00  0.00    +0.000 C 
ATOM      8  C   UNL     1       1.091  12.607  19.421  0.00  0.00    +0.000 C 
ATOM      9  C   UNL     1       2.276  12.536  20.259  0.00  0.00    +0.000 C 
ATOM     10  C   UNL     1       2.909  13.638  20.692  0.00  0.00    +0.000 C 
ATOM     11  C   UNL     1       2.494  14.969  20.316  0.00  0.00    +0.000 C 
ATOM     12  C   UNL     1       1.374  15.152  19.602  0.00  0.00    +0.000 C 
ATOM     13  C   UNL     1       0.538  14.005  19.117  0.00  0.00    +0.000 C 
ATOM     14  N   UNL     1      -0.852  14.007  19.572  0.00  0.00    +0.000 N 
ATOM     15  C   UNL     1      -1.354  14.899  20.602  0.00  0.00    +0.000 C 
ATOM     16  C   UNL     1      -1.672  12.933  19.139  0.00  0.00    +0.000 C 
ATOM     17  O   UNL     1      -2.856  12.854  19.464  0.00  0.00    +0.000 OA
ATOM     18  C   UNL     1      -0.930  11.906  18.226  0.00  0.00    +0.000 C 
BRANCH  18  19
ATOM     19  C   UNL     1      -1.771  10.774  17.773  0.00  0.00    +0.000 A 
ATOM     20  N   UNL     1      -1.960  10.400  16.471  0.00  0.00    +0.000 NA
ATOM     21  N   UNL     1      -2.848   9.414  16.494  0.00  0.00    +0.000 NA
ATOM     22  N   UNL     1      -3.157   9.261  17.785  0.00  0.00    +0.000 N 
ATOM     23  N   UNL     1      -2.515  10.062  18.644  0.00  0.00    +0.000 NA
ATOM     24  H   UNL     1      -3.852   8.585  18.097  0.00  0.00    +0.000 HD
ENDBRANCH  18  19
ENDBRANCH   4   7
BRANCH   1  25
ATOM     25  C   UNL     1       3.011   6.414  19.699  0.00  0.00    +0.000 C 
BRANCH  25  36
ATOM     26  C   UNL     1       2.742   4.751  17.779  0.00  0.00    +0.000 A 
ATOM     27  N   UNL     1       3.470   4.290  16.778  0.00  0.00    +0.000 NA
ATOM     28  C   UNL     1       4.637   5.005  16.809  0.00  0.00    +0.000 A 
ATOM     29  C   UNL     1       5.732   4.995  15.933  0.00  0.00    +0.000 A 
ATOM     30  C   UNL     1       5.841   4.071  14.759  0.00  0.00    +0.000 C 
ATOM     31  C   UNL     1       6.737   5.937  16.203  0.00  0.00    +0.000 A 
ATOM     32  C   UNL     1       6.619   6.809  17.294  0.00  0.00    +0.000 A 
ATOM     33  C   UNL     1       7.685   7.842  17.533  0.00  0.00    +0.000 C 
ATOM     34  N   UNL     1       5.583   6.809  18.173  0.00  0.00    +0.000 NA
ATOM     35  C   UNL     1       4.645   5.887  17.880  0.00  0.00    +0.000 A 
ATOM     36  N   UNL     1       3.472   5.638  18.558  0.00  0.00    +0.000 N 
BRANCH  26  38
ATOM     37  C   UNL     1       1.153   2.985  18.536  0.00  0.00    +0.000 C 
ATOM     38  C   UNL     1       1.304   4.391  17.967  0.00  0.00    +0.000 C 
ENDBRANCH  26  38
ENDBRANCH  25  36
ENDBRANCH   1  25
TORSDOF 5
ENDMDL
MODEL 2
REMARK VINA RESULT:      -8.3      2.152      3.637
REMARK  Name = 
REMARK  9 active torsions:
REMARK  status: ('A' for Active; 'I' for Inactive)
REMARK    1  A    between atoms: C_1  and  C_2
REMARK    2  A    between atoms: C_2  and  C_3
REMARK    3  A    between atoms: C_6  and  C_7
REMARK    4  A    between atoms: C_9  and  C_10
REMARK    5  A    between atoms: N_13  and  C_14
REMARK    6  A    between atoms: C_14  and  C_15
REMARK    7  A    between atoms: C_18  and  C_19
REMARK    8  A    between atoms: N_26  and  C_27
REMARK    9  A    between atoms: C_30  and  C_31
REMARK                            x       y       z     vdW  Elec       q    Type
REMARK                         _______ _______ _______ _____ _____    ______ ____
ROOT
ATOM      1  C   UNL     1       1.349   8.392  19.883  0.00  0.00    +0.000 A 
ATOM      2  C   UNL     1       0.306   8.432  20.823  0.00  0.00    +0.000 A 
ATOM      3  C   UNL     1      -0.672   9.447  20.791  0.00  0.00    +0.000 A 
ATOM      4  C   UNL     1      -0.644  10.438  19.805  0.00  0.00    +0.000 A 
ATOM      5  C   UNL     1       0.335  10.342  18.806  0.00  0.00    +0.000 A 
ATOM      6  C   UNL     1       1.317   9.332  18.841  0.00  0.00    +0.000 A 
ENDROOT
BRANCH   4   7
ATOM      7  C   UNL     1      -1.528  11.626  19.872  0.00  0.00    +0.000 C 
ATOM      8  C   UNL     1      -1.539  12.486  20.925  0.00  0.00    +0.000 C 
ATOM      9  C   UNL     1      -0.841  12.307  22.187  0.00  0.00    +0.000 C 
ATOM     10  C   UNL     1      -0.898  13.223  23.168  0.00  0.00    +0.000 C 
ATOM     11  C   UNL     1      -1.609  14.471  23.023  0.00  0.00    +0.000 C 
ATOM     12  C   UNL     1      -2.342  14.709  21.926  0.00  0.00    +0.000 C 
ATOM     13  C   UNL     1      -2.419  13.734  20.788  0.00  0.00    +0.000 C 
ATOM     14  N   UNL     1      -3.763  13.259  20.461  0.00  0.00    +0.000 N 
ATOM     15  C   UNL     1      -4.923  13.503  21.299  0.00  0.00    +0.000 C 
ATOM     16  C   UNL     1      -3.874  12.331  19.393  0.00  0.00    +0.000 C 
ATOM     17  O   UNL     1      -4.963  11.880  19.041  0.00  0.00    +0.000 OA
ATOM     18  C   UNL     1      -2.506  11.966  18.735  0.00  0.00    +0.000 C 
BRANCH  18  19
ATOM     19  C   UNL     1      -2.604  10.990  17.625  0.00  0.00    +0.000 A 
ATOM     20  N   UNL     1      -2.343  11.259  16.309  0.00  0.00    +0.000 NA
ATOM     21  N   UNL     1      -2.642  10.153  15.638  0.00  0.00    +0.000 NA
ATOM     22  N   UNL     1      -3.079   9.296  16.567  0.00  0.00    +0.000 N 
ATOM     23  N   UNL     1      -3.070   9.741  17.830  0.00  0.00    +0.000 NA
ATOM     24  H   UNL     1      -3.413   8.365  16.328  0.00  0.00    +0.000 HD
ENDBRANCH  18  19
ENDBRANCH   4   7
BRANCH   1  25
ATOM     25  C   UNL     1       2.550   7.483  20.091  0.00  0.00    +0.000 C 
BRANCH  25  36
ATOM     26  C   UNL     1       3.294   6.248  17.983  0.00  0.00    +0.000 A 
ATOM     27  N   UNL     1       3.242   5.019  17.503  0.00  0.00    +0.000 NA
ATOM     28  C   UNL     1       2.696   4.254  18.498  0.00  0.00    +0.000 A 
ATOM     29  C   UNL     1       2.487   2.869  18.569  0.00  0.00    +0.000 A 
ATOM     30  C   UNL     1       2.791   1.930  17.443  0.00  0.00    +0.000 C 
ATOM     31  C   UNL     1       1.990   2.391  19.792  0.00  0.00    +0.000 A 
ATOM     32  C   UNL     1       1.725   3.274  20.846  0.00  0.00    +0.000 A 
ATOM     33  C   UNL     1       1.241   2.731  22.162  0.00  0.00    +0.000 C 
ATOM     34  N   UNL     1       1.888   4.621  20.783  0.00  0.00    +0.000 NA
ATOM     35  C   UNL     1       2.361   5.039  19.592  0.00  0.00    +0.000 A 
ATOM     36  N   UNL     1       2.648   6.331  19.208  0.00  0.00    +0.000 N 
BRANCH  26  38
ATOM     37  C   UNL     1       5.058   6.813  16.314  0.00  0.00    +0.000 C 
ATOM     38  C   UNL     1       4.025   7.355  17.296  0.00  0.00    +0.000 C 
ENDBRANCH  26  38
ENDBRANCH  25  36
ENDBRANCH   1  25
TORSDOF 5
ENDMDL
MODEL 3
REMARK VINA RESULT:      -8.2      2.466      3.745
REMARK  Name = 
REMARK  9 active torsions:
REMARK  status: ('A' for Active; 'I' for Inactive)
REMARK    1  A    between atoms: C_1  and  C_2
REMARK    2  A    between atoms: C_2  and  C_3
REMARK    3  A    between atoms: C_6  and  C_7
REMARK    4  A    between atoms: C_9  and  C_10
REMARK    5  A    between atoms: N_13  and  C_14
REMARK    6  A    between atoms: C_14  and  C_15
REMARK    7  A    between atoms: C_18  and  C_19
REMARK    8  A    between atoms: N_26  and  C_27
REMARK    9  A    between atoms: C_30  and  C_31
REMARK                            x       y       z     vdW  Elec       q    Type
REMARK                         _______ _______ _______ _____ _____    ______ ____
ROOT
ATOM      1  C   UNL     1       2.446   6.326  19.707  0.00  0.00    +0.000 A 
ATOM      2  C   UNL     1       1.362   6.279  20.599  0.00  0.00    +0.000 A 
ATOM      3  C   UNL     1       0.447   7.347  20.699  0.00  0.00    +0.000 A 
ATOM      4  C   UNL     1       0.582   8.483  19.896  0.00  0.00    +0.000 A 
ATOM      5  C   UNL     1       1.602   8.489  18.933  0.00  0.00    +0.000 A 
ATOM      6  C   UNL     1       2.520   7.425  18.838  0.00  0.00    +0.000 A 
ENDROOT
BRANCH   4   7
ATOM      7  C   UNL     1      -0.234   9.699  20.126  0.00  0.00    +0.000 C 
ATOM      8  C   UNL     1      -1.025  10.255  19.169  0.00  0.00    +0.000 C 
ATOM      9  C   UNL     1      -1.077   9.871  17.768  0.00  0.00    +0.000 C 
ATOM     10  C   UNL     1      -1.905  10.469  16.897  0.00  0.00    +0.000 C 
ATOM     11  C   UNL     1      -2.840  11.496  17.295  0.00  0.00    +0.000 C 
ATOM     12  C   UNL     1      -2.829  11.971  18.548  0.00  0.00    +0.000 C 
ATOM     13  C   UNL     1      -1.902  11.437  19.599  0.00  0.00    +0.000 C 
ATOM     14  N   UNL     1      -1.003  12.421  20.200  0.00  0.00    +0.000 N 
ATOM     15  C   UNL     1      -0.827  13.766  19.680  0.00  0.00    +0.000 C 
ATOM     16  C   UNL     1      -0.106  11.951  21.194  0.00  0.00    +0.000 C 
ATOM     17  O   UNL     1       0.682  12.705  21.762  0.00  0.00    +0.000 OA
ATOM     18  C   UNL     1      -0.237  10.421  21.483  0.00  0.00    +0.000 C 
BRANCH  18  19
ATOM     19  C   UNL     1       0.699   9.913  22.512  0.00  0.00    +0.000 A 
ATOM     20  N   UNL     1       0.370   9.623  23.808  0.00  0.00    +0.000 NA
ATOM     21  N   UNL     1       1.504   9.293  24.414  0.00  0.00    +0.000 NA
ATOM     22  N   UNL     1       2.444   9.418  23.473  0.00  0.00    +0.000 N 
ATOM     23  N   UNL     1       2.018   9.785  22.258  0.00  0.00    +0.000 NA
ATOM     24  H   UNL     1       3.430   9.257  23.669  0.00  0.00    +0.000 HD
ENDBRANCH  18  19
ENDBRANCH   4   7
BRANCH   1  25
ATOM     25  C   UNL     1       3.581   5.319  19.807  0.00  0.00    +0.000 C 
BRANCH  25  36
ATOM     26  C   UNL     1       3.363   3.840  17.736  0.00  0.00    +0.000 A 
ATOM     27  N   UNL     1       4.054   3.590  16.639  0.00  0.00    +0.000 NA
ATOM     28  C   UNL     1       5.117   4.452  16.665  0.00  0.00    +0.000 A 
ATOM     29  C   UNL     1       6.123   4.683  15.716  0.00  0.00    +0.000 A 
ATOM     30  C   UNL     1       6.248   3.909  14.440  0.00  0.00    +0.000 C 
ATOM     31  C   UNL     1       7.017   5.723  16.017  0.00  0.00    +0.000 A 
ATOM     32  C   UNL     1       6.883   6.454  17.205  0.00  0.00    +0.000 A 
ATOM     33  C   UNL     1       7.822   7.595  17.481  0.00  0.00    +0.000 C 
ATOM     34  N   UNL     1       5.937   6.221  18.152  0.00  0.00    +0.000 NA
ATOM     35  C   UNL     1       5.105   5.212  17.826  0.00  0.00    +0.000 A 
ATOM     36  N   UNL     1       4.037   4.735  18.555  0.00  0.00    +0.000 N 
BRANCH  26  38
ATOM     37  C   UNL     1       2.062   2.128  18.999  0.00  0.00    +0.000 C 
ATOM     38  C   UNL     1       2.006   3.268  17.986  0.00  0.00    +0.000 C 
ENDBRANCH  26  38
ENDBRANCH  25  36
ENDBRANCH   1  25
TORSDOF 5
ENDMDL
MODEL 4
REMARK VINA RESULT:      -8.1      2.779      8.556
REMARK  Name = 
REMARK  9 active torsions:
REMARK  status: ('A' for Active; 'I' for Inactive)
REMARK    1  A    between atoms: C_1  and  C_2
REMARK    2  A    between atoms: C_2  and  C_3
REMARK    3  A    between atoms: C_6  and  C_7
REMARK    4  A    between atoms: C_9  and  C_10
REMARK    5  A    between atoms: N_13  and  C_14
REMARK    6  A    between atoms: C_14  and  C_15
REMARK    7  A    between atoms: C_18  and  C_19
REMARK    8  A    between atoms: N_26  and  C_27
REMARK    9  A    between atoms: C_30  and  C_31
REMARK                            x       y       z     vdW  Elec       q    Type
REMARK                         _______ _______ _______ _____ _____    ______ ____
ROOT
ATOM      1  C   UNL     1       1.097   8.885  20.192  0.00  0.00    +0.000 A 
ATOM      2  C   UNL     1       1.549   8.850  18.863  0.00  0.00    +0.000 A 
ATOM      3  C   UNL     1       2.379   7.811  18.396  0.00  0.00    +0.000 A 
ATOM      4  C   UNL     1       2.764   6.768  19.243  0.00  0.00    +0.000 A 
ATOM      5  C   UNL     1       2.232   6.745  20.541  0.00  0.00    +0.000 A 
ATOM      6  C   UNL     1       1.408   7.787  21.009  0.00  0.00    +0.000 A 
ENDROOT
BRANCH   4   7
ATOM      7  C   UNL     1       3.797   5.783  18.843  0.00  0.00    +0.000 C 
ATOM      8  C   UNL     1       4.956   6.132  18.222  0.00  0.00    +0.000 C 
ATOM      9  C   UNL     1       5.293   7.451  17.712  0.00  0.00    +0.000 C 
ATOM     10  C   UNL     1       6.474   7.706  17.125  0.00  0.00    +0.000 C 
ATOM     11  C   UNL     1       7.511   6.709  17.005  0.00  0.00    +0.000 C 
ATOM     12  C   UNL     1       7.280   5.443  17.381  0.00  0.00    +0.000 C 
ATOM     13  C   UNL     1       5.977   5.013  17.985  0.00  0.00    +0.000 C 
ATOM     14  N   UNL     1       5.271   3.955  17.264  0.00  0.00    +0.000 N 
ATOM     15  C   UNL     1       5.652   3.500  15.938  0.00  0.00    +0.000 C 
ATOM     16  C   UNL     1       4.031   3.526  17.803  0.00  0.00    +0.000 C 
ATOM     17  O   UNL     1       3.368   2.637  17.270  0.00  0.00    +0.000 OA
ATOM     18  C   UNL     1       3.621   4.279  19.109  0.00  0.00    +0.000 C 
BRANCH  18  19
ATOM     19  C   UNL     1       2.323   3.849  19.678  0.00  0.00    +0.000 A 
ATOM     20  N   UNL     1       2.134   3.377  20.948  0.00  0.00    +0.000 NA
ATOM     21  N   UNL     1       0.858   3.016  21.024  0.00  0.00    +0.000 NA
ATOM     22  N   UNL     1       0.359   3.269  19.810  0.00  0.00    +0.000 N 
ATOM     23  N   UNL     1       1.207   3.803  18.922  0.00  0.00    +0.000 NA
ATOM     24  H   UNL     1      -0.606   3.054  19.568  0.00  0.00    +0.000 HD
ENDBRANCH  18  19
ENDBRANCH   4   7
BRANCH   1  25
ATOM     25  C   UNL     1       0.454  10.139  20.764  0.00  0.00    +0.000 C 
BRANCH  25  36
ATOM     26  C   UNL     1      -0.540  11.666  18.974  0.00  0.00    +0.000 A 
ATOM     27  N   UNL     1      -0.261  12.834  18.424  0.00  0.00    +0.000 NA
ATOM     28  C   UNL     1       0.820  13.318  19.108  0.00  0.00    +0.000 A 
ATOM     29  C   UNL     1       1.482  14.550  19.007  0.00  0.00    +0.000 A 
ATOM     30  C   UNL     1       1.126  15.598  17.998  0.00  0.00    +0.000 C 
ATOM     31  C   UNL     1       2.508  14.769  19.941  0.00  0.00    +0.000 A 
ATOM     32  C   UNL     1       2.824  13.790  20.892  0.00  0.00    +0.000 A 
ATOM     33  C   UNL     1       3.892  14.068  21.912  0.00  0.00    +0.000 C 
ATOM     34  N   UNL     1       2.217  12.578  20.982  0.00  0.00    +0.000 NA
ATOM     35  C   UNL     1       1.244  12.407  20.065  0.00  0.00    +0.000 A 
ATOM     36  N   UNL     1       0.433  11.306  19.896  0.00  0.00    +0.000 N 
BRANCH  26  38
ATOM     37  C   UNL     1      -1.629  10.071  17.397  0.00  0.00    +0.000 C 
ATOM     38  C   UNL     1      -1.786  10.902  18.666  0.00  0.00    +0.000 C 
ENDBRANCH  26  38
ENDBRANCH  25  36
ENDBRANCH   1  25
TORSDOF 5
ENDMDL
MODEL 5
REMARK VINA RESULT:      -8.1      3.098      9.008
REMARK  Name = 
REMARK  9 active torsions:
REMARK  status: ('A' for Active; 'I' for Inactive)
REMARK    1  A    between atoms: C_1  and  C_2
REMARK    2  A    between atoms: C_2  and  C_3
REMARK    3  A    between atoms: C_6  and  C_7
REMARK    4  A    between atoms: C_9  and  C_10
REMARK    5  A    between atoms: N_13  and  C_14
REMARK    6  A    between atoms: C_14  and  C_15
REMARK    7  A    between atoms: C_18  and  C_19
REMARK    8  A    between atoms: N_26  and  C_27
REMARK    9  A    between atoms: C_30  and  C_31
REMARK                            x       y       z     vdW  Elec       q    Type
REMARK                         _______ _______ _______ _____ _____    ______ ____
ROOT
ATOM      1  C   UNL     1       1.429   9.470  18.611  0.00  0.00    +0.000 A 
ATOM      2  C   UNL     1       1.571   8.712  19.785  0.00  0.00    +0.000 A 
ATOM      3  C   UNL     1       2.169   7.436  19.767  0.00  0.00    +0.000 A 
ATOM      4  C   UNL     1       2.658   6.892  18.577  0.00  0.00    +0.000 A 
ATOM      5  C   UNL     1       2.610   7.687  17.422  0.00  0.00    +0.000 A 
ATOM      6  C   UNL     1       2.006   8.959  17.438  0.00  0.00    +0.000 A 
ENDROOT
BRANCH   4   7
ATOM      7  C   UNL     1       3.098   5.478  18.491  0.00  0.00    +0.000 C 
ATOM      8  C   UNL     1       2.377   4.444  19.002  0.00  0.00    +0.000 C 
ATOM      9  C   UNL     1       1.189   4.552  19.832  0.00  0.00    +0.000 C 
ATOM     10  C   UNL     1       0.533   3.469  20.279  0.00  0.00    +0.000 C 
ATOM     11  C   UNL     1       0.924   2.125  19.926  0.00  0.00    +0.000 C 
ATOM     12  C   UNL     1       2.044   1.909  19.221  0.00  0.00    +0.000 C 
ATOM     13  C   UNL     1       2.905   3.031  18.723  0.00  0.00    +0.000 C 
ATOM     14  N   UNL     1       4.292   3.009  19.186  0.00  0.00    +0.000 N 
ATOM     15  C   UNL     1       4.771   2.123  20.233  0.00  0.00    +0.000 C 
ATOM     16  C   UNL     1       5.135   4.059  18.740  0.00  0.00    +0.000 C 
ATOM     17  O   UNL     1       6.319   4.121  19.071  0.00  0.00    +0.000 OA
ATOM     18  C   UNL     1       4.418   5.086  17.808  0.00  0.00    +0.000 C 
BRANCH  18  19
ATOM     19  C   UNL     1       5.283   6.195  17.342  0.00  0.00    +0.000 A 
ATOM     20  N   UNL     1       5.455   6.570  16.038  0.00  0.00    +0.000 NA
ATOM     21  N   UNL     1       6.374   7.528  16.045  0.00  0.00    +0.000 NA
ATOM     22  N   UNL     1       6.716   7.664  17.330  0.00  0.00    +0.000 N 
ATOM     23  N   UNL     1       6.068   6.878  18.199  0.00  0.00    +0.000 NA
ATOM     24  H   UNL     1       7.438   8.316  17.630  0.00  0.00    +0.000 HD
ENDBRANCH  18  19
ENDBRANCH   4   7
BRANCH   1  25
ATOM     25  C   UNL     1       0.534  10.700  18.581  0.00  0.00    +0.000 C 
BRANCH  25  36
ATOM     26  C   UNL     1       0.281  11.660  20.935  0.00  0.00    +0.000 A 
ATOM     27  N   UNL     1       0.751  12.682  21.627  0.00  0.00    +0.000 NA
ATOM     28  C   UNL     1       1.668  13.291  20.814  0.00  0.00    +0.000 A 
ATOM     29  C   UNL     1       2.530  14.369  21.063  0.00  0.00    +0.000 A 
ATOM     30  C   UNL     1       2.539  15.138  22.348  0.00  0.00    +0.000 C 
ATOM     31  C   UNL     1       3.427  14.684  20.030  0.00  0.00    +0.000 A 
ATOM     32  C   UNL     1       3.423  13.948  18.837  0.00  0.00    +0.000 A 
ATOM     33  C   UNL     1       4.427  14.272  17.766  0.00  0.00    +0.000 C 
ATOM     34  N   UNL     1       2.573  12.924  18.564  0.00  0.00    +0.000 NA
ATOM     35  C   UNL     1       1.726  12.660  19.579  0.00  0.00    +0.000 A 
ATOM     36  N   UNL     1       0.755  11.683  19.630  0.00  0.00    +0.000 N 
BRANCH  26  38
ATOM     37  C   UNL     1       0.037  10.035  22.810  0.00  0.00    +0.000 C 
ATOM     38  C   UNL     1      -0.584  10.603  21.538  0.00  0.00    +0.000 C 
ENDBRANCH  26  38
ENDBRANCH  25  36
ENDBRANCH   1  25
TORSDOF 5
ENDMDL
MODEL 6
REMARK VINA RESULT:      -8.1      3.087      9.566
REMARK  Name = 
REMARK  9 active torsions:
REMARK  status: ('A' for Active; 'I' for Inactive)
REMARK    1  A    between atoms: C_1  and  C_2
REMARK    2  A    between atoms: C_2  and  C_3
REMARK    3  A    between atoms: C_6  and  C_7
REMARK    4  A    between atoms: C_9  and  C_10
REMARK    5  A    between atoms: N_13  and  C_14
REMARK    6  A    between atoms: C_14  and  C_15
REMARK    7  A    between atoms: C_18  and  C_19
REMARK    8  A    between atoms: N_26  and  C_27
REMARK    9  A    between atoms: C_30  and  C_31
REMARK                            x       y       z     vdW  Elec       q    Type
REMARK                         _______ _______ _______ _____ _____    ______ ____
ROOT
ATOM      1  C   UNL     1       1.326   9.440  18.755  0.00  0.00    +0.000 A 
ATOM      2  C   UNL     1       1.550   8.688  19.920  0.00  0.00    +0.000 A 
ATOM      3  C   UNL     1       2.165   7.421  19.870  0.00  0.00    +0.000 A 
ATOM      4  C   UNL     1       2.589   6.879  18.653  0.00  0.00    +0.000 A 
ATOM      5  C   UNL     1       2.460   7.670  17.502  0.00  0.00    +0.000 A 
ATOM      6  C   UNL     1       1.839   8.933  17.551  0.00  0.00    +0.000 A 
ENDROOT
BRANCH   4   7
ATOM      7  C   UNL     1       3.043   5.472  18.545  0.00  0.00    +0.000 C 
ATOM      8  C   UNL     1       2.344   4.424  19.059  0.00  0.00    +0.000 C 
ATOM      9  C   UNL     1       1.171   4.510  19.912  0.00  0.00    +0.000 C 
ATOM     10  C   UNL     1       0.536   3.416  20.361  0.00  0.00    +0.000 C 
ATOM     11  C   UNL     1       0.936   2.079  19.987  0.00  0.00    +0.000 C 
ATOM     12  C   UNL     1       2.044   1.883  19.259  0.00  0.00    +0.000 C 
ATOM     13  C   UNL     1       2.883   3.020  18.756  0.00  0.00    +0.000 C 
ATOM     14  N   UNL     1       4.278   3.010  19.193  0.00  0.00    +0.000 N 
ATOM     15  C   UNL     1       4.787   2.120  20.221  0.00  0.00    +0.000 C 
ATOM     16  C   UNL     1       5.101   4.074  18.741  0.00  0.00    +0.000 C 
ATOM     17  O   UNL     1       6.290   4.147  19.050  0.00  0.00    +0.000 OA
ATOM     18  C   UNL     1       4.354   5.102  17.833  0.00  0.00    +0.000 C 
BRANCH  18  19
ATOM     19  C   UNL     1       5.198   6.225  17.362  0.00  0.00    +0.000 A 
ATOM     20  N   UNL     1       5.318   6.634  16.062  0.00  0.00    +0.000 NA
ATOM     21  N   UNL     1       6.234   7.594  16.058  0.00  0.00    +0.000 NA
ATOM     22  N   UNL     1       6.626   7.699  17.331  0.00  0.00    +0.000 N 
ATOM     23  N   UNL     1       6.014   6.890  18.205  0.00  0.00    +0.000 NA
ATOM     24  H   UNL     1       7.356   8.346  17.620  0.00  0.00    +0.000 HD
ENDBRANCH  18  19
ENDBRANCH   4   7
BRANCH   1  25
ATOM     25  C   UNL     1       0.414  10.656  18.776  0.00  0.00    +0.000 C 
BRANCH  25  36
ATOM     26  C   UNL     1       1.879  12.699  19.230  0.00  0.00    +0.000 A 
ATOM     27  N   UNL     1       1.968  13.653  20.140  0.00  0.00    +0.000 NA
ATOM     28  C   UNL     1       0.908  13.461  20.984  0.00  0.00    +0.000 A 
ATOM     29  C   UNL     1       0.465  14.225  22.074  0.00  0.00    +0.000 A 
ATOM     30  C   UNL     1       1.180  15.440  22.575  0.00  0.00    +0.000 C 
ATOM     31  C   UNL     1      -0.731  13.795  22.671  0.00  0.00    +0.000 A 
ATOM     32  C   UNL     1      -1.403  12.666  22.185  0.00  0.00    +0.000 A 
ATOM     33  C   UNL     1      -2.708  12.257  22.810  0.00  0.00    +0.000 C 
ATOM     34  N   UNL     1      -0.970  11.894  21.154  0.00  0.00    +0.000 NA
ATOM     35  C   UNL     1       0.182  12.338  20.614  0.00  0.00    +0.000 A 
ATOM     36  N   UNL     1       0.876  11.796  19.554  0.00  0.00    +0.000 N 
BRANCH  26  38
ATOM     37  C   UNL     1       3.690  13.852  17.963  0.00  0.00    +0.000 C 
ATOM     38  C   UNL     1       2.718  12.677  17.995  0.00  0.00    +0.000 C 
ENDBRANCH  26  38
ENDBRANCH  25  36
ENDBRANCH   1  25
TORSDOF 5
ENDMDL
MODEL 7
REMARK VINA RESULT:      -7.7      2.671      9.497
REMARK  Name = 
REMARK  9 active torsions:
REMARK  status: ('A' for Active; 'I' for Inactive)
REMARK    1  A    between atoms: C_1  and  C_2
REMARK    2  A    between atoms: C_2  and  C_3
REMARK    3  A    between atoms: C_6  and  C_7
REMARK    4  A    between atoms: C_9  and  C_10
REMARK    5  A    between atoms: N_13  and  C_14
REMARK    6  A    between atoms: C_14  and  C_15
REMARK    7  A    between atoms: C_18  and  C_19
REMARK    8  A    between atoms: N_26  and  C_27
REMARK    9  A    between atoms: C_30  and  C_31
REMARK                            x       y       z     vdW  Elec       q    Type
REMARK                         _______ _______ _______ _____ _____    ______ ____
ROOT
ATOM      1  C   UNL     1       1.847   9.456  18.630  0.00  0.00    +0.000 A 
ATOM      2  C   UNL     1       1.977   8.800  17.395  0.00  0.00    +0.000 A 
ATOM      3  C   UNL     1       2.275   7.424  17.322  0.00  0.00    +0.000 A 
ATOM      4  C   UNL     1       2.432   6.664  18.484  0.00  0.00    +0.000 A 
ATOM      5  C   UNL     1       2.202   7.293  19.716  0.00  0.00    +0.000 A 
ATOM      6  C   UNL     1       1.912   8.669  19.790  0.00  0.00    +0.000 A 
ENDROOT
BRANCH   4   7
ATOM      7  C   UNL     1       2.948   5.274  18.440  0.00  0.00    +0.000 C 
ATOM      8  C   UNL     1       2.284   4.218  18.981  0.00  0.00    +0.000 C 
ATOM      9  C   UNL     1       1.090   4.286  19.807  0.00  0.00    +0.000 C 
ATOM     10  C   UNL     1       0.492   3.183  20.286  0.00  0.00    +0.000 C 
ATOM     11  C   UNL     1       0.957   1.852  19.973  0.00  0.00    +0.000 C 
ATOM     12  C   UNL     1       2.087   1.676  19.275  0.00  0.00    +0.000 C 
ATOM     13  C   UNL     1       2.888   2.828  18.745  0.00  0.00    +0.000 C 
ATOM     14  N   UNL     1       4.273   2.895  19.208  0.00  0.00    +0.000 N 
ATOM     15  C   UNL     1       4.798   2.068  20.281  0.00  0.00    +0.000 C 
ATOM     16  C   UNL     1       5.059   3.976  18.732  0.00  0.00    +0.000 C 
ATOM     17  O   UNL     1       6.237   4.112  19.061  0.00  0.00    +0.000 OA
ATOM     18  C   UNL     1       4.289   4.935  17.769  0.00  0.00    +0.000 C 
BRANCH  18  19
ATOM     19  C   UNL     1       5.094   6.074  17.271  0.00  0.00    +0.000 A 
ATOM     20  N   UNL     1       5.266   6.407  15.956  0.00  0.00    +0.000 NA
ATOM     21  N   UNL     1       6.125   7.418  15.938  0.00  0.00    +0.000 NA
ATOM     22  N   UNL     1       6.435   7.627  17.221  0.00  0.00    +0.000 N 
ATOM     23  N   UNL     1       5.821   6.839  18.112  0.00  0.00    +0.000 NA
ATOM     24  H   UNL     1       7.111   8.333  17.505  0.00  0.00    +0.000 HD
ENDBRANCH  18  19
ENDBRANCH   4   7
BRANCH   1  25
ATOM     25  C   UNL     1       1.818  10.975  18.706  0.00  0.00    +0.000 C 
BRANCH  25  36
ATOM     26  C   UNL     1       0.635  12.593  20.290  0.00  0.00    +0.000 A 
ATOM     27  N   UNL     1      -0.606  12.922  20.600  0.00  0.00    +0.000 NA
ATOM     28  C   UNL     1      -1.403  12.213  19.743  0.00  0.00    +0.000 A 
ATOM     29  C   UNL     1      -2.794  12.238  19.567  0.00  0.00    +0.000 A 
ATOM     30  C   UNL     1      -3.718  13.063  20.407  0.00  0.00    +0.000 C 
ATOM     31  C   UNL     1      -3.289  11.447  18.517  0.00  0.00    +0.000 A 
ATOM     32  C   UNL     1      -2.415  10.691  17.725  0.00  0.00    +0.000 A 
ATOM     33  C   UNL     1      -2.965   9.892  16.575  0.00  0.00    +0.000 C 
ATOM     34  N   UNL     1      -1.070  10.627  17.903  0.00  0.00    +0.000 NA
ATOM     35  C   UNL     1      -0.639  11.395  18.923  0.00  0.00    +0.000 A 
ATOM     36  N   UNL     1       0.658  11.566  19.356  0.00  0.00    +0.000 N 
BRANCH  26  38
ATOM     37  C   UNL     1       2.081  14.615  20.098  0.00  0.00    +0.000 C 
ATOM     38  C   UNL     1       1.825  13.308  20.841  0.00  0.00    +0.000 C 
ENDBRANCH  26  38
ENDBRANCH  25  36
ENDBRANCH   1  25
TORSDOF 5
ENDMDL
MODEL 8
REMARK VINA RESULT:      -7.6      2.556      4.236
REMARK  Name = 
REMARK  9 active torsions:
REMARK  status: ('A' for Active; 'I' for Inactive)
REMARK    1  A    between atoms: C_1  and  C_2
REMARK    2  A    between atoms: C_2  and  C_3
REMARK    3  A    between atoms: C_6  and  C_7
REMARK    4  A    between atoms: C_9  and  C_10
REMARK    5  A    between atoms: N_13  and  C_14
REMARK    6  A    between atoms: C_14  and  C_15
REMARK    7  A    between atoms: C_18  and  C_19
REMARK    8  A    between atoms: N_26  and  C_27
REMARK    9  A    between atoms: C_30  and  C_31
REMARK                            x       y       z     vdW  Elec       q    Type
REMARK                         _______ _______ _______ _____ _____    ______ ____
ROOT
ATOM      1  C   UNL     1       1.182   9.512  18.232  0.00  0.00    +0.000 A 
ATOM      2  C   UNL     1      -0.053   8.988  17.816  0.00  0.00    +0.000 A 
ATOM      3  C   UNL     1      -1.244   9.730  17.940  0.00  0.00    +0.000 A 
ATOM      4  C   UNL     1      -1.229  11.025  18.467  0.00  0.00    +0.000 A 
ATOM      5  C   UNL     1       0.014  11.590  18.787  0.00  0.00    +0.000 A 
ATOM      6  C   UNL     1       1.204  10.845  18.669  0.00  0.00    +0.000 A 
ENDROOT
BRANCH   4   7
ATOM      7  C   UNL     1      -2.483  11.743  18.801  0.00  0.00    +0.000 C 
ATOM      8  C   UNL     1      -2.694  12.350  20.000  0.00  0.00    +0.000 C 
ATOM      9  C   UNL     1      -1.838  12.259  21.171  0.00  0.00    +0.000 C 
ATOM     10  C   UNL     1      -2.121  12.909  22.312  0.00  0.00    +0.000 C 
ATOM     11  C   UNL     1      -3.263  13.783  22.442  0.00  0.00    +0.000 C 
ATOM     12  C   UNL     1      -4.154  13.886  21.447  0.00  0.00    +0.000 C 
ATOM     13  C   UNL     1      -3.990  13.156  20.147  0.00  0.00    +0.000 C 
ATOM     14  N   UNL     1      -5.083  12.250  19.796  0.00  0.00    +0.000 N 
ATOM     15  C   UNL     1      -6.143  11.881  20.717  0.00  0.00    +0.000 C 
ATOM     16  C   UNL     1      -4.959  11.537  18.575  0.00  0.00    +0.000 C 
ATOM     17  O   UNL     1      -5.831  10.757  18.192  0.00  0.00    +0.000 OA
ATOM     18  C   UNL     1      -3.642  11.849  17.797  0.00  0.00    +0.000 C 
BRANCH  18  19
ATOM     19  C   UNL     1      -3.493  11.105  16.525  0.00  0.00    +0.000 A 
ATOM     20  N   UNL     1      -3.047  11.634  15.345  0.00  0.00    +0.000 NA
ATOM     21  N   UNL     1      -3.156  10.668  14.441  0.00  0.00    +0.000 NA
ATOM     22  N   UNL     1      -3.672   9.631  15.107  0.00  0.00    +0.000 N 
ATOM     23  N   UNL     1      -3.895   9.822  16.414  0.00  0.00    +0.000 NA
ATOM     24  H   UNL     1      -3.897   8.752  14.647  0.00  0.00    +0.000 HD
ENDBRANCH  18  19
ENDBRANCH   4   7
BRANCH   1  25
ATOM     25  C   UNL     1       2.403   8.615  18.367  0.00  0.00    +0.000 C 
BRANCH  25  36
ATOM     26  C   UNL     1       1.725   7.604  20.613  0.00  0.00    +0.000 A 
ATOM     27  N   UNL     1       1.767   6.423  21.203  0.00  0.00    +0.000 NA
ATOM     28  C   UNL     1       2.247   5.554  20.262  0.00  0.00    +0.000 A 
ATOM     29  C   UNL     1       2.416   4.162  20.312  0.00  0.00    +0.000 A 
ATOM     30  C   UNL     1       2.141   3.342  21.533  0.00  0.00    +0.000 C 
ATOM     31  C   UNL     1       2.844   3.558  19.119  0.00  0.00    +0.000 A 
ATOM     32  C   UNL     1       3.083   4.332  17.976  0.00  0.00    +0.000 A 
ATOM     33  C   UNL     1       3.493   3.655  16.698  0.00  0.00    +0.000 C 
ATOM     34  N   UNL     1       2.958   5.683  17.919  0.00  0.00    +0.000 NA
ATOM     35  C   UNL     1       2.552   6.223  19.085  0.00  0.00    +0.000 A 
ATOM     36  N   UNL     1       2.316   7.553  19.358  0.00  0.00    +0.000 N 
BRANCH  26  38
ATOM     37  C   UNL     1      -0.398   8.489  21.575  0.00  0.00    +0.000 C 
ATOM     38  C   UNL     1       1.055   8.791  21.223  0.00  0.00    +0.000 C 
ENDBRANCH  26  38
ENDBRANCH  25  36
ENDBRANCH   1  25
TORSDOF 5
ENDMDL
MODEL 9
REMARK VINA RESULT:      -7.4      2.964      9.238
REMARK  Name = 
REMARK  9 active torsions:
REMARK  status: ('A' for Active; 'I' for Inactive)
REMARK    1  A    between atoms: C_1  and  C_2
REMARK    2  A    between atoms: C_2  and  C_3
REMARK    3  A    between atoms: C_6  and  C_7
REMARK    4  A    between atoms: C_9  and  C_10
REMARK    5  A    between atoms: N_13  and  C_14
REMARK    6  A    between atoms: C_14  and  C_15
REMARK    7  A    between atoms: C_18  and  C_19
REMARK    8  A    between atoms: N_26  and  C_27
REMARK    9  A    between atoms: C_30  and  C_31
REMARK                            x       y       z     vdW  Elec       q    Type
REMARK                         _______ _______ _______ _____ _____    ______ ____
ROOT
ATOM      1  C   UNL     1       1.664   9.680  18.541  0.00  0.00    +0.000 A 
ATOM      2  C   UNL     1       1.547   8.871  19.684  0.00  0.00    +0.000 A 
ATOM      3  C   UNL     1       2.048   7.554  19.705  0.00  0.00    +0.000 A 
ATOM      4  C   UNL     1       2.695   7.016  18.589  0.00  0.00    +0.000 A 
ATOM      5  C   UNL     1       2.903   7.854  17.483  0.00  0.00    +0.000 A 
ATOM      6  C   UNL     1       2.397   9.168  17.459  0.00  0.00    +0.000 A 
ENDROOT
BRANCH   4   7
ATOM      7  C   UNL     1       3.041   5.576  18.510  0.00  0.00    +0.000 C 
ATOM      8  C   UNL     1       2.279   4.597  19.067  0.00  0.00    +0.000 C 
ATOM      9  C   UNL     1       1.135   4.792  19.942  0.00  0.00    +0.000 C 
ATOM     10  C   UNL     1       0.431   3.760  20.433  0.00  0.00    +0.000 C 
ATOM     11  C   UNL     1       0.722   2.388  20.088  0.00  0.00    +0.000 C 
ATOM     12  C   UNL     1       1.796   2.092  19.343  0.00  0.00    +0.000 C 
ATOM     13  C   UNL     1       2.705   3.150  18.792  0.00  0.00    +0.000 C 
ATOM     14  N   UNL     1       4.106   3.047  19.199  0.00  0.00    +0.000 N 
ATOM     15  C   UNL     1       4.571   2.148  20.241  0.00  0.00    +0.000 C 
ATOM     16  C   UNL     1       4.994   4.035  18.702  0.00  0.00    +0.000 C 
ATOM     17  O   UNL     1       6.192   4.027  18.984  0.00  0.00    +0.000 OA
ATOM     18  C   UNL     1       4.305   5.092  17.781  0.00  0.00    +0.000 C 
BRANCH  18  19
ATOM     19  C   UNL     1       5.219   6.136  17.263  0.00  0.00    +0.000 A 
ATOM     20  N   UNL     1       5.336   6.504  15.950  0.00  0.00    +0.000 NA
ATOM     21  N   UNL     1       6.321   7.392  15.900  0.00  0.00    +0.000 NA
ATOM     22  N   UNL     1       6.751   7.498  17.161  0.00  0.00    +0.000 N 
ATOM     23  N   UNL     1       6.103   6.758  18.070  0.00  0.00    +0.000 NA
ATOM     24  H   UNL     1       7.535   8.095  17.416  0.00  0.00    +0.000 HD
ENDBRANCH  18  19
ENDBRANCH   4   7
BRANCH   1  25
ATOM     25  C   UNL     1       0.877  10.976  18.420  0.00  0.00    +0.000 C 
BRANCH  25  36
ATOM     26  C   UNL     1      -1.064  11.349  20.038  0.00  0.00    +0.000 A 
ATOM     27  N   UNL     1      -2.379  11.221  20.029  0.00  0.00    +0.000 NA
ATOM     28  C   UNL     1      -2.709  10.861  18.751  0.00  0.00    +0.000 A 
ATOM     29  C   UNL     1      -3.965  10.675  18.155  0.00  0.00    +0.000 A 
ATOM     30  C   UNL     1      -5.258  10.783  18.904  0.00  0.00    +0.000 C 
ATOM     31  C   UNL     1      -3.951  10.401  16.778  0.00  0.00    +0.000 A 
ATOM     32  C   UNL     1      -2.738  10.318  16.083  0.00  0.00    +0.000 A 
ATOM     33  C   UNL     1      -2.752  10.072  14.600  0.00  0.00    +0.000 C 
ATOM     34  N   UNL     1      -1.512  10.460  16.650  0.00  0.00    +0.000 NA
ATOM     35  C   UNL     1      -1.570  10.716  17.972  0.00  0.00    +0.000 A 
ATOM     36  N   UNL     1      -0.517  10.925  18.835  0.00  0.00    +0.000 N 
BRANCH  26  38
ATOM     37  C   UNL     1      -0.809  11.389  22.517  0.00  0.00    +0.000 C 
ATOM     38  C   UNL     1      -0.316  11.943  21.185  0.00  0.00    +0.000 C 
ENDBRANCH  26  38
ENDBRANCH  25  36
ENDBRANCH   1  25
TORSDOF 5
ENDMDL
