MODEL 1
REMARK VINA RESULT:      -7.8      0.000      0.000
REMARK  Name = 
REMARK  3 active torsions:
REMARK  status: ('A' for Active; 'I' for Inactive)
REMARK    1  A    between atoms: O_1  and  C_2
REMARK    2  A    between atoms: C_5  and  C_6
REMARK    3  A    between atoms: C_11  and  O_12
REMARK                            x       y       z     vdW  Elec       q    Type
REMARK                         _______ _______ _______ _____ _____    ______ ____
ROOT
ATOM      1  C   UNL     1       3.502   5.195  17.975  0.00  0.00    +0.000 A 
ATOM      2  N   UNL     1       3.454   6.405  18.554  0.00  0.00    +0.000 NA
ATOM      3  N   UNL     1       2.320   6.273  19.203  0.00  0.00    +0.000 N 
ATOM      4  C   UNL     1       2.306   4.959  19.580  0.00  0.00    +0.000 A 
ATOM      5  C   UNL     1       2.429   4.336  20.835  0.00  0.00    +0.000 A 
ATOM      6  C   UNL     1       1.635   3.229  21.024  0.00  0.00    +0.000 A 
ATOM      7  C   UNL     1       0.798   2.905  20.005  0.00  0.00    +0.000 A 
ATOM      8  C   UNL     1       1.100   3.436  18.666  0.00  0.00    +0.000 A 
ATOM      9  C   UNL     1       2.260   4.278  18.315  0.00  0.00    +0.000 A 
ATOM     10  H   UNL     1       1.534   6.743  18.742  0.00  0.00    +0.000 HD
ENDROOT
BRANCH   1  14
ATOM     11  C   UNL     1       6.957   5.112  15.282  0.00  0.00    +0.000 A 
ATOM     12  C   UNL     1       5.933   4.200  15.087  0.00  0.00    +0.000 A 
ATOM     13  C   UNL     1       4.888   4.117  16.058  0.00  0.00    +0.000 A 
ATOM     14  C   UNL     1       4.836   4.964  17.229  0.00  0.00    +0.000 A 
ATOM     15  C   UNL     1       5.931   5.777  17.421  0.00  0.00    +0.000 A 
ATOM     16  C   UNL     1       6.951   5.879  16.442  0.00  0.00    +0.000 A 
BRANCH  11  17
ATOM     17  O   UNL     1       7.949   5.358  14.374  0.00  0.00    +0.000 OA
ATOM     18  H   UNL     1       8.533   6.080  14.659  0.00  0.00    +0.000 HD
ENDBRANCH  11  17
ENDBRANCH   1  14
BRANCH   6  19
ATOM     19  O   UNL     1       1.591   2.614  22.231  0.00  0.00    +0.000 OA
ATOM     20  H   UNL     1       2.398   2.068  22.318  0.00  0.00    +0.000 HD
ENDBRANCH   6  19
TORSDOF 3
ENDMDL
MODEL 2
REMARK VINA RESULT:      -7.5      2.463      6.026
REMARK  Name = 
REMARK  3 active torsions:
REMARK  status: ('A' for Active; 'I' for Inactive)
REMARK    1  A    between atoms: O_1  and  C_2
REMARK    2  A    between atoms: C_5  and  C_6
REMARK    3  A    between atoms: C_11  and  O_12
REMARK                            x       y       z     vdW  Elec       q    Type
REMARK                         _______ _______ _______ _____ _____    ______ ____
ROOT
ATOM      1  C   UNL     1       4.621   4.277  16.797  0.00  0.00    +0.000 A 
ATOM      2  N   UNL     1       5.385   3.248  16.400  0.00  0.00    +0.000 NA
ATOM      3  N   UNL     1       6.475   3.913  16.091  0.00  0.00    +0.000 N 
ATOM      4  C   UNL     1       6.518   4.922  17.012  0.00  0.00    +0.000 A 
ATOM      5  C   UNL     1       7.372   5.169  18.102  0.00  0.00    +0.000 A 
ATOM      6  C   UNL     1       7.698   6.489  18.309  0.00  0.00    +0.000 A 
ATOM      7  C   UNL     1       7.201   7.381  17.413  0.00  0.00    +0.000 A 
ATOM      8  C   UNL     1       6.042   6.976  16.602  0.00  0.00    +0.000 A 
ATOM      9  C   UNL     1       5.340   5.681  16.691  0.00  0.00    +0.000 A 
ATOM     10  H   UNL     1       6.588   4.057  15.082  0.00  0.00    +0.000 HD
ENDROOT
BRANCH   1  14
ATOM     11  C   UNL     1       1.207   3.011  19.234  0.00  0.00    +0.000 A 
ATOM     12  C   UNL     1       2.088   2.050  18.763  0.00  0.00    +0.000 A 
ATOM     13  C   UNL     1       3.103   2.440  17.837  0.00  0.00    +0.000 A 
ATOM     14  C   UNL     1       3.272   3.802  17.385  0.00  0.00    +0.000 A 
ATOM     15  C   UNL     1       2.307   4.690  17.805  0.00  0.00    +0.000 A 
ATOM     16  C   UNL     1       1.319   4.309  18.747  0.00  0.00    +0.000 A 
BRANCH  11  17
ATOM     17  O   UNL     1       0.267   2.782  20.199  0.00  0.00    +0.000 OA
ATOM     18  H   UNL     1      -0.211   1.949  20.052  0.00  0.00    +0.000 HD
ENDBRANCH  11  17
ENDBRANCH   1  14
BRANCH   6  19
ATOM     19  O   UNL     1       8.599   6.833  19.262  0.00  0.00    +0.000 OA
ATOM     20  H   UNL     1       8.918   6.008  19.682  0.00  0.00    +0.000 HD
ENDBRANCH   6  19
TORSDOF 3
ENDMDL
MODEL 3
REMARK VINA RESULT:      -7.4      0.960      1.212
REMARK  Name = 
REMARK  3 active torsions:
REMARK  status: ('A' for Active; 'I' for Inactive)
REMARK    1  A    between atoms: O_1  and  C_2
REMARK    2  A    between atoms: C_5  and  C_6
REMARK    3  A    between atoms: C_11  and  O_12
REMARK                            x       y       z     vdW  Elec       q    Type
REMARK                         _______ _______ _______ _____ _____    ______ ____
ROOT
ATOM      1  C   UNL     1       3.259   5.763  18.568  0.00  0.00    +0.000 A 
ATOM      2  N   UNL     1       3.066   6.852  19.327  0.00  0.00    +0.000 NA
ATOM      3  N   UNL     1       1.949   6.492  19.917  0.00  0.00    +0.000 N 
ATOM      4  C   UNL     1       2.084   5.142  20.083  0.00  0.00    +0.000 A 
ATOM      5  C   UNL     1       2.268   4.345  21.229  0.00  0.00    +0.000 A 
ATOM      6  C   UNL     1       1.606   3.140  21.221  0.00  0.00    +0.000 A 
ATOM      7  C   UNL     1       0.821   2.889  20.141  0.00  0.00    +0.000 A 
ATOM      8  C   UNL     1       1.070   3.656  18.910  0.00  0.00    +0.000 A 
ATOM      9  C   UNL     1       2.128   4.669  18.727  0.00  0.00    +0.000 A 
ATOM     10  H   UNL     1       1.118   6.937  19.515  0.00  0.00    +0.000 HD
ENDROOT
BRANCH   1  14
ATOM     11  C   UNL     1       6.877   5.085  16.192  0.00  0.00    +0.000 A 
ATOM     12  C   UNL     1       6.870   4.708  17.525  0.00  0.00    +0.000 A 
ATOM     13  C   UNL     1       5.756   5.075  18.340  0.00  0.00    +0.000 A 
ATOM     14  C   UNL     1       4.617   5.805  17.830  0.00  0.00    +0.000 A 
ATOM     15  C   UNL     1       4.727   6.241  16.529  0.00  0.00    +0.000 A 
ATOM     16  C   UNL     1       5.818   5.850  15.713  0.00  0.00    +0.000 A 
BRANCH  11  17
ATOM     17  O   UNL     1       7.831   4.703  15.291  0.00  0.00    +0.000 OA
ATOM     18  H   UNL     1       7.587   4.939  14.380  0.00  0.00    +0.000 HD
ENDBRANCH  11  17
ENDBRANCH   1  14
BRANCH   6  19
ATOM     19  O   UNL     1       1.623   2.341  22.316  0.00  0.00    +0.000 OA
ATOM     20  H   UNL     1       2.038   2.844  23.045  0.00  0.00    +0.000 HD
ENDBRANCH   6  19
TORSDOF 3
ENDMDL
MODEL 4
REMARK VINA RESULT:      -7.4      2.564      2.895
REMARK  Name = 
REMARK  3 active torsions:
REMARK  status: ('A' for Active; 'I' for Inactive)
REMARK    1  A    between atoms: O_1  and  C_2
REMARK    2  A    between atoms: C_5  and  C_6
REMARK    3  A    between atoms: C_11  and  O_12
REMARK                            x       y       z     vdW  Elec       q    Type
REMARK                         _______ _______ _______ _____ _____    ______ ____
ROOT
ATOM      1  C   UNL     1       4.715   4.085  19.455  0.00  0.00    +0.000 A 
ATOM      2  N   UNL     1       5.308   2.933  19.798  0.00  0.00    +0.000 NA
ATOM      3  N   UNL     1       4.295   2.356  20.404  0.00  0.00    +0.000 N 
ATOM      4  C   UNL     1       3.205   2.771  19.691  0.00  0.00    +0.000 A 
ATOM      5  C   UNL     1       2.328   2.091  18.827  0.00  0.00    +0.000 A 
ATOM      6  C   UNL     1       1.008   2.470  18.910  0.00  0.00    +0.000 A 
ATOM      7  C   UNL     1       0.706   3.409  19.844  0.00  0.00    +0.000 A 
ATOM      8  C   UNL     1       1.799   4.251  20.357  0.00  0.00    +0.000 A 
ATOM      9  C   UNL     1       3.209   4.189  19.925  0.00  0.00    +0.000 A 
ATOM     10  H   UNL     1       4.358   2.399  21.426  0.00  0.00    +0.000 HD
ENDROOT
BRANCH   1  14
ATOM     11  C   UNL     1       7.045   7.221  17.472  0.00  0.00    +0.000 A 
ATOM     12  C   UNL     1       5.757   6.964  17.032  0.00  0.00    +0.000 A 
ATOM     13  C   UNL     1       5.058   5.838  17.565  0.00  0.00    +0.000 A 
ATOM     14  C   UNL     1       5.625   4.963  18.567  0.00  0.00    +0.000 A 
ATOM     15  C   UNL     1       6.942   5.207  18.888  0.00  0.00    +0.000 A 
ATOM     16  C   UNL     1       7.624   6.342  18.382  0.00  0.00    +0.000 A 
BRANCH  11  17
ATOM     17  O   UNL     1       7.771   8.323  17.118  0.00  0.00    +0.000 OA
ATOM     18  H   UNL     1       7.221   9.001  16.691  0.00  0.00    +0.000 HD
ENDBRANCH  11  17
ENDBRANCH   1  14
BRANCH   6  19
ATOM     19  O   UNL     1       0.059   1.808  18.204  0.00  0.00    +0.000 OA
ATOM     20  H   UNL     1      -0.812   2.171  18.462  0.00  0.00    +0.000 HD
ENDBRANCH   6  19
TORSDOF 3
ENDMDL
MODEL 5
REMARK VINA RESULT:      -7.3      1.951      2.308
REMARK  Name = 
REMARK  3 active torsions:
REMARK  status: ('A' for Active; 'I' for Inactive)
REMARK    1  A    between atoms: O_1  and  C_2
REMARK    2  A    between atoms: C_5  and  C_6
REMARK    3  A    between atoms: C_11  and  O_12
REMARK                            x       y       z     vdW  Elec       q    Type
REMARK                         _______ _______ _______ _____ _____    ______ ____
ROOT
ATOM      1  C   UNL     1       4.791   4.282  18.994  0.00  0.00    +0.000 A 
ATOM      2  N   UNL     1       5.367   3.143  19.406  0.00  0.00    +0.000 NA
ATOM      3  N   UNL     1       4.499   2.800  20.330  0.00  0.00    +0.000 N 
ATOM      4  C   UNL     1       3.298   3.213  19.823  0.00  0.00    +0.000 A 
ATOM      5  C   UNL     1       2.186   2.503  19.335  0.00  0.00    +0.000 A 
ATOM      6  C   UNL     1       0.960   3.041  19.647  0.00  0.00    +0.000 A 
ATOM      7  C   UNL     1       0.969   4.154  20.425  0.00  0.00    +0.000 A 
ATOM      8  C   UNL     1       2.213   4.938  20.498  0.00  0.00    +0.000 A 
ATOM      9  C   UNL     1       3.462   4.639  19.771  0.00  0.00    +0.000 A 
ATOM     10  H   UNL     1       4.818   3.008  21.282  0.00  0.00    +0.000 HD
ENDROOT
BRANCH   1  14
ATOM     11  C   UNL     1       6.749   5.180  15.179  0.00  0.00    +0.000 A 
ATOM     12  C   UNL     1       7.523   4.752  16.245  0.00  0.00    +0.000 A 
ATOM     13  C   UNL     1       6.914   4.616  17.529  0.00  0.00    +0.000 A 
ATOM     14  C   UNL     1       5.512   4.883  17.766  0.00  0.00    +0.000 A 
ATOM     15  C   UNL     1       4.820   5.402  16.695  0.00  0.00    +0.000 A 
ATOM     16  C   UNL     1       5.418   5.507  15.414  0.00  0.00    +0.000 A 
BRANCH  11  17
ATOM     17  O   UNL     1       7.191   5.245  13.887  0.00  0.00    +0.000 OA
ATOM     18  H   UNL     1       8.046   4.798  13.771  0.00  0.00    +0.000 HD
ENDBRANCH  11  17
ENDBRANCH   1  14
BRANCH   6  19
ATOM     19  O   UNL     1      -0.181   2.385  19.322  0.00  0.00    +0.000 OA
ATOM     20  H   UNL     1      -0.056   1.992  18.434  0.00  0.00    +0.000 HD
ENDBRANCH   6  19
TORSDOF 3
ENDMDL
MODEL 6
REMARK VINA RESULT:      -7.3      3.536      6.173
REMARK  Name = 
REMARK  3 active torsions:
REMARK  status: ('A' for Active; 'I' for Inactive)
REMARK    1  A    between atoms: O_1  and  C_2
REMARK    2  A    between atoms: C_5  and  C_6
REMARK    3  A    between atoms: C_11  and  O_12
REMARK                            x       y       z     vdW  Elec       q    Type
REMARK                         _______ _______ _______ _____ _____    ______ ____
ROOT
ATOM      1  C   UNL     1       3.598   6.550  17.864  0.00  0.00    +0.000 A 
ATOM      2  N   UNL     1       3.230   5.266  17.738  0.00  0.00    +0.000 NA
ATOM      3  N   UNL     1       4.389   4.756  17.389  0.00  0.00    +0.000 N 
ATOM      4  C   UNL     1       5.299   5.494  18.094  0.00  0.00    +0.000 A 
ATOM      5  C   UNL     1       6.138   5.173  19.177  0.00  0.00    +0.000 A 
ATOM      6  C   UNL     1       7.388   5.745  19.144  0.00  0.00    +0.000 A 
ATOM      7  C   UNL     1       7.677   6.503  18.054  0.00  0.00    +0.000 A 
ATOM      8  C   UNL     1       6.556   7.017  17.251  0.00  0.00    +0.000 A 
ATOM      9  C   UNL     1       5.123   6.808  17.539  0.00  0.00    +0.000 A 
ATOM     10  H   UNL     1       4.462   4.570  16.384  0.00  0.00    +0.000 HD
ENDROOT
BRANCH   1  14
ATOM     11  C   UNL     1       1.015   9.523  19.784  0.00  0.00    +0.000 A 
ATOM     12  C   UNL     1       1.385   8.395  20.498  0.00  0.00    +0.000 A 
ATOM     13  C   UNL     1       2.088   7.351  19.824  0.00  0.00    +0.000 A 
ATOM     14  C   UNL     1       2.456   7.426  18.428  0.00  0.00    +0.000 A 
ATOM     15  C   UNL     1       1.973   8.522  17.747  0.00  0.00    +0.000 A 
ATOM     16  C   UNL     1       1.302   9.571  18.424  0.00  0.00    +0.000 A 
BRANCH  11  17
ATOM     17  O   UNL     1       0.437  10.629  20.341  0.00  0.00    +0.000 OA
ATOM     18  H   UNL     1       1.098  11.283  20.623  0.00  0.00    +0.000 HD
ENDBRANCH  11  17
ENDBRANCH   1  14
BRANCH   6  19
ATOM     19  O   UNL     1       8.316   5.421  20.077  0.00  0.00    +0.000 OA
ATOM     20  H   UNL     1       7.916   4.760  20.678  0.00  0.00    +0.000 HD
ENDBRANCH   6  19
TORSDOF 3
ENDMDL
MODEL 7
REMARK VINA RESULT:      -7.2      2.468      3.000
REMARK  Name = 
REMARK  3 active torsions:
REMARK  status: ('A' for Active; 'I' for Inactive)
REMARK    1  A    between atoms: O_1  and  C_2
REMARK    2  A    between atoms: C_5  and  C_6
REMARK    3  A    between atoms: C_11  and  O_12
REMARK                            x       y       z     vdW  Elec       q    Type
REMARK                         _______ _______ _______ _____ _____    ______ ____
ROOT
ATOM      1  C   UNL     1       4.543   4.132  19.777  0.00  0.00    +0.000 A 
ATOM      2  N   UNL     1       5.237   2.985  19.822  0.00  0.00    +0.000 NA
ATOM      3  N   UNL     1       4.294   2.196  20.285  0.00  0.00    +0.000 N 
ATOM      4  C   UNL     1       3.151   2.676  19.710  0.00  0.00    +0.000 A 
ATOM      5  C   UNL     1       2.299   2.152  18.720  0.00  0.00    +0.000 A 
ATOM      6  C   UNL     1       0.958   2.386  18.912  0.00  0.00    +0.000 A 
ATOM      7  C   UNL     1       0.616   3.045  20.050  0.00  0.00    +0.000 A 
ATOM      8  C   UNL     1       1.656   3.829  20.735  0.00  0.00    +0.000 A 
ATOM      9  C   UNL     1       3.051   3.992  20.280  0.00  0.00    +0.000 A 
ATOM     10  H   UNL     1       4.389   1.997  21.286  0.00  0.00    +0.000 HD
ENDROOT
BRANCH   1  14
ATOM     11  C   UNL     1       7.172   6.717  17.411  0.00  0.00    +0.000 A 
ATOM     12  C   UNL     1       7.646   6.188  18.600  0.00  0.00    +0.000 A 
ATOM     13  C   UNL     1       6.741   5.482  19.451  0.00  0.00    +0.000 A 
ATOM     14  C   UNL     1       5.350   5.271  19.114  0.00  0.00    +0.000 A 
ATOM     15  C   UNL     1       4.914   5.906  17.973  0.00  0.00    +0.000 A 
ATOM     16  C   UNL     1       5.820   6.580  17.115  0.00  0.00    +0.000 A 
BRANCH  11  17
ATOM     17  O   UNL     1       7.961   7.316  16.470  0.00  0.00    +0.000 OA
ATOM     18  H   UNL     1       7.437   7.715  15.755  0.00  0.00    +0.000 HD
ENDBRANCH  11  17
ENDBRANCH   1  14
BRANCH   6  19
ATOM     19  O   UNL     1       0.039   1.836  18.081  0.00  0.00    +0.000 OA
ATOM     20  H   UNL     1      -0.553   2.552  17.775  0.00  0.00    +0.000 HD
ENDBRANCH   6  19
TORSDOF 3
ENDMDL
MODEL 8
REMARK VINA RESULT:      -7.2      1.282      6.129
REMARK  Name = 
REMARK  3 active torsions:
REMARK  status: ('A' for Active; 'I' for Inactive)
REMARK    1  A    between atoms: O_1  and  C_2
REMARK    2  A    between atoms: C_5  and  C_6
REMARK    3  A    between atoms: C_11  and  O_12
REMARK                            x       y       z     vdW  Elec       q    Type
REMARK                         _______ _______ _______ _____ _____    ______ ____
ROOT
ATOM      1  C   UNL     1       4.128   5.818  17.806  0.00  0.00    +0.000 A 
ATOM      2  N   UNL     1       3.822   6.955  17.163  0.00  0.00    +0.000 NA
ATOM      3  N   UNL     1       4.917   7.085  16.450  0.00  0.00    +0.000 N 
ATOM      4  C   UNL     1       5.265   5.799  16.143  0.00  0.00    +0.000 A 
ATOM      5  C   UNL     1       5.253   5.081  14.933  0.00  0.00    +0.000 A 
ATOM      6  C   UNL     1       6.305   4.215  14.751  0.00  0.00    +0.000 A 
ATOM      7  C   UNL     1       7.247   4.194  15.730  0.00  0.00    +0.000 A 
ATOM      8  C   UNL     1       6.878   4.716  17.056  0.00  0.00    +0.000 A 
ATOM      9  C   UNL     1       5.553   5.242  17.436  0.00  0.00    +0.000 A 
ATOM     10  H   UNL     1       5.569   7.776  16.834  0.00  0.00    +0.000 HD
ENDROOT
BRANCH   1  14
ATOM     11  C   UNL     1       1.282   3.628  20.316  0.00  0.00    +0.000 A 
ATOM     12  C   UNL     1       1.231   3.461  18.942  0.00  0.00    +0.000 A 
ATOM     13  C   UNL     1       2.044   4.293  18.115  0.00  0.00    +0.000 A 
ATOM     14  C   UNL     1       2.943   5.292  18.649  0.00  0.00    +0.000 A 
ATOM     15  C   UNL     1       2.874   5.483  20.011  0.00  0.00    +0.000 A 
ATOM     16  C   UNL     1       2.090   4.636  20.833  0.00  0.00    +0.000 A 
BRANCH  11  17
ATOM     17  O   UNL     1       0.635   2.824  21.212  0.00  0.00    +0.000 OA
ATOM     18  H   UNL     1       1.067   1.959  21.304  0.00  0.00    +0.000 HD
ENDBRANCH  11  17
ENDBRANCH   1  14
BRANCH   6  19
ATOM     19  O   UNL     1       6.455   3.553  13.577  0.00  0.00    +0.000 OA
ATOM     20  H   UNL     1       5.579   3.513  13.144  0.00  0.00    +0.000 HD
ENDBRANCH   6  19
TORSDOF 3
ENDMDL
MODEL 9
REMARK VINA RESULT:      -7.2      2.544      6.094
REMARK  Name = 
REMARK  3 active torsions:
REMARK  status: ('A' for Active; 'I' for Inactive)
REMARK    1  A    between atoms: O_1  and  C_2
REMARK    2  A    between atoms: C_5  and  C_6
REMARK    3  A    between atoms: C_11  and  O_12
REMARK                            x       y       z     vdW  Elec       q    Type
REMARK                         _______ _______ _______ _____ _____    ______ ____
ROOT
ATOM      1  C   UNL     1       4.225   5.074  18.250  0.00  0.00    +0.000 A 
ATOM      2  N   UNL     1       5.106   4.919  19.249  0.00  0.00    +0.000 NA
ATOM      3  N   UNL     1       5.986   4.167  18.628  0.00  0.00    +0.000 N 
ATOM      4  C   UNL     1       5.969   4.632  17.342  0.00  0.00    +0.000 A 
ATOM      5  C   UNL     1       6.913   5.352  16.587  0.00  0.00    +0.000 A 
ATOM      6  C   UNL     1       7.001   4.997  15.261  0.00  0.00    +0.000 A 
ATOM      7  C   UNL     1       6.211   3.968  14.858  0.00  0.00    +0.000 A 
ATOM      8  C   UNL     1       5.045   3.624  15.687  0.00  0.00    +0.000 A 
ATOM      9  C   UNL     1       4.631   4.320  16.921  0.00  0.00    +0.000 A 
ATOM     10  H   UNL     1       5.915   3.175  18.876  0.00  0.00    +0.000 HD
ENDROOT
BRANCH   1  14
ATOM     11  C   UNL     1       1.659   8.286  19.764  0.00  0.00    +0.000 A 
ATOM     12  C   UNL     1       1.753   7.107  20.485  0.00  0.00    +0.000 A 
ATOM     13  C   UNL     1       2.456   6.003  19.913  0.00  0.00    +0.000 A 
ATOM     14  C   UNL     1       3.099   6.066  18.620  0.00  0.00    +0.000 A 
ATOM     15  C   UNL     1       2.884   7.225  17.908  0.00  0.00    +0.000 A 
ATOM     16  C   UNL     1       2.213   8.331  18.489  0.00  0.00    +0.000 A 
BRANCH  11  17
ATOM     17  O   UNL     1       1.108   9.440  20.248  0.00  0.00    +0.000 OA
ATOM     18  H   UNL     1       0.613   9.922  19.565  0.00  0.00    +0.000 HD
ENDBRANCH  11  17
ENDBRANCH   1  14
BRANCH   6  19
ATOM     19  O   UNL     1       7.951   5.547  14.465  0.00  0.00    +0.000 OA
ATOM     20  H   UNL     1       8.824   5.276  14.813  0.00  0.00    +0.000 HD
ENDBRANCH   6  19
TORSDOF 3
ENDMDL
