MODEL 1
REMARK VINA RESULT:      -6.9      0.000      0.000
REMARK  Name = 
REMARK  3 active torsions:
REMARK  status: ('A' for Active; 'I' for Inactive)
REMARK    1  A    between atoms: C_1  and  N_2
REMARK    2  A    between atoms: C_19  and  C_20
REMARK    3  A    between atoms: C_19  and  O_21
REMARK                            x       y       z     vdW  Elec       q    Type
REMARK                         _______ _______ _______ _____ _____    ______ ____
ROOT
ATOM      1  C   UNL     1       2.514  10.542  17.839  0.00  0.00    +0.000 C 
ATOM      2  N   UNL     1       2.165   9.130  17.654  0.00  0.00    +0.000 NA
ATOM      3  C   UNL     1       0.952   8.877  18.489  0.00  0.00    +0.000 C 
ATOM      4  C   UNL     1       1.287   8.587  19.973  0.00  0.00    +0.000 C 
ATOM      5  C   UNL     1       1.937   7.237  19.937  0.00  0.00    +0.000 A 
ATOM      6  C   UNL     1       1.494   6.154  20.725  0.00  0.00    +0.000 A 
ATOM      7  C   UNL     1       1.808   4.834  20.369  0.00  0.00    +0.000 A 
ATOM      8  C   UNL     1       2.585   4.644  19.233  0.00  0.00    +0.000 A 
ATOM      9  C   UNL     1       3.088   5.756  18.550  0.00  0.00    +0.000 A 
ATOM     10  C   UNL     1       2.816   7.047  18.870  0.00  0.00    +0.000 A 
ATOM     11  C   UNL     1       3.300   8.189  17.991  0.00  0.00    +0.000 C 
ATOM     12  C   UNL     1       4.140   7.699  16.700  0.00  0.00    +0.000 C 
ATOM     13  C   UNL     1       4.509   6.220  16.606  0.00  0.00    +0.000 A 
ATOM     14  C   UNL     1       5.375   5.616  15.695  0.00  0.00    +0.000 A 
ATOM     15  C   UNL     1       5.526   4.200  15.668  0.00  0.00    +0.000 A 
ATOM     16  C   UNL     1       4.779   3.346  16.505  0.00  0.00    +0.000 A 
ATOM     17  C   UNL     1       3.927   3.936  17.411  0.00  0.00    +0.000 A 
ATOM     18  C   UNL     1       3.878   5.341  17.457  0.00  0.00    +0.000 A 
ATOM     19  C   UNL     1       2.928   3.382  18.435  0.00  0.00    +0.000 C 
ATOM     20  C   UNL     1       3.367   2.180  19.256  0.00  0.00    +0.000 C 
ENDROOT
BRANCH  19  21
ATOM     21  O   UNL     1       1.752   2.985  17.712  0.00  0.00    +0.000 OA
ATOM     22  H   UNL     1       1.961   2.155  17.250  0.00  0.00    +0.000 HD
ENDBRANCH  19  21
TORSDOF 1
ENDMDL
MODEL 2
REMARK VINA RESULT:      -6.7      2.167      5.018
REMARK  Name = 
REMARK  3 active torsions:
REMARK  status: ('A' for Active; 'I' for Inactive)
REMARK    1  A    between atoms: C_1  and  N_2
REMARK    2  A    between atoms: C_19  and  C_20
REMARK    3  A    between atoms: C_19  and  O_21
REMARK                            x       y       z     vdW  Elec       q    Type
REMARK                         _______ _______ _______ _____ _____    ______ ____
ROOT
ATOM      1  C   UNL     1       5.711   4.952  16.612  0.00  0.00    +0.000 C 
ATOM      2  N   UNL     1       5.222   5.685  17.783  0.00  0.00    +0.000 NA
ATOM      3  C   UNL     1       5.376   4.771  18.954  0.00  0.00    +0.000 C 
ATOM      4  C   UNL     1       4.200   3.773  19.104  0.00  0.00    +0.000 C 
ATOM      5  C   UNL     1       3.047   4.635  19.521  0.00  0.00    +0.000 A 
ATOM      6  C   UNL     1       2.277   4.376  20.674  0.00  0.00    +0.000 A 
ATOM      7  C   UNL     1       1.522   5.394  21.274  0.00  0.00    +0.000 A 
ATOM      8  C   UNL     1       1.549   6.648  20.677  0.00  0.00    +0.000 A 
ATOM      9  C   UNL     1       2.241   6.824  19.474  0.00  0.00    +0.000 A 
ATOM     10  C   UNL     1       2.973   5.861  18.858  0.00  0.00    +0.000 A 
ATOM     11  C   UNL     1       3.800   6.179  17.623  0.00  0.00    +0.000 C 
ATOM     12  C   UNL     1       3.699   7.723  17.158  0.00  0.00    +0.000 C 
ATOM     13  C   UNL     1       2.678   8.616  17.859  0.00  0.00    +0.000 A 
ATOM     14  C   UNL     1       2.291   9.907  17.503  0.00  0.00    +0.000 A 
ATOM     15  C   UNL     1       1.404  10.653  18.332  0.00  0.00    +0.000 A 
ATOM     16  C   UNL     1       0.926  10.157  19.562  0.00  0.00    +0.000 A 
ATOM     17  C   UNL     1       1.300   8.881  19.917  0.00  0.00    +0.000 A 
ATOM     18  C   UNL     1       2.107   8.154  19.023  0.00  0.00    +0.000 A 
ATOM     19  C   UNL     1       1.047   8.014  21.158  0.00  0.00    +0.000 C 
ATOM     20  C   UNL     1      -0.354   8.034  21.747  0.00  0.00    +0.000 C 
ENDROOT
BRANCH  19  21
ATOM     21  O   UNL     1       1.938   8.473  22.186  0.00  0.00    +0.000 OA
ATOM     22  H   UNL     1       2.840   8.227  21.921  0.00  0.00    +0.000 HD
ENDBRANCH  19  21
TORSDOF 1
ENDMDL
MODEL 3
REMARK VINA RESULT:      -6.5      1.792      4.674
REMARK  Name = 
REMARK  3 active torsions:
REMARK  status: ('A' for Active; 'I' for Inactive)
REMARK    1  A    between atoms: C_1  and  N_2
REMARK    2  A    between atoms: C_19  and  C_20
REMARK    3  A    between atoms: C_19  and  O_21
REMARK                            x       y       z     vdW  Elec       q    Type
REMARK                         _______ _______ _______ _____ _____    ______ ____
ROOT
ATOM      1  C   UNL     1       6.316   6.242  15.264  0.00  0.00    +0.000 C 
ATOM      2  N   UNL     1       5.901   5.750  16.582  0.00  0.00    +0.000 NA
ATOM      3  C   UNL     1       6.417   4.353  16.698  0.00  0.00    +0.000 C 
ATOM      4  C   UNL     1       5.491   3.307  16.030  0.00  0.00    +0.000 C 
ATOM      5  C   UNL     1       4.283   3.276  16.918  0.00  0.00    +0.000 A 
ATOM      6  C   UNL     1       3.779   2.085  17.482  0.00  0.00    +0.000 A 
ATOM      7  C   UNL     1       2.959   2.123  18.618  0.00  0.00    +0.000 A 
ATOM      8  C   UNL     1       2.650   3.372  19.144  0.00  0.00    +0.000 A 
ATOM      9  C   UNL     1       3.086   4.525  18.483  0.00  0.00    +0.000 A 
ATOM     10  C   UNL     1       3.871   4.528  17.376  0.00  0.00    +0.000 A 
ATOM     11  C   UNL     1       4.406   5.830  16.801  0.00  0.00    +0.000 C 
ATOM     12  C   UNL     1       3.942   7.139  17.627  0.00  0.00    +0.000 C 
ATOM     13  C   UNL     1       2.904   6.957  18.732  0.00  0.00    +0.000 A 
ATOM     14  C   UNL     1       2.228   7.952  19.437  0.00  0.00    +0.000 A 
ATOM     15  C   UNL     1       1.369   7.617  20.522  0.00  0.00    +0.000 A 
ATOM     16  C   UNL     1       1.205   6.290  20.971  0.00  0.00    +0.000 A 
ATOM     17  C   UNL     1       1.864   5.302  20.276  0.00  0.00    +0.000 A 
ATOM     18  C   UNL     1       2.632   5.677  19.159  0.00  0.00    +0.000 A 
ATOM     19  C   UNL     1       1.990   3.784  20.465  0.00  0.00    +0.000 C 
ATOM     20  C   UNL     1       0.728   3.023  20.839  0.00  0.00    +0.000 C 
ENDROOT
BRANCH  19  21
ATOM     21  O   UNL     1       2.939   3.562  21.519  0.00  0.00    +0.000 OA
ATOM     22  H   UNL     1       2.761   2.681  21.889  0.00  0.00    +0.000 HD
ENDBRANCH  19  21
TORSDOF 1
ENDMDL
MODEL 4
REMARK VINA RESULT:      -6.5      1.873      3.853
REMARK  Name = 
REMARK  3 active torsions:
REMARK  status: ('A' for Active; 'I' for Inactive)
REMARK    1  A    between atoms: C_1  and  N_2
REMARK    2  A    between atoms: C_19  and  C_20
REMARK    3  A    between atoms: C_19  and  O_21
REMARK                            x       y       z     vdW  Elec       q    Type
REMARK                         _______ _______ _______ _____ _____    ______ ____
ROOT
ATOM      1  C   UNL     1      -0.273   8.206  21.489  0.00  0.00    +0.000 C 
ATOM      2  N   UNL     1       1.111   7.819  21.199  0.00  0.00    +0.000 NA
ATOM      3  C   UNL     1       1.769   9.013  20.587  0.00  0.00    +0.000 C 
ATOM      4  C   UNL     1       1.500   9.140  19.066  0.00  0.00    +0.000 C 
ATOM      5  C   UNL     1       2.276   8.005  18.468  0.00  0.00    +0.000 A 
ATOM      6  C   UNL     1       3.222   8.186  17.437  0.00  0.00    +0.000 A 
ATOM      7  C   UNL     1       4.221   7.229  17.207  0.00  0.00    +0.000 A 
ATOM      8  C   UNL     1       4.223   6.098  18.014  0.00  0.00    +0.000 A 
ATOM      9  C   UNL     1       3.199   5.917  18.949  0.00  0.00    +0.000 A 
ATOM     10  C   UNL     1       2.210   6.814  19.193  0.00  0.00    +0.000 A 
ATOM     11  C   UNL     1       1.214   6.593  20.320  0.00  0.00    +0.000 C 
ATOM     12  C   UNL     1       1.464   5.225  21.143  0.00  0.00    +0.000 C 
ATOM     13  C   UNL     1       2.507   4.247  20.605  0.00  0.00    +0.000 A 
ATOM     14  C   UNL     1       2.753   2.944  21.035  0.00  0.00    +0.000 A 
ATOM     15  C   UNL     1       3.843   2.197  20.503  0.00  0.00    +0.000 A 
ATOM     16  C   UNL     1       4.749   2.747  19.573  0.00  0.00    +0.000 A 
ATOM     17  C   UNL     1       4.509   4.030  19.139  0.00  0.00    +0.000 A 
ATOM     18  C   UNL     1       3.369   4.693  19.630  0.00  0.00    +0.000 A 
ATOM     19  C   UNL     1       5.259   4.984  18.200  0.00  0.00    +0.000 C 
ATOM     20  C   UNL     1       5.832   4.394  16.921  0.00  0.00    +0.000 C 
ENDROOT
BRANCH  19  21
ATOM     21  O   UNL     1       6.364   5.528  18.939  0.00  0.00    +0.000 OA
ATOM     22  H   UNL     1       6.307   5.181  19.845  0.00  0.00    +0.000 HD
ENDBRANCH  19  21
TORSDOF 1
ENDMDL
MODEL 5
REMARK VINA RESULT:      -6.4      7.637     10.028
REMARK  Name = 
REMARK  3 active torsions:
REMARK  status: ('A' for Active; 'I' for Inactive)
REMARK    1  A    between atoms: C_1  and  N_2
REMARK    2  A    between atoms: C_19  and  C_20
REMARK    3  A    between atoms: C_19  and  O_21
REMARK                            x       y       z     vdW  Elec       q    Type
REMARK                         _______ _______ _______ _____ _____    ______ ____
ROOT
ATOM      1  C   UNL     1      -3.586  13.279  24.326  0.00  0.00    +0.000 C 
ATOM      2  N   UNL     1      -3.557  12.344  23.196  0.00  0.00    +0.000 NA
ATOM      3  C   UNL     1      -2.228  11.663  23.240  0.00  0.00    +0.000 C 
ATOM      4  C   UNL     1      -1.101  12.488  22.571  0.00  0.00    +0.000 C 
ATOM      5  C   UNL     1      -1.437  12.438  21.111  0.00  0.00    +0.000 A 
ATOM      6  C   UNL     1      -0.520  12.008  20.129  0.00  0.00    +0.000 A 
ATOM      7  C   UNL     1      -0.968  11.558  18.879  0.00  0.00    +0.000 A 
ATOM      8  C   UNL     1      -2.338  11.576  18.645  0.00  0.00    +0.000 A 
ATOM      9  C   UNL     1      -3.194  12.114  19.611  0.00  0.00    +0.000 A 
ATOM     10  C   UNL     1      -2.797  12.569  20.826  0.00  0.00    +0.000 A 
ATOM     11  C   UNL     1      -3.814  13.015  21.865  0.00  0.00    +0.000 C 
ATOM     12  C   UNL     1      -5.345  12.891  21.363  0.00  0.00    +0.000 C 
ATOM     13  C   UNL     1      -5.591  12.540  19.897  0.00  0.00    +0.000 A 
ATOM     14  C   UNL     1      -6.804  12.564  19.209  0.00  0.00    +0.000 A 
ATOM     15  C   UNL     1      -6.885  12.096  17.866  0.00  0.00    +0.000 A 
ATOM     16  C   UNL     1      -5.777  11.540  17.194  0.00  0.00    +0.000 A 
ATOM     17  C   UNL     1      -4.576  11.519  17.865  0.00  0.00    +0.000 A 
ATOM     18  C   UNL     1      -4.530  12.072  19.158  0.00  0.00    +0.000 A 
ATOM     19  C   UNL     1      -3.185  10.971  17.521  0.00  0.00    +0.000 C 
ATOM     20  C   UNL     1      -2.675  11.206  16.108  0.00  0.00    +0.000 C 
ENDROOT
BRANCH  19  21
ATOM     21  O   UNL     1      -3.227   9.549  17.717  0.00  0.00    +0.000 OA
ATOM     22  H   UNL     1      -4.058   9.343  18.176  0.00  0.00    +0.000 HD
ENDBRANCH  19  21
TORSDOF 1
ENDMDL
MODEL 6
REMARK VINA RESULT:      -6.4      6.479      9.278
REMARK  Name = 
REMARK  3 active torsions:
REMARK  status: ('A' for Active; 'I' for Inactive)
REMARK    1  A    between atoms: C_1  and  N_2
REMARK    2  A    between atoms: C_19  and  C_20
REMARK    3  A    between atoms: C_19  and  O_21
REMARK                            x       y       z     vdW  Elec       q    Type
REMARK                         _______ _______ _______ _____ _____    ______ ____
ROOT
ATOM      1  C   UNL     1      -4.499  14.944  22.789  0.00  0.00    +0.000 C 
ATOM      2  N   UNL     1      -3.928  14.608  21.481  0.00  0.00    +0.000 NA
ATOM      3  C   UNL     1      -4.901  15.088  20.455  0.00  0.00    +0.000 C 
ATOM      4  C   UNL     1      -6.054  14.087  20.195  0.00  0.00    +0.000 C 
ATOM      5  C   UNL     1      -5.386  12.944  19.491  0.00  0.00    +0.000 A 
ATOM      6  C   UNL     1      -5.831  12.445  18.249  0.00  0.00    +0.000 A 
ATOM      7  C   UNL     1      -4.970  11.709  17.423  0.00  0.00    +0.000 A 
ATOM      8  C   UNL     1      -3.681  11.475  17.887  0.00  0.00    +0.000 A 
ATOM      9  C   UNL     1      -3.325  11.898  19.172  0.00  0.00    +0.000 A 
ATOM     10  C   UNL     1      -4.133  12.603  20.004  0.00  0.00    +0.000 A 
ATOM     11  C   UNL     1      -3.615  13.135  21.331  0.00  0.00    +0.000 C 
ATOM     12  C   UNL     1      -2.067  12.770  21.613  0.00  0.00    +0.000 C 
ATOM     13  C   UNL     1      -1.373  11.807  20.652  0.00  0.00    +0.000 A 
ATOM     14  C   UNL     1      -0.120  11.212  20.801  0.00  0.00    +0.000 A 
ATOM     15  C   UNL     1       0.437  10.422  19.755  0.00  0.00    +0.000 A 
ATOM     16  C   UNL     1      -0.211  10.251  18.514  0.00  0.00    +0.000 A 
ATOM     17  C   UNL     1      -1.450  10.829  18.362  0.00  0.00    +0.000 A 
ATOM     18  C   UNL     1      -1.993  11.527  19.456  0.00  0.00    +0.000 A 
ATOM     19  C   UNL     1      -2.434  10.922  17.189  0.00  0.00    +0.000 C 
ATOM     20  C   UNL     1      -2.644   9.668  16.356  0.00  0.00    +0.000 C 
ENDROOT
BRANCH  19  21
ATOM     21  O   UNL     1      -1.942  11.936  16.299  0.00  0.00    +0.000 OA
ATOM     22  H   UNL     1      -1.381  12.533  16.820  0.00  0.00    +0.000 HD
ENDBRANCH  19  21
TORSDOF 1
ENDMDL
MODEL 7
REMARK VINA RESULT:      -6.3      2.043      5.954
REMARK  Name = 
REMARK  3 active torsions:
REMARK  status: ('A' for Active; 'I' for Inactive)
REMARK    1  A    between atoms: C_1  and  N_2
REMARK    2  A    between atoms: C_19  and  C_20
REMARK    3  A    between atoms: C_19  and  O_21
REMARK                            x       y       z     vdW  Elec       q    Type
REMARK                         _______ _______ _______ _____ _____    ______ ____
ROOT
ATOM      1  C   UNL     1       3.138   2.435  19.756  0.00  0.00    +0.000 C 
ATOM      2  N   UNL     1       2.523   3.604  19.120  0.00  0.00    +0.000 NA
ATOM      3  C   UNL     1       2.950   3.584  17.688  0.00  0.00    +0.000 C 
ATOM      4  C   UNL     1       4.347   4.213  17.463  0.00  0.00    +0.000 C 
ATOM      5  C   UNL     1       4.127   5.675  17.711  0.00  0.00    +0.000 A 
ATOM      6  C   UNL     1       4.485   6.671  16.778  0.00  0.00    +0.000 A 
ATOM      7  C   UNL     1       3.892   7.941  16.824  0.00  0.00    +0.000 A 
ATOM      8  C   UNL     1       2.966   8.180  17.832  0.00  0.00    +0.000 A 
ATOM      9  C   UNL     1       2.728   7.194  18.796  0.00  0.00    +0.000 A 
ATOM     10  C   UNL     1       3.290   5.959  18.791  0.00  0.00    +0.000 A 
ATOM     11  C   UNL     1       2.873   4.906  19.805  0.00  0.00    +0.000 C 
ATOM     12  C   UNL     1       1.741   5.419  20.838  0.00  0.00    +0.000 C 
ATOM     13  C   UNL     1       1.367   6.899  20.813  0.00  0.00    +0.000 A 
ATOM     14  C   UNL     1       0.568   7.590  21.724  0.00  0.00    +0.000 A 
ATOM     15  C   UNL     1       0.219   8.952  21.495  0.00  0.00    +0.000 A 
ATOM     16  C   UNL     1       0.608   9.643  20.329  0.00  0.00    +0.000 A 
ATOM     17  C   UNL     1       1.401   8.969  19.429  0.00  0.00    +0.000 A 
ATOM     18  C   UNL     1       1.789   7.654  19.743  0.00  0.00    +0.000 A 
ATOM     19  C   UNL     1       1.980   9.332  18.055  0.00  0.00    +0.000 C 
ATOM     20  C   UNL     1       2.550  10.731  17.888  0.00  0.00    +0.000 C 
ENDROOT
BRANCH  19  21
ATOM     21  O   UNL     1       0.920   9.197  17.097  0.00  0.00    +0.000 OA
ATOM     22  H   UNL     1       0.818  10.055  16.653  0.00  0.00    +0.000 HD
ENDBRANCH  19  21
TORSDOF 1
ENDMDL
MODEL 8
REMARK VINA RESULT:      -6.3      6.827     10.597
REMARK  Name = 
REMARK  3 active torsions:
REMARK  status: ('A' for Active; 'I' for Inactive)
REMARK    1  A    between atoms: C_1  and  N_2
REMARK    2  A    between atoms: C_19  and  C_20
REMARK    3  A    between atoms: C_19  and  O_21
REMARK                            x       y       z     vdW  Elec       q    Type
REMARK                         _______ _______ _______ _____ _____    ______ ____
ROOT
ATOM      1  C   UNL     1       0.311  10.742  18.457  0.00  0.00    +0.000 C 
ATOM      2  N   UNL     1      -1.040  10.554  18.995  0.00  0.00    +0.000 NA
ATOM      3  C   UNL     1      -1.825   9.847  17.940  0.00  0.00    +0.000 C 
ATOM      4  C   UNL     1      -2.400  10.804  16.866  0.00  0.00    +0.000 C 
ATOM      5  C   UNL     1      -3.463  11.567  17.597  0.00  0.00    +0.000 A 
ATOM      6  C   UNL     1      -4.795  11.651  17.141  0.00  0.00    +0.000 A 
ATOM      7  C   UNL     1      -5.835  11.975  18.024  0.00  0.00    +0.000 A 
ATOM      8  C   UNL     1      -5.497  12.229  19.347  0.00  0.00    +0.000 A 
ATOM      9  C   UNL     1      -4.150  12.239  19.723  0.00  0.00    +0.000 A 
ATOM     10  C   UNL     1      -3.115  11.942  18.896  0.00  0.00    +0.000 A 
ATOM     11  C   UNL     1      -1.693  11.850  19.425  0.00  0.00    +0.000 C 
ATOM     12  C   UNL     1      -1.574  12.140  21.010  0.00  0.00    +0.000 C 
ATOM     13  C   UNL     1      -2.816  12.644  21.740  0.00  0.00    +0.000 A 
ATOM     14  C   UNL     1      -2.898  13.132  23.045  0.00  0.00    +0.000 A 
ATOM     15  C   UNL     1      -4.159  13.459  23.619  0.00  0.00    +0.000 A 
ATOM     16  C   UNL     1      -5.374  13.257  22.934  0.00  0.00    +0.000 A 
ATOM     17  C   UNL     1      -5.302  12.782  21.645  0.00  0.00    +0.000 A 
ATOM     18  C   UNL     1      -4.027  12.556  21.093  0.00  0.00    +0.000 A 
ATOM     19  C   UNL     1      -6.359  12.388  20.604  0.00  0.00    +0.000 C 
ATOM     20  C   UNL     1      -7.570  13.295  20.465  0.00  0.00    +0.000 C 
ENDROOT
BRANCH  19  21
ATOM     21  O   UNL     1      -6.851  11.089  20.968  0.00  0.00    +0.000 OA
ATOM     22  H   UNL     1      -7.591  10.882  20.374  0.00  0.00    +0.000 HD
ENDBRANCH  19  21
TORSDOF 1
ENDMDL
MODEL 9
REMARK VINA RESULT:      -6.3      1.769      4.675
REMARK  Name = 
REMARK  3 active torsions:
REMARK  status: ('A' for Active; 'I' for Inactive)
REMARK    1  A    between atoms: C_1  and  N_2
REMARK    2  A    between atoms: C_19  and  C_20
REMARK    3  A    between atoms: C_19  and  O_21
REMARK                            x       y       z     vdW  Elec       q    Type
REMARK                         _______ _______ _______ _____ _____    ______ ____
ROOT
ATOM      1  C   UNL     1       6.896   5.921  14.787  0.00  0.00    +0.000 C 
ATOM      2  N   UNL     1       6.370   5.766  16.147  0.00  0.00    +0.000 NA
ATOM      3  C   UNL     1       6.791   4.412  16.616  0.00  0.00    +0.000 C 
ATOM      4  C   UNL     1       5.847   3.282  16.135  0.00  0.00    +0.000 C 
ATOM      5  C   UNL     1       4.586   3.511  16.914  0.00  0.00    +0.000 A 
ATOM      6  C   UNL     1       3.976   2.507  17.694  0.00  0.00    +0.000 A 
ATOM      7  C   UNL     1       3.089   2.844  18.727  0.00  0.00    +0.000 A 
ATOM      8  C   UNL     1       2.825   4.192  18.931  0.00  0.00    +0.000 A 
ATOM      9  C   UNL     1       3.371   5.141  18.060  0.00  0.00    +0.000 A 
ATOM     10  C   UNL     1       4.223   4.853  17.043  0.00  0.00    +0.000 A 
ATOM     11  C   UNL     1       4.871   5.962  16.229  0.00  0.00    +0.000 C 
ATOM     12  C   UNL     1       4.437   7.445  16.699  0.00  0.00    +0.000 C 
ATOM     13  C   UNL     1       3.323   7.570  17.736  0.00  0.00    +0.000 A 
ATOM     14  C   UNL     1       2.665   8.731  18.143  0.00  0.00    +0.000 A 
ATOM     15  C   UNL     1       1.721   8.694  19.208  0.00  0.00    +0.000 A 
ATOM     16  C   UNL     1       1.449   7.515  19.933  0.00  0.00    +0.000 A 
ATOM     17  C   UNL     1       2.089   6.365  19.532  0.00  0.00    +0.000 A 
ATOM     18  C   UNL     1       2.947   6.437  18.420  0.00  0.00    +0.000 A 
ATOM     19  C   UNL     1       2.110   4.928  20.070  0.00  0.00    +0.000 C 
ATOM     20  C   UNL     1       0.783   4.331  20.511  0.00  0.00    +0.000 C 
ENDROOT
BRANCH  19  21
ATOM     21  O   UNL     1       2.975   4.913  21.215  0.00  0.00    +0.000 OA
ATOM     22  H   UNL     1       2.434   4.669  21.985  0.00  0.00    +0.000 HD
ENDBRANCH  19  21
TORSDOF 1
ENDMDL
