MODEL 1
REMARK VINA RESULT:      -7.1      0.000      0.000
REMARK  Name = 
REMARK  10 active torsions:
REMARK  status: ('A' for Active; 'I' for Inactive)
REMARK    1  A    between atoms: C_1  and  C_2
REMARK    2  A    between atoms: C_2  and  C_3
REMARK    3  A    between atoms: C_2  and  C_4
REMARK    4  A    between atoms: C_4  and  C_5
REMARK    5  A    between atoms: C_5  and  N_6
REMARK    6  A    between atoms: C_10  and  C_11
REMARK    7  A    between atoms: C_11  and  C_12
REMARK    8  A    between atoms: C_11  and  C_13
REMARK    9  A    between atoms: C_14  and  C_15
REMARK   10  A    between atoms: N_22  and  C_23
REMARK                            x       y       z     vdW  Elec       q    Type
REMARK                         _______ _______ _______ _____ _____    ______ ____
ROOT
ATOM      1  N   UNL     1       1.425   8.210  20.417  0.00  0.00    +0.000 N 
ATOM      2  N   UNL     1       1.112   8.348  21.732  0.00  0.00    +0.000 NA
ATOM      3  C   UNL     1       0.352   9.432  21.745  0.00  0.00    +0.000 A 
ATOM      4  C   UNL     1       0.138   9.975  20.482  0.00  0.00    +0.000 A 
ATOM      5  C   UNL     1       0.842   9.177  19.599  0.00  0.00    +0.000 A 
ATOM      6  C   UNL     1      -0.726  11.182  20.611  0.00  0.00    +0.000 C 
ATOM      7  N   UNL     1      -0.786  11.345  22.104  0.00  0.00    +0.000 N 
ATOM      8  C   UNL     1      -0.228  10.240  22.791  0.00  0.00    +0.000 C 
ATOM      9  O   UNL     1      -0.195  10.013  23.988  0.00  0.00    +0.000 OA
ENDROOT
BRANCH   7  10
ATOM     10  C   UNL     1      -1.126  12.585  22.733  0.00  0.00    +0.000 A 
ATOM     11  C   UNL     1      -0.244  13.677  22.672  0.00  0.00    +0.000 A 
ATOM     12  C   UNL     1      -0.633  14.953  23.096  0.00  0.00    +0.000 A 
ATOM     13  C   UNL     1      -1.915  15.163  23.594  0.00  0.00    +0.000 A 
ATOM     14  C   UNL     1      -2.785  14.083  23.714  0.00  0.00    +0.000 A 
ATOM     15 CL   UNL     1      -4.372  14.350  24.331  0.00  0.00    +0.000 Cl
ATOM     16  C   UNL     1      -2.385  12.805  23.315  0.00  0.00    +0.000 A 
ATOM     17  F   UNL     1      -3.218  11.770  23.516  0.00  0.00    +0.000 F 
ENDBRANCH   7  10
BRANCH   6  18
ATOM     18  C   UNL     1      -0.057  12.320  19.867  0.00  0.00    +0.000 A 
ATOM     19  C   UNL     1      -0.858  13.203  19.112  0.00  0.00    +0.000 A 
ATOM     20  C   UNL     1      -0.320  14.375  18.581  0.00  0.00    +0.000 A 
ATOM     21  C   UNL     1       1.025  14.656  18.780  0.00  0.00    +0.000 A 
ATOM     22  F   UNL     1       1.531  15.804  18.311  0.00  0.00    +0.000 F 
ATOM     23  C   UNL     1       1.846  13.782  19.481  0.00  0.00    +0.000 A 
ATOM     24  C   UNL     1       1.310  12.613  20.021  0.00  0.00    +0.000 A 
ENDBRANCH   6  18
BRANCH   5  25
ATOM     25  C   UNL     1       1.014   9.286  18.108  0.00  0.00    +0.000 C 
ATOM     26  C   UNL     1      -0.280   9.683  17.393  0.00  0.00    +0.000 C 
ATOM     27  C   UNL     1       2.191  10.184  17.721  0.00  0.00    +0.000 C 
ENDBRANCH   5  25
BRANCH   1  28
ATOM     28  C   UNL     1       2.280   7.087  20.066  0.00  0.00    +0.000 C 
BRANCH  28  29
ATOM     29  C   UNL     1       1.729   5.739  20.542  0.00  0.00    +0.000 C 
BRANCH  29  31
ATOM     30  C   UNL     1       1.103   3.422  19.799  0.00  0.00    +0.000 C 
ATOM     31  C   UNL     1       2.072   4.585  19.584  0.00  0.00    +0.000 C 
ATOM     32  C   UNL     1       2.048   5.016  18.116  0.00  0.00    +0.000 C 
ENDBRANCH  29  31
ENDBRANCH  28  29
ENDBRANCH   1  28
TORSDOF 6
ENDMDL
MODEL 2
REMARK VINA RESULT:      -6.8      4.476      7.793
REMARK  Name = 
REMARK  10 active torsions:
REMARK  status: ('A' for Active; 'I' for Inactive)
REMARK    1  A    between atoms: C_1  and  C_2
REMARK    2  A    between atoms: C_2  and  C_3
REMARK    3  A    between atoms: C_2  and  C_4
REMARK    4  A    between atoms: C_4  and  C_5
REMARK    5  A    between atoms: C_5  and  N_6
REMARK    6  A    between atoms: C_10  and  C_11
REMARK    7  A    between atoms: C_11  and  C_12
REMARK    8  A    between atoms: C_11  and  C_13
REMARK    9  A    between atoms: C_14  and  C_15
REMARK   10  A    between atoms: N_22  and  C_23
REMARK                            x       y       z     vdW  Elec       q    Type
REMARK                         _______ _______ _______ _____ _____    ______ ____
ROOT
ATOM      1  N   UNL     1       5.297   5.822  16.225  0.00  0.00    +0.000 N 
ATOM      2  N   UNL     1       4.879   7.109  16.110  0.00  0.00    +0.000 NA
ATOM      3  C   UNL     1       4.170   7.292  17.214  0.00  0.00    +0.000 A 
ATOM      4  C   UNL     1       4.148   6.179  18.050  0.00  0.00    +0.000 A 
ATOM      5  C   UNL     1       4.888   5.204  17.406  0.00  0.00    +0.000 A 
ATOM      6  C   UNL     1       3.330   6.492  19.255  0.00  0.00    +0.000 C 
ATOM      7  N   UNL     1       2.748   7.826  18.880  0.00  0.00    +0.000 N 
ATOM      8  C   UNL     1       3.330   8.358  17.704  0.00  0.00    +0.000 C 
ATOM      9  O   UNL     1       3.153   9.444  17.179  0.00  0.00    +0.000 OA
ENDROOT
BRANCH   7  10
ATOM     10  C   UNL     1       1.570   8.356  19.496  0.00  0.00    +0.000 A 
ATOM     11  C   UNL     1       1.421   8.318  20.893  0.00  0.00    +0.000 A 
ATOM     12  C   UNL     1       0.385   9.005  21.535  0.00  0.00    +0.000 A 
ATOM     13  C   UNL     1      -0.530   9.743  20.791  0.00  0.00    +0.000 A 
ATOM     14  C   UNL     1      -0.433   9.748  19.402  0.00  0.00    +0.000 A 
ATOM     15 CL   UNL     1      -1.568  10.666  18.486  0.00  0.00    +0.000 Cl
ATOM     16  C   UNL     1       0.588   9.040  18.762  0.00  0.00    +0.000 A 
ATOM     17  F   UNL     1       0.609   8.999  17.419  0.00  0.00    +0.000 F 
ENDBRANCH   7  10
BRANCH   6  18
ATOM     18  C   UNL     1       2.318   5.379  19.438  0.00  0.00    +0.000 A 
ATOM     19  C   UNL     1       1.686   4.840  18.298  0.00  0.00    +0.000 A 
ATOM     20  C   UNL     1       0.907   3.687  18.393  0.00  0.00    +0.000 A 
ATOM     21  C   UNL     1       0.736   3.084  19.632  0.00  0.00    +0.000 A 
ATOM     22  F   UNL     1       0.028   1.950  19.716  0.00  0.00    +0.000 F 
ATOM     23  C   UNL     1       1.310   3.619  20.778  0.00  0.00    +0.000 A 
ATOM     24  C   UNL     1       2.097   4.767  20.685  0.00  0.00    +0.000 A 
ENDBRANCH   6  18
BRANCH   5  25
ATOM     25  C   UNL     1       5.190   3.785  17.805  0.00  0.00    +0.000 C 
ATOM     26  C   UNL     1       5.374   3.624  19.317  0.00  0.00    +0.000 C 
ATOM     27  C   UNL     1       4.175   2.790  17.235  0.00  0.00    +0.000 C 
ENDBRANCH   5  25
BRANCH   1  28
ATOM     28  C   UNL     1       6.112   5.303  15.138  0.00  0.00    +0.000 C 
BRANCH  28  29
ATOM     29  C   UNL     1       5.346   4.355  14.211  0.00  0.00    +0.000 C 
BRANCH  29  31
ATOM     30  C   UNL     1       5.393   3.179  11.990  0.00  0.00    +0.000 C 
ATOM     31  C   UNL     1       6.247   3.714  13.140  0.00  0.00    +0.000 C 
ATOM     32  C   UNL     1       7.295   4.687  12.598  0.00  0.00    +0.000 C 
ENDBRANCH  29  31
ENDBRANCH  28  29
ENDBRANCH   1  28
TORSDOF 6
ENDMDL
MODEL 3
REMARK VINA RESULT:      -6.7      2.869      4.612
REMARK  Name = 
REMARK  10 active torsions:
REMARK  status: ('A' for Active; 'I' for Inactive)
REMARK    1  A    between atoms: C_1  and  C_2
REMARK    2  A    between atoms: C_2  and  C_3
REMARK    3  A    between atoms: C_2  and  C_4
REMARK    4  A    between atoms: C_4  and  C_5
REMARK    5  A    between atoms: C_5  and  N_6
REMARK    6  A    between atoms: C_10  and  C_11
REMARK    7  A    between atoms: C_11  and  C_12
REMARK    8  A    between atoms: C_11  and  C_13
REMARK    9  A    between atoms: C_14  and  C_15
REMARK   10  A    between atoms: N_22  and  C_23
REMARK                            x       y       z     vdW  Elec       q    Type
REMARK                         _______ _______ _______ _____ _____    ______ ____
ROOT
ATOM      1  N   UNL     1       1.622  10.101  18.429  0.00  0.00    +0.000 N 
ATOM      2  N   UNL     1       2.157  11.187  17.811  0.00  0.00    +0.000 NA
ATOM      3  C   UNL     1       1.945  12.161  18.683  0.00  0.00    +0.000 A 
ATOM      4  C   UNL     1       1.323  11.733  19.852  0.00  0.00    +0.000 A 
ATOM      5  C   UNL     1       1.106  10.376  19.694  0.00  0.00    +0.000 A 
ATOM      6  C   UNL     1       1.134  12.900  20.758  0.00  0.00    +0.000 C 
ATOM      7  N   UNL     1       1.539  14.038  19.863  0.00  0.00    +0.000 N 
ATOM      8  C   UNL     1       2.123  13.592  18.653  0.00  0.00    +0.000 C 
ATOM      9  O   UNL     1       2.633  14.243  17.757  0.00  0.00    +0.000 OA
ENDROOT
BRANCH   7  10
ATOM     10  C   UNL     1       1.136  15.390  20.102  0.00  0.00    +0.000 A 
ATOM     11  C   UNL     1       1.712  16.128  21.150  0.00  0.00    +0.000 A 
ATOM     12  C   UNL     1       1.492  17.504  21.282  0.00  0.00    +0.000 A 
ATOM     13  C   UNL     1       0.684  18.171  20.367  0.00  0.00    +0.000 A 
ATOM     14  C   UNL     1       0.059  17.450  19.354  0.00  0.00    +0.000 A 
ATOM     15 CL   UNL     1      -0.939  18.283  18.224  0.00  0.00    +0.000 Cl
ATOM     16  C   UNL     1       0.260  16.071  19.241  0.00  0.00    +0.000 A 
ATOM     17  F   UNL     1      -0.418  15.389  18.303  0.00  0.00    +0.000 F 
ENDBRANCH   7  10
BRANCH   6  18
ATOM     18  C   UNL     1      -0.313  12.919  21.205  0.00  0.00    +0.000 A 
ATOM     19  C   UNL     1      -1.327  12.994  20.227  0.00  0.00    +0.000 A 
ATOM     20  C   UNL     1      -2.665  12.808  20.572  0.00  0.00    +0.000 A 
ATOM     21  C   UNL     1      -2.999  12.575  21.899  0.00  0.00    +0.000 A 
ATOM     22  F   UNL     1      -4.278  12.351  22.224  0.00  0.00    +0.000 F 
ATOM     23  C   UNL     1      -2.025  12.542  22.889  0.00  0.00    +0.000 A 
ATOM     24  C   UNL     1      -0.684  12.718  22.547  0.00  0.00    +0.000 A 
ENDBRANCH   6  18
BRANCH   5  25
ATOM     25  C   UNL     1       0.445   9.380  20.609  0.00  0.00    +0.000 C 
ATOM     26  C   UNL     1       1.016   9.415  22.029  0.00  0.00    +0.000 C 
ATOM     27  C   UNL     1      -1.081   9.498  20.593  0.00  0.00    +0.000 C 
ENDBRANCH   5  25
BRANCH   1  28
ATOM     28  C   UNL     1       1.691   8.841  17.705  0.00  0.00    +0.000 C 
BRANCH  28  29
ATOM     29  C   UNL     1       2.918   8.002  18.072  0.00  0.00    +0.000 C 
BRANCH  29  31
ATOM     30  C   UNL     1       3.660   5.634  17.676  0.00  0.00    +0.000 C 
ATOM     31  C   UNL     1       2.578   6.518  18.296  0.00  0.00    +0.000 C 
ATOM     32  C   UNL     1       2.412   6.173  19.777  0.00  0.00    +0.000 C 
ENDBRANCH  29  31
ENDBRANCH  28  29
ENDBRANCH   1  28
TORSDOF 6
ENDMDL
MODEL 4
REMARK VINA RESULT:      -6.6      0.953      1.083
REMARK  Name = 
REMARK  10 active torsions:
REMARK  status: ('A' for Active; 'I' for Inactive)
REMARK    1  A    between atoms: C_1  and  C_2
REMARK    2  A    between atoms: C_2  and  C_3
REMARK    3  A    between atoms: C_2  and  C_4
REMARK    4  A    between atoms: C_4  and  C_5
REMARK    5  A    between atoms: C_5  and  N_6
REMARK    6  A    between atoms: C_10  and  C_11
REMARK    7  A    between atoms: C_11  and  C_12
REMARK    8  A    between atoms: C_11  and  C_13
REMARK    9  A    between atoms: C_14  and  C_15
REMARK   10  A    between atoms: N_22  and  C_23
REMARK                            x       y       z     vdW  Elec       q    Type
REMARK                         _______ _______ _______ _____ _____    ______ ____
ROOT
ATOM      1  N   UNL     1       1.292   8.501  20.309  0.00  0.00    +0.000 N 
ATOM      2  N   UNL     1       0.678   8.538  21.521  0.00  0.00    +0.000 NA
ATOM      3  C   UNL     1      -0.065   9.632  21.446  0.00  0.00    +0.000 A 
ATOM      4  C   UNL     1       0.024  10.280  20.217  0.00  0.00    +0.000 A 
ATOM      5  C   UNL     1       0.917   9.542  19.461  0.00  0.00    +0.000 A 
ATOM      6  C   UNL     1      -0.846  11.488  20.240  0.00  0.00    +0.000 C 
ATOM      7  N   UNL     1      -1.255  11.531  21.686  0.00  0.00    +0.000 N 
ATOM      8  C   UNL     1      -0.874  10.363  22.390  0.00  0.00    +0.000 C 
ATOM      9  O   UNL     1      -1.124  10.040  23.538  0.00  0.00    +0.000 OA
ENDROOT
BRANCH   7  10
ATOM     10  C   UNL     1      -1.735  12.722  22.318  0.00  0.00    +0.000 A 
ATOM     11  C   UNL     1      -0.895  13.463  23.167  0.00  0.00    +0.000 A 
ATOM     12  C   UNL     1      -1.263  14.730  23.633  0.00  0.00    +0.000 A 
ATOM     13  C   UNL     1      -2.484  15.282  23.263  0.00  0.00    +0.000 A 
ATOM     14  C   UNL     1      -3.355  14.542  22.468  0.00  0.00    +0.000 A 
ATOM     15 CL   UNL     1      -4.866  15.233  22.011  0.00  0.00    +0.000 Cl
ATOM     16  C   UNL     1      -2.996  13.266  22.024  0.00  0.00    +0.000 A 
ATOM     17  F   UNL     1      -3.888  12.545  21.325  0.00  0.00    +0.000 F 
ENDBRANCH   7  10
BRANCH   6  18
ATOM     18  C   UNL     1      -0.022  12.670  19.771  0.00  0.00    +0.000 A 
ATOM     19  C   UNL     1      -0.568  13.541  18.805  0.00  0.00    +0.000 A 
ATOM     20  C   UNL     1       0.061  14.746  18.494  0.00  0.00    +0.000 A 
ATOM     21  C   UNL     1       1.252  15.073  19.128  0.00  0.00    +0.000 A 
ATOM     22  F   UNL     1       1.832  16.251  18.865  0.00  0.00    +0.000 F 
ATOM     23  C   UNL     1       1.836  14.213  20.049  0.00  0.00    +0.000 A 
ATOM     24  C   UNL     1       1.205  13.011  20.369  0.00  0.00    +0.000 A 
ENDBRANCH   6  18
BRANCH   5  25
ATOM     25  C   UNL     1       1.435   9.768  18.066  0.00  0.00    +0.000 C 
ATOM     26  C   UNL     1       2.288  11.034  17.952  0.00  0.00    +0.000 C 
ATOM     27  C   UNL     1       2.145   8.535  17.501  0.00  0.00    +0.000 C 
ENDBRANCH   5  25
BRANCH   1  28
ATOM     28  C   UNL     1       2.206   7.394  20.076  0.00  0.00    +0.000 C 
BRANCH  28  29
ATOM     29  C   UNL     1       1.751   6.089  20.736  0.00  0.00    +0.000 C 
BRANCH  29  31
ATOM     30  C   UNL     1       1.088   3.729  20.183  0.00  0.00    +0.000 C 
ATOM     31  C   UNL     1       2.090   4.847  19.893  0.00  0.00    +0.000 C 
ATOM     32  C   UNL     1       2.114   5.147  18.393  0.00  0.00    +0.000 C 
ENDBRANCH  29  31
ENDBRANCH  28  29
ENDBRANCH   1  28
TORSDOF 6
ENDMDL
MODEL 5
REMARK VINA RESULT:      -6.4      3.428      7.203
REMARK  Name = 
REMARK  10 active torsions:
REMARK  status: ('A' for Active; 'I' for Inactive)
REMARK    1  A    between atoms: C_1  and  C_2
REMARK    2  A    between atoms: C_2  and  C_3
REMARK    3  A    between atoms: C_2  and  C_4
REMARK    4  A    between atoms: C_4  and  C_5
REMARK    5  A    between atoms: C_5  and  N_6
REMARK    6  A    between atoms: C_10  and  C_11
REMARK    7  A    between atoms: C_11  and  C_12
REMARK    8  A    between atoms: C_11  and  C_13
REMARK    9  A    between atoms: C_14  and  C_15
REMARK   10  A    between atoms: N_22  and  C_23
REMARK                            x       y       z     vdW  Elec       q    Type
REMARK                         _______ _______ _______ _____ _____    ______ ____
ROOT
ATOM      1  N   UNL     1      -2.398  12.438  23.073  0.00  0.00    +0.000 N 
ATOM      2  N   UNL     1      -1.409  11.594  23.469  0.00  0.00    +0.000 NA
ATOM      3  C   UNL     1      -0.763  11.341  22.340  0.00  0.00    +0.000 A 
ATOM      4  C   UNL     1      -1.282  12.018  21.241  0.00  0.00    +0.000 A 
ATOM      5  C   UNL     1      -2.360  12.744  21.713  0.00  0.00    +0.000 A 
ATOM      6  C   UNL     1      -0.486  11.665  20.032  0.00  0.00    +0.000 C 
ATOM      7  N   UNL     1       0.390  10.566  20.566  0.00  0.00    +0.000 N 
ATOM      8  C   UNL     1       0.301  10.439  21.973  0.00  0.00    +0.000 C 
ATOM      9  O   UNL     1       0.934   9.716  22.723  0.00  0.00    +0.000 OA
ENDROOT
BRANCH   7  10
ATOM     10  C   UNL     1       1.027   9.605  19.717  0.00  0.00    +0.000 A 
ATOM     11  C   UNL     1       1.612  10.006  18.504  0.00  0.00    +0.000 A 
ATOM     12  C   UNL     1       2.414   9.135  17.757  0.00  0.00    +0.000 A 
ATOM     13  C   UNL     1       2.644   7.839  18.208  0.00  0.00    +0.000 A 
ATOM     14  C   UNL     1       2.029   7.404  19.379  0.00  0.00    +0.000 A 
ATOM     15 CL   UNL     1       2.320   5.799  19.932  0.00  0.00    +0.000 Cl
ATOM     16  C   UNL     1       1.208   8.268  20.109  0.00  0.00    +0.000 A 
ATOM     17  F   UNL     1       0.566   7.797  21.191  0.00  0.00    +0.000 F 
ENDBRANCH   7  10
BRANCH   6  18
ATOM     18  C   UNL     1      -1.450  11.245  18.941  0.00  0.00    +0.000 A 
ATOM     19  C   UNL     1      -1.524  12.019  17.763  0.00  0.00    +0.000 A 
ATOM     20  C   UNL     1      -2.238  11.563  16.656  0.00  0.00    +0.000 A 
ATOM     21  C   UNL     1      -2.904  10.347  16.729  0.00  0.00    +0.000 A 
ATOM     22  F   UNL     1      -3.550   9.888  15.651  0.00  0.00    +0.000 F 
ATOM     23  C   UNL     1      -2.885   9.587  17.892  0.00  0.00    +0.000 A 
ATOM     24  C   UNL     1      -2.164  10.035  18.999  0.00  0.00    +0.000 A 
ENDBRANCH   6  18
BRANCH   5  25
ATOM     25  C   UNL     1      -3.327  13.640  20.987  0.00  0.00    +0.000 C 
ATOM     26  C   UNL     1      -2.627  14.771  20.228  0.00  0.00    +0.000 C 
ATOM     27  C   UNL     1      -4.294  12.855  20.098  0.00  0.00    +0.000 C 
ENDBRANCH   5  25
BRANCH   1  28
ATOM     28  C   UNL     1      -3.308  12.904  24.107  0.00  0.00    +0.000 C 
BRANCH  28  29
ATOM     29  C   UNL     1      -4.690  12.248  24.033  0.00  0.00    +0.000 C 
BRANCH  29  31
ATOM     30  C   UNL     1      -7.127  12.852  24.145  0.00  0.00    +0.000 C 
ATOM     31  C   UNL     1      -5.777  13.208  23.519  0.00  0.00    +0.000 C 
ATOM     32  C   UNL     1      -5.444  14.674  23.801  0.00  0.00    +0.000 C 
ENDBRANCH  29  31
ENDBRANCH  28  29
ENDBRANCH   1  28
TORSDOF 6
ENDMDL
MODEL 6
REMARK VINA RESULT:      -6.4      3.380      7.230
REMARK  Name = 
REMARK  10 active torsions:
REMARK  status: ('A' for Active; 'I' for Inactive)
REMARK    1  A    between atoms: C_1  and  C_2
REMARK    2  A    between atoms: C_2  and  C_3
REMARK    3  A    between atoms: C_2  and  C_4
REMARK    4  A    between atoms: C_4  and  C_5
REMARK    5  A    between atoms: C_5  and  N_6
REMARK    6  A    between atoms: C_10  and  C_11
REMARK    7  A    between atoms: C_11  and  C_12
REMARK    8  A    between atoms: C_11  and  C_13
REMARK    9  A    between atoms: C_14  and  C_15
REMARK   10  A    between atoms: N_22  and  C_23
REMARK                            x       y       z     vdW  Elec       q    Type
REMARK                         _______ _______ _______ _____ _____    ______ ____
ROOT
ATOM      1  N   UNL     1      -1.971  12.670  22.680  0.00  0.00    +0.000 N 
ATOM      2  N   UNL     1      -1.042  11.795  23.146  0.00  0.00    +0.000 NA
ATOM      3  C   UNL     1      -0.411  11.416  22.045  0.00  0.00    +0.000 A 
ATOM      4  C   UNL     1      -0.879  12.043  20.894  0.00  0.00    +0.000 A 
ATOM      5  C   UNL     1      -1.908  12.871  21.302  0.00  0.00    +0.000 A 
ATOM      6  C   UNL     1      -0.104  11.549  19.722  0.00  0.00    +0.000 C 
ATOM      7  N   UNL     1       0.696  10.437  20.342  0.00  0.00    +0.000 N 
ATOM      8  C   UNL     1       0.593  10.421  21.754  0.00  0.00    +0.000 C 
ATOM      9  O   UNL     1       1.174   9.717  22.562  0.00  0.00    +0.000 OA
ENDROOT
BRANCH   7  10
ATOM     10  C   UNL     1       1.270   9.376  19.573  0.00  0.00    +0.000 A 
ATOM     11  C   UNL     1       1.881   9.646  18.337  0.00  0.00    +0.000 A 
ATOM     12  C   UNL     1       2.626   8.671  17.663  0.00  0.00    +0.000 A 
ATOM     13  C   UNL     1       2.772   7.402  18.211  0.00  0.00    +0.000 A 
ATOM     14  C   UNL     1       2.129   7.097  19.408  0.00  0.00    +0.000 A 
ATOM     15 CL   UNL     1       2.316   5.522  20.082  0.00  0.00    +0.000 Cl
ATOM     16  C   UNL     1       1.365   8.064  20.066  0.00  0.00    +0.000 A 
ATOM     17  F   UNL     1       0.692   7.718  21.176  0.00  0.00    +0.000 F 
ENDBRANCH   7  10
BRANCH   6  18
ATOM     18  C   UNL     1      -1.089  11.113  18.656  0.00  0.00    +0.000 A 
ATOM     19  C   UNL     1      -1.862   9.953  18.878  0.00  0.00    +0.000 A 
ATOM     20  C   UNL     1      -2.920   9.629  18.029  0.00  0.00    +0.000 A 
ATOM     21  C   UNL     1      -3.191  10.445  16.939  0.00  0.00    +0.000 A 
ATOM     22  F   UNL     1      -4.234  10.160  16.150  0.00  0.00    +0.000 F 
ATOM     23  C   UNL     1      -2.417  11.567  16.672  0.00  0.00    +0.000 A 
ATOM     24  C   UNL     1      -1.364  11.900  17.524  0.00  0.00    +0.000 A 
ENDBRANCH   6  18
BRANCH   5  25
ATOM     25  C   UNL     1      -2.811  13.773  20.504  0.00  0.00    +0.000 C 
ATOM     26  C   UNL     1      -4.236  13.225  20.388  0.00  0.00    +0.000 C 
ATOM     27  C   UNL     1      -2.783  15.218  21.006  0.00  0.00    +0.000 C 
ENDBRANCH   5  25
BRANCH   1  28
ATOM     28  C   UNL     1      -2.852  13.271  23.669  0.00  0.00    +0.000 C 
BRANCH  28  29
ATOM     29  C   UNL     1      -4.087  12.417  23.973  0.00  0.00    +0.000 C 
BRANCH  29  31
ATOM     30  C   UNL     1      -5.084  14.715  23.764  0.00  0.00    +0.000 C 
ATOM     31  C   UNL     1      -5.366  13.258  24.133  0.00  0.00    +0.000 C 
ATOM     32  C   UNL     1      -6.526  12.725  23.290  0.00  0.00    +0.000 C 
ENDBRANCH  29  31
ENDBRANCH  28  29
ENDBRANCH   1  28
TORSDOF 6
ENDMDL
MODEL 7
REMARK VINA RESULT:      -6.3      0.860      1.425
REMARK  Name = 
REMARK  10 active torsions:
REMARK  status: ('A' for Active; 'I' for Inactive)
REMARK    1  A    between atoms: C_1  and  C_2
REMARK    2  A    between atoms: C_2  and  C_3
REMARK    3  A    between atoms: C_2  and  C_4
REMARK    4  A    between atoms: C_4  and  C_5
REMARK    5  A    between atoms: C_5  and  N_6
REMARK    6  A    between atoms: C_10  and  C_11
REMARK    7  A    between atoms: C_11  and  C_12
REMARK    8  A    between atoms: C_11  and  C_13
REMARK    9  A    between atoms: C_14  and  C_15
REMARK   10  A    between atoms: N_22  and  C_23
REMARK                            x       y       z     vdW  Elec       q    Type
REMARK                         _______ _______ _______ _____ _____    ______ ____
ROOT
ATOM      1  N   UNL     1       1.301   8.507  20.421  0.00  0.00    +0.000 N 
ATOM      2  N   UNL     1       0.757   8.554  21.665  0.00  0.00    +0.000 NA
ATOM      3  C   UNL     1      -0.018   9.627  21.612  0.00  0.00    +0.000 A 
ATOM      4  C   UNL     1      -0.017  10.250  20.367  0.00  0.00    +0.000 A 
ATOM      5  C   UNL     1       0.850   9.520  19.575  0.00  0.00    +0.000 A 
ATOM      6  C   UNL     1      -0.917  11.436  20.417  0.00  0.00    +0.000 C 
ATOM      7  N   UNL     1      -1.244  11.499  21.883  0.00  0.00    +0.000 N 
ATOM      8  C   UNL     1      -0.791  10.357  22.586  0.00  0.00    +0.000 C 
ATOM      9  O   UNL     1      -0.965  10.052  23.754  0.00  0.00    +0.000 OA
ENDROOT
BRANCH   7  10
ATOM     10  C   UNL     1      -1.718  12.690  22.518  0.00  0.00    +0.000 A 
ATOM     11  C   UNL     1      -0.832  13.516  23.230  0.00  0.00    +0.000 A 
ATOM     12  C   UNL     1      -1.219  14.782  23.685  0.00  0.00    +0.000 A 
ATOM     13  C   UNL     1      -2.507  15.247  23.439  0.00  0.00    +0.000 A 
ATOM     14  C   UNL     1      -3.417  14.423  22.785  0.00  0.00    +0.000 A 
ATOM     15 CL   UNL     1      -5.010  15.006  22.482  0.00  0.00    +0.000 Cl
ATOM     16  C   UNL     1      -3.035  13.149  22.354  0.00  0.00    +0.000 A 
ATOM     17  F   UNL     1      -3.957  12.346  21.796  0.00  0.00    +0.000 F 
ENDBRANCH   7  10
BRANCH   6  18
ATOM     18  C   UNL     1      -0.153  12.628  19.877  0.00  0.00    +0.000 A 
ATOM     19  C   UNL     1       1.067  12.988  20.489  0.00  0.00    +0.000 A 
ATOM     20  C   UNL     1       1.901  13.941  19.907  0.00  0.00    +0.000 A 
ATOM     21  C   UNL     1       1.508  14.559  18.727  0.00  0.00    +0.000 A 
ATOM     22  F   UNL     1       2.330  15.440  18.143  0.00  0.00    +0.000 F 
ATOM     23  C   UNL     1       0.291  14.257  18.129  0.00  0.00    +0.000 A 
ATOM     24  C   UNL     1      -0.542  13.297  18.703  0.00  0.00    +0.000 A 
ENDBRANCH   6  18
BRANCH   5  25
ATOM     25  C   UNL     1       1.280   9.729  18.148  0.00  0.00    +0.000 C 
ATOM     26  C   UNL     1       2.299  10.862  18.000  0.00  0.00    +0.000 C 
ATOM     27  C   UNL     1       1.752   8.432  17.486  0.00  0.00    +0.000 C 
ENDBRANCH   5  25
BRANCH   1  28
ATOM     28  C   UNL     1       2.229   7.419  20.157  0.00  0.00    +0.000 C 
BRANCH  28  29
ATOM     29  C   UNL     1       1.769   6.080  20.741  0.00  0.00    +0.000 C 
BRANCH  29  31
ATOM     30  C   UNL     1       2.894   4.816  18.882  0.00  0.00    +0.000 C 
ATOM     31  C   UNL     1       1.593   4.993  19.666  0.00  0.00    +0.000 C 
ATOM     32  C   UNL     1       1.158   3.651  20.258  0.00  0.00    +0.000 C 
ENDBRANCH  29  31
ENDBRANCH  28  29
ENDBRANCH   1  28
TORSDOF 6
ENDMDL
MODEL 8
REMARK VINA RESULT:      -6.3      2.823      4.510
REMARK  Name = 
REMARK  10 active torsions:
REMARK  status: ('A' for Active; 'I' for Inactive)
REMARK    1  A    between atoms: C_1  and  C_2
REMARK    2  A    between atoms: C_2  and  C_3
REMARK    3  A    between atoms: C_2  and  C_4
REMARK    4  A    between atoms: C_4  and  C_5
REMARK    5  A    between atoms: C_5  and  N_6
REMARK    6  A    between atoms: C_10  and  C_11
REMARK    7  A    between atoms: C_11  and  C_12
REMARK    8  A    between atoms: C_11  and  C_13
REMARK    9  A    between atoms: C_14  and  C_15
REMARK   10  A    between atoms: N_22  and  C_23
REMARK                            x       y       z     vdW  Elec       q    Type
REMARK                         _______ _______ _______ _____ _____    ______ ____
ROOT
ATOM      1  N   UNL     1       1.635  10.165  18.421  0.00  0.00    +0.000 N 
ATOM      2  N   UNL     1       2.188  11.259  17.834  0.00  0.00    +0.000 NA
ATOM      3  C   UNL     1       1.974  12.216  18.725  0.00  0.00    +0.000 A 
ATOM      4  C   UNL     1       1.333  11.768  19.876  0.00  0.00    +0.000 A 
ATOM      5  C   UNL     1       1.105  10.417  19.685  0.00  0.00    +0.000 A 
ATOM      6  C   UNL     1       1.143  12.917  20.806  0.00  0.00    +0.000 C 
ATOM      7  N   UNL     1       1.571  14.070  19.941  0.00  0.00    +0.000 N 
ATOM      8  C   UNL     1       2.167  13.645  18.730  0.00  0.00    +0.000 C 
ATOM      9  O   UNL     1       2.694  14.311  17.855  0.00  0.00    +0.000 OA
ENDROOT
BRANCH   7  10
ATOM     10  C   UNL     1       1.177  15.421  20.206  0.00  0.00    +0.000 A 
ATOM     11  C   UNL     1       0.304  16.090  19.332  0.00  0.00    +0.000 A 
ATOM     12  C   UNL     1      -0.257  17.327  19.666  0.00  0.00    +0.000 A 
ATOM     13  C   UNL     1       0.048  17.925  20.884  0.00  0.00    +0.000 A 
ATOM     14  C   UNL     1       0.954  17.306  21.741  0.00  0.00    +0.000 A 
ATOM     15 CL   UNL     1       1.327  18.051  23.249  0.00  0.00    +0.000 Cl
ATOM     16  C   UNL     1       1.533  16.082  21.393  0.00  0.00    +0.000 A 
ATOM     17  F   UNL     1       2.463  15.548  22.202  0.00  0.00    +0.000 F 
ENDBRANCH   7  10
BRANCH   6  18
ATOM     18  C   UNL     1      -0.310  12.939  21.234  0.00  0.00    +0.000 A 
ATOM     19  C   UNL     1      -1.308  13.076  20.247  0.00  0.00    +0.000 A 
ATOM     20  C   UNL     1      -2.654  12.898  20.565  0.00  0.00    +0.000 A 
ATOM     21  C   UNL     1      -3.010  12.611  21.876  0.00  0.00    +0.000 A 
ATOM     22  F   UNL     1      -4.297  12.394  22.173  0.00  0.00    +0.000 F 
ATOM     23  C   UNL     1      -2.051  12.516  22.877  0.00  0.00    +0.000 A 
ATOM     24  C   UNL     1      -0.703  12.684  22.560  0.00  0.00    +0.000 A 
ENDBRANCH   6  18
BRANCH   5  25
ATOM     25  C   UNL     1       0.422   9.408  20.568  0.00  0.00    +0.000 C 
ATOM     26  C   UNL     1       0.971   9.409  21.997  0.00  0.00    +0.000 C 
ATOM     27  C   UNL     1      -1.103   9.538  20.531  0.00  0.00    +0.000 C 
ENDBRANCH   5  25
BRANCH   1  28
ATOM     28  C   UNL     1       1.701   8.922  17.670  0.00  0.00    +0.000 C 
BRANCH  28  29
ATOM     29  C   UNL     1       2.933   8.078  18.010  0.00  0.00    +0.000 C 
BRANCH  29  31
ATOM     30  C   UNL     1       3.674   5.696  17.701  0.00  0.00    +0.000 C 
ATOM     31  C   UNL     1       2.586   6.602  18.279  0.00  0.00    +0.000 C 
ATOM     32  C   UNL     1       2.403   6.307  19.769  0.00  0.00    +0.000 C 
ENDBRANCH  29  31
ENDBRANCH  28  29
ENDBRANCH   1  28
TORSDOF 6
ENDMDL
MODEL 9
REMARK VINA RESULT:      -6.3      6.718      8.683
REMARK  Name = 
REMARK  10 active torsions:
REMARK  status: ('A' for Active; 'I' for Inactive)
REMARK    1  A    between atoms: C_1  and  C_2
REMARK    2  A    between atoms: C_2  and  C_3
REMARK    3  A    between atoms: C_2  and  C_4
REMARK    4  A    between atoms: C_4  and  C_5
REMARK    5  A    between atoms: C_5  and  N_6
REMARK    6  A    between atoms: C_10  and  C_11
REMARK    7  A    between atoms: C_11  and  C_12
REMARK    8  A    between atoms: C_11  and  C_13
REMARK    9  A    between atoms: C_14  and  C_15
REMARK   10  A    between atoms: N_22  and  C_23
REMARK                            x       y       z     vdW  Elec       q    Type
REMARK                         _______ _______ _______ _____ _____    ______ ____
ROOT
ATOM      1  N   UNL     1       8.819  14.180  18.634  0.00  0.00    +0.000 N 
ATOM      2  N   UNL     1       7.716  14.267  17.845  0.00  0.00    +0.000 NA
ATOM      3  C   UNL     1       6.865  14.950  18.595  0.00  0.00    +0.000 A 
ATOM      4  C   UNL     1       7.393  15.334  19.824  0.00  0.00    +0.000 A 
ATOM      5  C   UNL     1       8.681  14.831  19.860  0.00  0.00    +0.000 A 
ATOM      6  C   UNL     1       6.359  16.093  20.583  0.00  0.00    +0.000 C 
ATOM      7  N   UNL     1       5.151  15.899  19.710  0.00  0.00    +0.000 N 
ATOM      8  C   UNL     1       5.472  15.303  18.467  0.00  0.00    +0.000 C 
ATOM      9  O   UNL     1       4.752  15.088  17.506  0.00  0.00    +0.000 OA
ENDROOT
BRANCH   7  10
ATOM     10  C   UNL     1       3.814  16.059  20.196  0.00  0.00    +0.000 A 
ATOM     11  C   UNL     1       3.314  17.339  20.489  0.00  0.00    +0.000 A 
ATOM     12  C   UNL     1       1.958  17.547  20.767  0.00  0.00    +0.000 A 
ATOM     13  C   UNL     1       1.072  16.474  20.762  0.00  0.00    +0.000 A 
ATOM     14  C   UNL     1       1.557  15.190  20.529  0.00  0.00    +0.000 A 
ATOM     15 CL   UNL     1       0.454  13.866  20.522  0.00  0.00    +0.000 Cl
ATOM     16  C   UNL     1       2.916  14.982  20.277  0.00  0.00    +0.000 A 
ATOM     17  F   UNL     1       3.367  13.725  20.134  0.00  0.00    +0.000 F 
ENDBRANCH   7  10
BRANCH   6  18
ATOM     18  C   UNL     1       6.255  15.488  21.968  0.00  0.00    +0.000 A 
ATOM     19  C   UNL     1       5.938  14.118  22.090  0.00  0.00    +0.000 A 
ATOM     20  C   UNL     1       6.031  13.473  23.323  0.00  0.00    +0.000 A 
ATOM     21  C   UNL     1       6.414  14.199  24.443  0.00  0.00    +0.000 A 
ATOM     22  F   UNL     1       6.548  13.570  25.617  0.00  0.00    +0.000 F 
ATOM     23  C   UNL     1       6.687  15.558  24.359  0.00  0.00    +0.000 A 
ATOM     24  C   UNL     1       6.604  16.205  23.126  0.00  0.00    +0.000 A 
ENDBRANCH   6  18
BRANCH   5  25
ATOM     25  C   UNL     1       9.726  14.898  20.941  0.00  0.00    +0.000 C 
ATOM     26  C   UNL     1       9.906  16.312  21.499  0.00  0.00    +0.000 C 
ATOM     27  C   UNL     1       9.491  13.863  22.044  0.00  0.00    +0.000 C 
ENDBRANCH   5  25
BRANCH   1  28
ATOM     28  C   UNL     1       9.957  13.462  18.085  0.00  0.00    +0.000 C 
BRANCH  28  29
ATOM     29  C   UNL     1       9.704  11.960  17.929  0.00  0.00    +0.000 C 
BRANCH  29  31
ATOM     30  C   UNL     1      11.561  11.883  19.621  0.00  0.00    +0.000 C 
ATOM     31  C   UNL     1      10.364  11.127  19.042  0.00  0.00    +0.000 C 
ATOM     32  C   UNL     1       9.386  10.769  20.162  0.00  0.00    +0.000 C 
ENDBRANCH  29  31
ENDBRANCH  28  29
ENDBRANCH   1  28
TORSDOF 6
ENDMDL
