MODEL 1
REMARK VINA RESULT:      -8.6      0.000      0.000
REMARK  Name = 
REMARK  2 active torsions:
REMARK  status: ('A' for Active; 'I' for Inactive)
REMARK    1  A    between atoms: C_2  and  C_5
REMARK    2  A    between atoms: C_9  and  C_10
REMARK                            x       y       z     vdW  Elec       q    Type
REMARK                         _______ _______ _______ _____ _____    ______ ____
ROOT
ATOM      1  C   UNL     1       2.902   4.996  17.317  0.00  0.00    +0.000 C 
ATOM      2  C   UNL     1       1.976   3.737  17.332  0.00  0.00    +0.000 C 
ATOM      3  N   UNL     1       1.872   2.987  18.618  0.00  0.00    +0.000 NA
ATOM      4  C   UNL     1       2.612   1.719  18.637  0.00  0.00    +0.000 C 
ATOM      5  C   UNL     1       4.008   2.088  19.064  0.00  0.00    +0.000 C 
ATOM      6  C   UNL     1       3.749   3.113  20.160  0.00  0.00    +0.000 C 
ATOM      7  C   UNL     1       2.355   3.697  19.827  0.00  0.00    +0.000 C 
ATOM      8  C   UNL     1       2.259   5.209  19.723  0.00  0.00    +0.000 A 
ATOM      9  C   UNL     1       1.834   5.987  20.814  0.00  0.00    +0.000 A 
ATOM     10  C   UNL     1       1.719   7.377  20.686  0.00  0.00    +0.000 A 
ATOM     11  C   UNL     1       2.017   7.998  19.471  0.00  0.00    +0.000 A 
ATOM     12  C   UNL     1       2.415   7.232  18.376  0.00  0.00    +0.000 A 
ATOM     13  C   UNL     1       2.531   5.840  18.499  0.00  0.00    +0.000 A 
ENDROOT
BRANCH   1  18
ATOM     14  C   UNL     1       6.724   5.164  17.920  0.00  0.00    +0.000 A 
ATOM     15  C   UNL     1       7.189   4.496  16.776  0.00  0.00    +0.000 A 
ATOM     16  C   UNL     1       6.282   3.985  15.846  0.00  0.00    +0.000 A 
ATOM     17  C   UNL     1       4.906   4.141  16.037  0.00  0.00    +0.000 A 
ATOM     18  C   UNL     1       4.410   4.801  17.173  0.00  0.00    +0.000 A 
ATOM     19  C   UNL     1       5.340   5.310  18.111  0.00  0.00    +0.000 A 
BRANCH  14  21
ATOM     20  F   UNL     1       8.101   7.007  18.594  0.00  0.00    +0.000 F 
ATOM     21  C   UNL     1       7.672   5.738  18.945  0.00  0.00    +0.000 C 
ATOM     22  F   UNL     1       8.779   4.916  19.062  0.00  0.00    +0.000 F 
ATOM     23  F   UNL     1       7.035   5.813  20.171  0.00  0.00    +0.000 F 
ENDBRANCH  14  21
ENDBRANCH   1  18
TORSDOF 2
ENDMDL
MODEL 2
REMARK VINA RESULT:      -8.1      2.542      5.120
REMARK  Name = 
REMARK  2 active torsions:
REMARK  status: ('A' for Active; 'I' for Inactive)
REMARK    1  A    between atoms: C_2  and  C_5
REMARK    2  A    between atoms: C_9  and  C_10
REMARK                            x       y       z     vdW  Elec       q    Type
REMARK                         _______ _______ _______ _____ _____    ______ ____
ROOT
ATOM      1  C   UNL     1       4.666   4.423  19.440  0.00  0.00    +0.000 C 
ATOM      2  C   UNL     1       4.439   2.887  19.614  0.00  0.00    +0.000 C 
ATOM      3  N   UNL     1       3.788   2.165  18.481  0.00  0.00    +0.000 NA
ATOM      4  C   UNL     1       2.385   1.805  18.725  0.00  0.00    +0.000 C 
ATOM      5  C   UNL     1       1.593   3.013  18.299  0.00  0.00    +0.000 C 
ATOM      6  C   UNL     1       2.312   3.436  17.024  0.00  0.00    +0.000 C 
ATOM      7  C   UNL     1       3.749   2.884  17.186  0.00  0.00    +0.000 C 
ATOM      8  C   UNL     1       4.883   3.880  17.010  0.00  0.00    +0.000 A 
ATOM      9  C   UNL     1       5.548   4.014  15.778  0.00  0.00    +0.000 A 
ATOM     10  C   UNL     1       6.613   4.913  15.647  0.00  0.00    +0.000 A 
ATOM     11  C   UNL     1       7.028   5.676  16.741  0.00  0.00    +0.000 A 
ATOM     12  C   UNL     1       6.391   5.532  17.972  0.00  0.00    +0.000 A 
ATOM     13  C   UNL     1       5.324   4.632  18.110  0.00  0.00    +0.000 A 
ENDROOT
BRANCH   1  18
ATOM     14  C   UNL     1       2.232   7.426  19.194  0.00  0.00    +0.000 A 
ATOM     15  C   UNL     1       1.370   7.139  20.264  0.00  0.00    +0.000 A 
ATOM     16  C   UNL     1       1.561   5.988  21.030  0.00  0.00    +0.000 A 
ATOM     17  C   UNL     1       2.617   5.115  20.747  0.00  0.00    +0.000 A 
ATOM     18  C   UNL     1       3.494   5.374  19.682  0.00  0.00    +0.000 A 
ATOM     19  C   UNL     1       3.286   6.541  18.910  0.00  0.00    +0.000 A 
BRANCH  14  21
ATOM     20  F   UNL     1       1.649   9.750  19.102  0.00  0.00    +0.000 F 
ATOM     21  C   UNL     1       2.063   8.665  18.348  0.00  0.00    +0.000 C 
ATOM     22  F   UNL     1       1.119   8.427  17.364  0.00  0.00    +0.000 F 
ATOM     23  F   UNL     1       3.269   8.980  17.749  0.00  0.00    +0.000 F 
ENDBRANCH  14  21
ENDBRANCH   1  18
TORSDOF 2
ENDMDL
MODEL 3
REMARK VINA RESULT:      -8.0      0.982      1.449
REMARK  Name = 
REMARK  2 active torsions:
REMARK  status: ('A' for Active; 'I' for Inactive)
REMARK    1  A    between atoms: C_2  and  C_5
REMARK    2  A    between atoms: C_9  and  C_10
REMARK                            x       y       z     vdW  Elec       q    Type
REMARK                         _______ _______ _______ _____ _____    ______ ____
ROOT
ATOM      1  C   UNL     1       2.749   5.311  17.349  0.00  0.00    +0.000 C 
ATOM      2  C   UNL     1       1.945   4.000  17.630  0.00  0.00    +0.000 C 
ATOM      3  N   UNL     1       2.012   3.448  19.015  0.00  0.00    +0.000 NA
ATOM      4  C   UNL     1       2.862   2.257  19.146  0.00  0.00    +0.000 C 
ATOM      5  C   UNL     1       4.250   2.794  19.385  0.00  0.00    +0.000 C 
ATOM      6  C   UNL     1       3.988   3.949  20.342  0.00  0.00    +0.000 C 
ATOM      7  C   UNL     1       2.524   4.366  20.059  0.00  0.00    +0.000 C 
ATOM      8  C   UNL     1       2.284   5.833  19.749  0.00  0.00    +0.000 A 
ATOM      9  C   UNL     1       1.880   6.732  20.752  0.00  0.00    +0.000 A 
ATOM     10  C   UNL     1       1.630   8.073  20.437  0.00  0.00    +0.000 A 
ATOM     11  C   UNL     1       1.773   8.526  19.123  0.00  0.00    +0.000 A 
ATOM     12  C   UNL     1       2.149   7.637  18.117  0.00  0.00    +0.000 A 
ATOM     13  C   UNL     1       2.400   6.292  18.427  0.00  0.00    +0.000 A 
ENDROOT
BRANCH   1  18
ATOM     14  C   UNL     1       6.531   6.131  17.194  0.00  0.00    +0.000 A 
ATOM     15  C   UNL     1       7.003   5.012  16.489  0.00  0.00    +0.000 A 
ATOM     16  C   UNL     1       6.118   4.008  16.096  0.00  0.00    +0.000 A 
ATOM     17  C   UNL     1       4.754   4.108  16.389  0.00  0.00    +0.000 A 
ATOM     18  C   UNL     1       4.253   5.214  17.095  0.00  0.00    +0.000 A 
ATOM     19  C   UNL     1       5.162   6.223  17.493  0.00  0.00    +0.000 A 
BRANCH  14  21
ATOM     20  F   UNL     1       8.212   6.881  18.731  0.00  0.00    +0.000 F 
ATOM     21  C   UNL     1       7.455   7.243  17.630  0.00  0.00    +0.000 C 
ATOM     22  F   UNL     1       6.709   8.362  17.956  0.00  0.00    +0.000 F 
ATOM     23  F   UNL     1       8.313   7.561  16.592  0.00  0.00    +0.000 F 
ENDBRANCH  14  21
ENDBRANCH   1  18
TORSDOF 2
ENDMDL
MODEL 4
REMARK VINA RESULT:      -7.9      2.962      5.337
REMARK  Name = 
REMARK  2 active torsions:
REMARK  status: ('A' for Active; 'I' for Inactive)
REMARK    1  A    between atoms: C_2  and  C_5
REMARK    2  A    between atoms: C_9  and  C_10
REMARK                            x       y       z     vdW  Elec       q    Type
REMARK                         _______ _______ _______ _____ _____    ______ ____
ROOT
ATOM      1  C   UNL     1       4.724   5.392  19.024  0.00  0.00    +0.000 C 
ATOM      2  C   UNL     1       4.325   4.059  19.737  0.00  0.00    +0.000 C 
ATOM      3  N   UNL     1       3.529   3.078  18.943  0.00  0.00    +0.000 NA
ATOM      4  C   UNL     1       2.109   3.015  19.313  0.00  0.00    +0.000 C 
ATOM      5  C   UNL     1       1.445   4.090  18.492  0.00  0.00    +0.000 C 
ATOM      6  C   UNL     1       2.135   3.938  17.143  0.00  0.00    +0.000 C 
ATOM      7  C   UNL     1       3.503   3.293  17.477  0.00  0.00    +0.000 C 
ATOM      8  C   UNL     1       4.736   4.004  16.945  0.00  0.00    +0.000 A 
ATOM      9  C   UNL     1       5.341   3.607  15.740  0.00  0.00    +0.000 A 
ATOM     10  C   UNL     1       6.498   4.253  15.286  0.00  0.00    +0.000 A 
ATOM     11  C   UNL     1       7.062   5.291  16.031  0.00  0.00    +0.000 A 
ATOM     12  C   UNL     1       6.483   5.675  17.240  0.00  0.00    +0.000 A 
ATOM     13  C   UNL     1       5.325   5.031  17.700  0.00  0.00    +0.000 A 
ENDROOT
BRANCH   1  18
ATOM     14  C   UNL     1       1.845   7.849  19.847  0.00  0.00    +0.000 A 
ATOM     15  C   UNL     1       1.731   8.523  18.620  0.00  0.00    +0.000 A 
ATOM     16  C   UNL     1       2.583   8.202  17.563  0.00  0.00    +0.000 A 
ATOM     17  C   UNL     1       3.550   7.202  17.708  0.00  0.00    +0.000 A 
ATOM     18  C   UNL     1       3.690   6.513  18.923  0.00  0.00    +0.000 A 
ATOM     19  C   UNL     1       2.823   6.851  19.990  0.00  0.00    +0.000 A 
BRANCH  14  21
ATOM     20  F   UNL     1       1.654   8.510  22.144  0.00  0.00    +0.000 F 
ATOM     21  C   UNL     1       0.937   8.161  21.012  0.00  0.00    +0.000 C 
ATOM     22  F   UNL     1       0.163   7.051  21.305  0.00  0.00    +0.000 F 
ATOM     23  F   UNL     1       0.105   9.214  20.677  0.00  0.00    +0.000 F 
ENDBRANCH  14  21
ENDBRANCH   1  18
TORSDOF 2
ENDMDL
MODEL 5
REMARK VINA RESULT:      -7.4      2.956      5.080
REMARK  Name = 
REMARK  2 active torsions:
REMARK  status: ('A' for Active; 'I' for Inactive)
REMARK    1  A    between atoms: C_2  and  C_5
REMARK    2  A    between atoms: C_9  and  C_10
REMARK                            x       y       z     vdW  Elec       q    Type
REMARK                         _______ _______ _______ _____ _____    ______ ____
ROOT
ATOM      1  C   UNL     1       2.099   4.718  18.179  0.00  0.00    +0.000 C 
ATOM      2  C   UNL     1       3.089   4.116  17.131  0.00  0.00    +0.000 C 
ATOM      3  N   UNL     1       4.490   3.872  17.584  0.00  0.00    +0.000 NA
ATOM      4  C   UNL     1       5.464   4.846  17.074  0.00  0.00    +0.000 C 
ATOM      5  C   UNL     1       5.433   5.982  18.063  0.00  0.00    +0.000 C 
ATOM      6  C   UNL     1       5.353   5.248  19.395  0.00  0.00    +0.000 C 
ATOM      7  C   UNL     1       4.712   3.882  19.049  0.00  0.00    +0.000 C 
ATOM      8  C   UNL     1       3.486   3.484  19.852  0.00  0.00    +0.000 A 
ATOM      9  C   UNL     1       3.594   2.649  20.978  0.00  0.00    +0.000 A 
ATOM     10  C   UNL     1       2.447   2.266  21.684  0.00  0.00    +0.000 A 
ATOM     11  C   UNL     1       1.187   2.704  21.269  0.00  0.00    +0.000 A 
ATOM     12  C   UNL     1       1.068   3.512  20.139  0.00  0.00    +0.000 A 
ATOM     13  C   UNL     1       2.214   3.898  19.428  0.00  0.00    +0.000 A 
ENDROOT
BRANCH   1  18
ATOM     14  C   UNL     1       1.660   8.184  19.851  0.00  0.00    +0.000 A 
ATOM     15  C   UNL     1       2.125   9.019  18.823  0.00  0.00    +0.000 A 
ATOM     16  C   UNL     1       2.590   8.468  17.628  0.00  0.00    +0.000 A 
ATOM     17  C   UNL     1       2.589   7.083  17.437  0.00  0.00    +0.000 A 
ATOM     18  C   UNL     1       2.132   6.221  18.447  0.00  0.00    +0.000 A 
ATOM     19  C   UNL     1       1.668   6.793  19.656  0.00  0.00    +0.000 A 
BRANCH  14  21
ATOM     20  F   UNL     1       2.056   8.588  22.181  0.00  0.00    +0.000 F 
ATOM     21  C   UNL     1       1.140   8.741  21.154  0.00  0.00    +0.000 C 
ATOM     22  F   UNL     1      -0.028   8.086  21.504  0.00  0.00    +0.000 F 
ATOM     23  F   UNL     1       0.871  10.090  21.003  0.00  0.00    +0.000 F 
ENDBRANCH  14  21
ENDBRANCH   1  18
TORSDOF 2
ENDMDL
MODEL 6
REMARK VINA RESULT:      -7.3      3.091      5.931
REMARK  Name = 
REMARK  2 active torsions:
REMARK  status: ('A' for Active; 'I' for Inactive)
REMARK    1  A    between atoms: C_2  and  C_5
REMARK    2  A    between atoms: C_9  and  C_10
REMARK                            x       y       z     vdW  Elec       q    Type
REMARK                         _______ _______ _______ _____ _____    ______ ____
ROOT
ATOM      1  C   UNL     1       4.838   6.173  16.458  0.00  0.00    +0.000 C 
ATOM      2  C   UNL     1       5.892   7.284  16.769  0.00  0.00    +0.000 C 
ATOM      3  N   UNL     1       7.294   6.838  17.020  0.00  0.00    +0.000 NA
ATOM      4  C   UNL     1       7.695   6.884  18.433  0.00  0.00    +0.000 C 
ATOM      5  C   UNL     1       7.261   5.560  19.005  0.00  0.00    +0.000 C 
ATOM      6  C   UNL     1       7.630   4.591  17.890  0.00  0.00    +0.000 C 
ATOM      7  C   UNL     1       7.622   5.454  16.605  0.00  0.00    +0.000 C 
ATOM      8  C   UNL     1       6.771   4.947  15.453  0.00  0.00    +0.000 A 
ATOM      9  C   UNL     1       7.335   4.191  14.410  0.00  0.00    +0.000 A 
ATOM     10  C   UNL     1       6.539   3.764  13.340  0.00  0.00    +0.000 A 
ATOM     11  C   UNL     1       5.182   4.094  13.296  0.00  0.00    +0.000 A 
ATOM     12  C   UNL     1       4.620   4.865  14.313  0.00  0.00    +0.000 A 
ATOM     13  C   UNL     1       5.413   5.296  15.387  0.00  0.00    +0.000 A 
ENDROOT
BRANCH   1  18
ATOM     14  C   UNL     1       3.265   3.335  18.573  0.00  0.00    +0.000 A 
ATOM     15  C   UNL     1       3.027   4.019  19.775  0.00  0.00    +0.000 A 
ATOM     16  C   UNL     1       3.390   5.361  19.901  0.00  0.00    +0.000 A 
ATOM     17  C   UNL     1       3.984   6.040  18.832  0.00  0.00    +0.000 A 
ATOM     18  C   UNL     1       4.237   5.381  17.618  0.00  0.00    +0.000 A 
ATOM     19  C   UNL     1       3.869   4.019  17.505  0.00  0.00    +0.000 A 
BRANCH  14  21
ATOM     20  F   UNL     1       3.968   1.042  18.538  0.00  0.00    +0.000 F 
ATOM     21  C   UNL     1       2.880   1.886  18.394  0.00  0.00    +0.000 C 
ATOM     22  F   UNL     1       2.346   1.703  17.130  0.00  0.00    +0.000 F 
ATOM     23  F   UNL     1       1.929   1.543  19.338  0.00  0.00    +0.000 F 
ENDBRANCH  14  21
ENDBRANCH   1  18
TORSDOF 2
ENDMDL
MODEL 7
REMARK VINA RESULT:      -7.2      2.931      5.780
REMARK  Name = 
REMARK  2 active torsions:
REMARK  status: ('A' for Active; 'I' for Inactive)
REMARK    1  A    between atoms: C_2  and  C_5
REMARK    2  A    between atoms: C_9  and  C_10
REMARK                            x       y       z     vdW  Elec       q    Type
REMARK                         _______ _______ _______ _____ _____    ______ ____
ROOT
ATOM      1  C   UNL     1       4.558   5.744  16.208  0.00  0.00    +0.000 C 
ATOM      2  C   UNL     1       5.397   6.998  16.614  0.00  0.00    +0.000 C 
ATOM      3  N   UNL     1       6.842   6.779  16.913  0.00  0.00    +0.000 NA
ATOM      4  C   UNL     1       7.173   6.822  18.343  0.00  0.00    +0.000 C 
ATOM      5  C   UNL     1       6.945   5.418  18.839  0.00  0.00    +0.000 C 
ATOM      6  C   UNL     1       7.517   4.579  17.703  0.00  0.00    +0.000 C 
ATOM      7  C   UNL     1       7.415   5.490  16.456  0.00  0.00    +0.000 C 
ATOM      8  C   UNL     1       6.707   4.907  15.245  0.00  0.00    +0.000 A 
ATOM      9  C   UNL     1       7.431   4.307  14.200  0.00  0.00    +0.000 A 
ATOM     10  C   UNL     1       6.761   3.807  13.076  0.00  0.00    +0.000 A 
ATOM     11  C   UNL     1       5.371   3.908  12.982  0.00  0.00    +0.000 A 
ATOM     12  C   UNL     1       4.648   4.525  14.002  0.00  0.00    +0.000 A 
ATOM     13  C   UNL     1       5.313   5.028  15.130  0.00  0.00    +0.000 A 
ENDROOT
BRANCH   1  18
ATOM     14  C   UNL     1       2.863   4.382  19.414  0.00  0.00    +0.000 A 
ATOM     15  C   UNL     1       3.251   3.034  19.349  0.00  0.00    +0.000 A 
ATOM     16  C   UNL     1       4.022   2.577  18.280  0.00  0.00    +0.000 A 
ATOM     17  C   UNL     1       4.426   3.455  17.269  0.00  0.00    +0.000 A 
ATOM     18  C   UNL     1       4.052   4.808  17.304  0.00  0.00    +0.000 A 
ATOM     19  C   UNL     1       3.265   5.258  18.391  0.00  0.00    +0.000 A 
BRANCH  14  21
ATOM     20  F   UNL     1       0.710   4.535  20.457  0.00  0.00    +0.000 F 
ATOM     21  C   UNL     1       2.037   4.918  20.558  0.00  0.00    +0.000 C 
ATOM     22  F   UNL     1       2.097   6.301  20.564  0.00  0.00    +0.000 F 
ATOM     23  F   UNL     1       2.542   4.440  21.754  0.00  0.00    +0.000 F 
ENDBRANCH  14  21
ENDBRANCH   1  18
TORSDOF 2
ENDMDL
MODEL 8
REMARK VINA RESULT:      -6.8      1.946      2.507
REMARK  Name = 
REMARK  2 active torsions:
REMARK  status: ('A' for Active; 'I' for Inactive)
REMARK    1  A    between atoms: C_2  and  C_5
REMARK    2  A    between atoms: C_9  and  C_10
REMARK                            x       y       z     vdW  Elec       q    Type
REMARK                         _______ _______ _______ _____ _____    ______ ____
ROOT
ATOM      1  C   UNL     1       2.465   5.797  17.761  0.00  0.00    +0.000 C 
ATOM      2  C   UNL     1       1.494   4.579  17.645  0.00  0.00    +0.000 C 
ATOM      3  N   UNL     1       1.304   3.744  18.868  0.00  0.00    +0.000 NA
ATOM      4  C   UNL     1       1.994   2.449  18.825  0.00  0.00    +0.000 C 
ATOM      5  C   UNL     1       3.383   2.731  19.336  0.00  0.00    +0.000 C 
ATOM      6  C   UNL     1       3.114   3.684  20.493  0.00  0.00    +0.000 C 
ATOM      7  C   UNL     1       1.758   4.346  20.145  0.00  0.00    +0.000 C 
ATOM      8  C   UNL     1       1.723   5.864  20.147  0.00  0.00    +0.000 A 
ATOM      9  C   UNL     1       1.279   6.579  21.273  0.00  0.00    +0.000 A 
ATOM     10  C   UNL     1       1.221   7.978  21.242  0.00  0.00    +0.000 A 
ATOM     11  C   UNL     1       1.597   8.672  20.089  0.00  0.00    +0.000 A 
ATOM     12  C   UNL     1       2.015   7.970  18.959  0.00  0.00    +0.000 A 
ATOM     13  C   UNL     1       2.073   6.569  18.985  0.00  0.00    +0.000 A 
ENDROOT
BRANCH   1  18
ATOM     14  C   UNL     1       5.978   4.842  16.439  0.00  0.00    +0.000 A 
ATOM     15  C   UNL     1       6.741   5.017  17.604  0.00  0.00    +0.000 A 
ATOM     16  C   UNL     1       6.133   5.456  18.781  0.00  0.00    +0.000 A 
ATOM     17  C   UNL     1       4.759   5.716  18.816  0.00  0.00    +0.000 A 
ATOM     18  C   UNL     1       3.970   5.553  17.667  0.00  0.00    +0.000 A 
ATOM     19  C   UNL     1       4.600   5.112  16.478  0.00  0.00    +0.000 A 
BRANCH  14  21
ATOM     20  F   UNL     1       7.966   4.565  15.127  0.00  0.00    +0.000 F 
ATOM     21  C   UNL     1       6.597   4.361  15.148  0.00  0.00    +0.000 C 
ATOM     22  F   UNL     1       6.033   5.042  14.084  0.00  0.00    +0.000 F 
ATOM     23  F   UNL     1       6.351   3.008  14.997  0.00  0.00    +0.000 F 
ENDBRANCH  14  21
ENDBRANCH   1  18
TORSDOF 2
ENDMDL
MODEL 9
REMARK VINA RESULT:      -6.7      3.841      5.489
REMARK  Name = 
REMARK  2 active torsions:
REMARK  status: ('A' for Active; 'I' for Inactive)
REMARK    1  A    between atoms: C_2  and  C_5
REMARK    2  A    between atoms: C_9  and  C_10
REMARK                            x       y       z     vdW  Elec       q    Type
REMARK                         _______ _______ _______ _____ _____    ______ ____
ROOT
ATOM      1  C   UNL     1       5.829   3.751  16.867  0.00  0.00    +0.000 C 
ATOM      2  C   UNL     1       6.548   4.617  17.950  0.00  0.00    +0.000 C 
ATOM      3  N   UNL     1       5.984   5.972  18.221  0.00  0.00    +0.000 NA
ATOM      4  C   UNL     1       6.773   7.075  17.659  0.00  0.00    +0.000 C 
ATOM      5  C   UNL     1       6.265   7.238  16.250  0.00  0.00    +0.000 C 
ATOM      6  C   UNL     1       4.762   7.071  16.427  0.00  0.00    +0.000 C 
ATOM      7  C   UNL     1       4.614   6.221  17.713  0.00  0.00    +0.000 C 
ATOM      8  C   UNL     1       3.769   4.963  17.601  0.00  0.00    +0.000 A 
ATOM      9  C   UNL     1       2.414   4.962  17.975  0.00  0.00    +0.000 A 
ATOM     10  C   UNL     1       1.663   3.783  17.898  0.00  0.00    +0.000 A 
ATOM     11  C   UNL     1       2.257   2.598  17.456  0.00  0.00    +0.000 A 
ATOM     12  C   UNL     1       3.606   2.584  17.107  0.00  0.00    +0.000 A 
ATOM     13  C   UNL     1       4.364   3.762  17.183  0.00  0.00    +0.000 A 
ENDROOT
BRANCH   1  18
ATOM     14  C   UNL     1       5.625   3.758  12.999  0.00  0.00    +0.000 A 
ATOM     15  C   UNL     1       6.793   4.471  12.687  0.00  0.00    +0.000 A 
ATOM     16  C   UNL     1       7.612   4.956  13.707  0.00  0.00    +0.000 A 
ATOM     17  C   UNL     1       7.285   4.730  15.048  0.00  0.00    +0.000 A 
ATOM     18  C   UNL     1       6.122   4.022  15.392  0.00  0.00    +0.000 A 
ATOM     19  C   UNL     1       5.298   3.540  14.347  0.00  0.00    +0.000 A 
BRANCH  14  21
ATOM     20  F   UNL     1       3.433   2.997  12.394  0.00  0.00    +0.000 F 
ATOM     21  C   UNL     1       4.718   3.209  11.924  0.00  0.00    +0.000 C 
ATOM     22  F   UNL     1       5.223   2.006  11.463  0.00  0.00    +0.000 F 
ATOM     23  F   UNL     1       4.658   4.105  10.871  0.00  0.00    +0.000 F 
ENDBRANCH  14  21
ENDBRANCH   1  18
TORSDOF 2
ENDMDL
