MODEL 1
REMARK VINA RESULT:      -7.3      0.000      0.000
REMARK  Name = 
REMARK  6 active torsions:
REMARK  status: ('A' for Active; 'I' for Inactive)
REMARK    1  A    between atoms: N_1  and  C_2
REMARK    2  A    between atoms: C_5  and  C_7
REMARK    3  A    between atoms: C_7  and  C_8
REMARK    4  A    between atoms: C_8  and  C_9
REMARK    5  A    between atoms: C_9  and  C_10
REMARK    6  A    between atoms: C_16  and  C_17
REMARK                            x       y       z     vdW  Elec       q    Type
REMARK                         _______ _______ _______ _____ _____    ______ ____
ROOT
ATOM      1  C   UNL     1       6.668   4.694  17.699  0.00  0.00    +0.000 C 
ATOM      2  C   UNL     1       5.327   4.867  18.460  0.00  0.00    +0.000 C 
ATOM      3  N   UNL     1       4.757   6.121  17.987  0.00  0.00    +0.000 N 
ATOM      4  C   UNL     1       3.470   6.584  18.117  0.00  0.00    +0.000 C 
ATOM      5  O   UNL     1       3.146   7.711  17.737  0.00  0.00    +0.000 OA
ATOM      6  C   UNL     1       5.732   6.851  17.194  0.00  0.00    +0.000 C 
ATOM      7  C   UNL     1       6.588   5.748  16.567  0.00  0.00    +0.000 C 
ENDROOT
BRANCH   1   8
ATOM      8  N   UNL     1       7.839   4.910  18.559  0.00  0.00    +0.000 NA
ATOM      9  H   UNL     1       8.543   4.195  18.371  0.00  0.00    +0.000 HD
ATOM     10  H   UNL     1       7.584   4.805  19.540  0.00  0.00    +0.000 HD
ENDBRANCH   1   8
BRANCH   7  11
ATOM     11  C   UNL     1       5.920   5.175  15.327  0.00  0.00    +0.000 C 
ATOM     12  C   UNL     1       6.756   4.709  14.161  0.00  0.00    +0.000 C 
ATOM     13  C   UNL     1       6.038   3.705  15.015  0.00  0.00    +0.000 C 
ENDBRANCH   7  11
BRANCH   4  14
ATOM     14  C   UNL     1       2.448   5.642  18.730  0.00  0.00    +0.000 C 
BRANCH  14  15
ATOM     15  C   UNL     1       2.049   4.522  17.763  0.00  0.00    +0.000 C 
BRANCH  15  16
ATOM     16  C   UNL     1       1.273   3.399  18.466  0.00  0.00    +0.000 C 
BRANCH  16  17
ATOM     17  C   UNL     1       1.810   3.098  19.821  0.00  0.00    +0.000 A 
ATOM     18  C   UNL     1       3.068   2.551  20.159  0.00  0.00    +0.000 A 
ATOM     19  N   UNL     1       3.227   2.399  21.477  0.00  0.00    +0.000 NA
ATOM     20  N   UNL     1       2.068   2.845  21.988  0.00  0.00    +0.000 N 
ATOM     21  C   UNL     1       1.188   3.274  21.039  0.00  0.00    +0.000 A 
ATOM     22  H   UNL     1       1.947   2.829  22.995  0.00  0.00    +0.000 HD
ENDBRANCH  16  17
ENDBRANCH  15  16
ENDBRANCH  14  15
ENDBRANCH   4  14
TORSDOF 6
ENDMDL
MODEL 2
REMARK VINA RESULT:      -7.2      4.206      7.685
REMARK  Name = 
REMARK  6 active torsions:
REMARK  status: ('A' for Active; 'I' for Inactive)
REMARK    1  A    between atoms: N_1  and  C_2
REMARK    2  A    between atoms: C_5  and  C_7
REMARK    3  A    between atoms: C_7  and  C_8
REMARK    4  A    between atoms: C_8  and  C_9
REMARK    5  A    between atoms: C_9  and  C_10
REMARK    6  A    between atoms: C_16  and  C_17
REMARK                            x       y       z     vdW  Elec       q    Type
REMARK                         _______ _______ _______ _____ _____    ______ ____
ROOT
ATOM      1  C   UNL     1       4.979   4.326  19.286  0.00  0.00    +0.000 C 
ATOM      2  C   UNL     1       6.293   5.151  19.314  0.00  0.00    +0.000 C 
ATOM      3  N   UNL     1       6.568   5.515  17.931  0.00  0.00    +0.000 N 
ATOM      4  C   UNL     1       7.427   6.471  17.448  0.00  0.00    +0.000 C 
ATOM      5  O   UNL     1       7.622   6.615  16.238  0.00  0.00    +0.000 OA
ATOM      6  C   UNL     1       5.685   4.789  17.034  0.00  0.00    +0.000 C 
ATOM      7  C   UNL     1       4.416   4.578  17.865  0.00  0.00    +0.000 C 
ENDROOT
BRANCH   1   8
ATOM      8  N   UNL     1       5.203   2.896  19.535  0.00  0.00    +0.000 NA
ATOM      9  H   UNL     1       5.422   2.746  20.520  0.00  0.00    +0.000 HD
ATOM     10  H   UNL     1       6.012   2.566  19.010  0.00  0.00    +0.000 HD
ENDBRANCH   1   8
BRANCH   7  11
ATOM     11  C   UNL     1       3.530   5.812  17.834  0.00  0.00    +0.000 C 
ATOM     12  C   UNL     1       2.030   5.672  17.911  0.00  0.00    +0.000 C 
ATOM     13  C   UNL     1       2.789   6.243  19.074  0.00  0.00    +0.000 C 
ENDBRANCH   7  11
BRANCH   4  14
ATOM     14  C   UNL     1       8.117   7.367  18.463  0.00  0.00    +0.000 C 
BRANCH  14  15
ATOM     15  C   UNL     1       8.209   8.817  17.977  0.00  0.00    +0.000 C 
BRANCH  15  16
ATOM     16  C   UNL     1       8.980   9.709  18.961  0.00  0.00    +0.000 C 
BRANCH  16  17
ATOM     17  C   UNL     1       9.453  10.973  18.333  0.00  0.00    +0.000 A 
ATOM     18  C   UNL     1       8.679  12.063  17.876  0.00  0.00    +0.000 A 
ATOM     19  N   UNL     1       9.424  13.041  17.352  0.00  0.00    +0.000 NA
ATOM     20  N   UNL     1      10.679  12.578  17.470  0.00  0.00    +0.000 N 
ATOM     21  C   UNL     1      10.750  11.346  18.050  0.00  0.00    +0.000 A 
ATOM     22  H   UNL     1      11.440  13.158  17.132  0.00  0.00    +0.000 HD
ENDBRANCH  16  17
ENDBRANCH  15  16
ENDBRANCH  14  15
ENDBRANCH   4  14
TORSDOF 6
ENDMDL
MODEL 3
REMARK VINA RESULT:      -7.2      1.156      1.437
REMARK  Name = 
REMARK  6 active torsions:
REMARK  status: ('A' for Active; 'I' for Inactive)
REMARK    1  A    between atoms: N_1  and  C_2
REMARK    2  A    between atoms: C_5  and  C_7
REMARK    3  A    between atoms: C_7  and  C_8
REMARK    4  A    between atoms: C_8  and  C_9
REMARK    5  A    between atoms: C_9  and  C_10
REMARK    6  A    between atoms: C_16  and  C_17
REMARK                            x       y       z     vdW  Elec       q    Type
REMARK                         _______ _______ _______ _____ _____    ______ ____
ROOT
ATOM      1  C   UNL     1       6.618   4.457  17.351  0.00  0.00    +0.000 C 
ATOM      2  C   UNL     1       5.276   4.700  18.089  0.00  0.00    +0.000 C 
ATOM      3  N   UNL     1       4.865   6.053  17.739  0.00  0.00    +0.000 N 
ATOM      4  C   UNL     1       3.633   6.642  17.882  0.00  0.00    +0.000 C 
ATOM      5  O   UNL     1       3.448   7.832  17.617  0.00  0.00    +0.000 OA
ATOM      6  C   UNL     1       5.944   6.746  17.055  0.00  0.00    +0.000 C 
ATOM      7  C   UNL     1       6.698   5.624  16.336  0.00  0.00    +0.000 C 
ENDROOT
BRANCH   1   8
ATOM      8  N   UNL     1       7.772   4.448  18.260  0.00  0.00    +0.000 NA
ATOM      9  H   UNL     1       8.191   5.378  18.296  0.00  0.00    +0.000 HD
ATOM     10  H   UNL     1       8.496   3.823  17.909  0.00  0.00    +0.000 HD
ENDBRANCH   1   8
BRANCH   7  11
ATOM     11  C   UNL     1       6.020   5.262  15.025  0.00  0.00    +0.000 C 
ATOM     12  C   UNL     1       6.846   4.836  13.836  0.00  0.00    +0.000 C 
ATOM     13  C   UNL     1       5.996   3.829  14.556  0.00  0.00    +0.000 C 
ENDBRANCH   7  11
BRANCH   4  14
ATOM     14  C   UNL     1       2.490   5.762  18.363  0.00  0.00    +0.000 C 
BRANCH  14  15
ATOM     15  C   UNL     1       2.282   5.871  19.877  0.00  0.00    +0.000 C 
BRANCH  15  16
ATOM     16  C   UNL     1       1.448   4.707  20.431  0.00  0.00    +0.000 C 
BRANCH  16  17
ATOM     17  C   UNL     1       1.745   3.418  19.749  0.00  0.00    +0.000 A 
ATOM     18  C   UNL     1       2.949   2.678  19.767  0.00  0.00    +0.000 A 
ATOM     19  N   UNL     1       2.879   1.562  19.034  0.00  0.00    +0.000 NA
ATOM     20  N   UNL     1       1.630   1.586  18.542  0.00  0.00    +0.000 N 
ATOM     21  C   UNL     1       0.912   2.675  18.940  0.00  0.00    +0.000 A 
ATOM     22  H   UNL     1       1.335   0.825  17.940  0.00  0.00    +0.000 HD
ENDBRANCH  16  17
ENDBRANCH  15  16
ENDBRANCH  14  15
ENDBRANCH   4  14
TORSDOF 6
ENDMDL
MODEL 4
REMARK VINA RESULT:      -7.1      1.040      1.385
REMARK  Name = 
REMARK  6 active torsions:
REMARK  status: ('A' for Active; 'I' for Inactive)
REMARK    1  A    between atoms: N_1  and  C_2
REMARK    2  A    between atoms: C_5  and  C_7
REMARK    3  A    between atoms: C_7  and  C_8
REMARK    4  A    between atoms: C_8  and  C_9
REMARK    5  A    between atoms: C_9  and  C_10
REMARK    6  A    between atoms: C_16  and  C_17
REMARK                            x       y       z     vdW  Elec       q    Type
REMARK                         _______ _______ _______ _____ _____    ______ ____
ROOT
ATOM      1  C   UNL     1       6.733   4.923  17.730  0.00  0.00    +0.000 C 
ATOM      2  C   UNL     1       5.411   5.123  18.517  0.00  0.00    +0.000 C 
ATOM      3  N   UNL     1       4.792   6.319  17.964  0.00  0.00    +0.000 N 
ATOM      4  C   UNL     1       3.498   6.758  18.097  0.00  0.00    +0.000 C 
ATOM      5  O   UNL     1       3.130   7.842  17.639  0.00  0.00    +0.000 OA
ATOM      6  C   UNL     1       5.722   7.007  17.084  0.00  0.00    +0.000 C 
ATOM      7  C   UNL     1       6.589   5.879  16.519  0.00  0.00    +0.000 C 
ENDROOT
BRANCH   1   8
ATOM      8  N   UNL     1       7.924   5.238  18.531  0.00  0.00    +0.000 NA
ATOM      9  H   UNL     1       8.757   5.201  17.943  0.00  0.00    +0.000 HD
ATOM     10  H   UNL     1       8.057   4.536  19.258  0.00  0.00    +0.000 HD
ENDBRANCH   1   8
BRANCH   7  11
ATOM     11  C   UNL     1       5.901   5.191  15.352  0.00  0.00    +0.000 C 
ATOM     12  C   UNL     1       6.709   4.700  14.176  0.00  0.00    +0.000 C 
ATOM     13  C   UNL     1       6.094   3.712  15.125  0.00  0.00    +0.000 C 
ENDBRANCH   7  11
BRANCH   4  14
ATOM     14  C   UNL     1       2.521   5.843  18.817  0.00  0.00    +0.000 C 
BRANCH  14  15
ATOM     15  C   UNL     1       1.924   4.790  17.877  0.00  0.00    +0.000 C 
BRANCH  15  16
ATOM     16  C   UNL     1       1.557   3.496  18.616  0.00  0.00    +0.000 C 
BRANCH  16  17
ATOM     17  C   UNL     1       2.756   2.728  19.051  0.00  0.00    +0.000 A 
ATOM     18  C   UNL     1       3.420   2.780  20.297  0.00  0.00    +0.000 A 
ATOM     19  N   UNL     1       4.477   1.963  20.353  0.00  0.00    +0.000 NA
ATOM     20  N   UNL     1       4.493   1.387  19.140  0.00  0.00    +0.000 N 
ATOM     21  C   UNL     1       3.486   1.811  18.325  0.00  0.00    +0.000 A 
ATOM     22  H   UNL     1       5.223   0.712  18.937  0.00  0.00    +0.000 HD
ENDBRANCH  16  17
ENDBRANCH  15  16
ENDBRANCH  14  15
ENDBRANCH   4  14
TORSDOF 6
ENDMDL
MODEL 5
REMARK VINA RESULT:      -7.0      1.676      1.949
REMARK  Name = 
REMARK  6 active torsions:
REMARK  status: ('A' for Active; 'I' for Inactive)
REMARK    1  A    between atoms: N_1  and  C_2
REMARK    2  A    between atoms: C_5  and  C_7
REMARK    3  A    between atoms: C_7  and  C_8
REMARK    4  A    between atoms: C_8  and  C_9
REMARK    5  A    between atoms: C_9  and  C_10
REMARK    6  A    between atoms: C_16  and  C_17
REMARK                            x       y       z     vdW  Elec       q    Type
REMARK                         _______ _______ _______ _____ _____    ______ ____
ROOT
ATOM      1  C   UNL     1       6.750   6.016  16.958  0.00  0.00    +0.000 C 
ATOM      2  C   UNL     1       5.894   6.006  18.252  0.00  0.00    +0.000 C 
ATOM      3  N   UNL     1       4.550   6.395  17.845  0.00  0.00    +0.000 N 
ATOM      4  C   UNL     1       3.370   6.259  18.534  0.00  0.00    +0.000 C 
ATOM      5  O   UNL     1       2.309   6.713  18.099  0.00  0.00    +0.000 OA
ATOM      6  C   UNL     1       4.558   6.877  16.475  0.00  0.00    +0.000 C 
ATOM      7  C   UNL     1       5.701   6.097  15.822  0.00  0.00    +0.000 C 
ENDROOT
BRANCH   1   8
ATOM      8  N   UNL     1       7.690   7.145  16.910  0.00  0.00    +0.000 NA
ATOM      9  H   UNL     1       8.520   6.882  16.377  0.00  0.00    +0.000 HD
ATOM     10  H   UNL     1       8.016   7.376  17.848  0.00  0.00    +0.000 HD
ENDBRANCH   1   8
BRANCH   7  11
ATOM     11  C   UNL     1       5.244   4.711  15.395  0.00  0.00    +0.000 C 
ATOM     12  C   UNL     1       5.725   4.121  14.092  0.00  0.00    +0.000 C 
ATOM     13  C   UNL     1       6.218   3.560  15.394  0.00  0.00    +0.000 C 
ENDBRANCH   7  11
BRANCH   4  14
ATOM     14  C   UNL     1       3.414   5.504  19.853  0.00  0.00    +0.000 C 
BRANCH  14  15
ATOM     15  C   UNL     1       2.012   5.269  20.425  0.00  0.00    +0.000 C 
BRANCH  15  16
ATOM     16  C   UNL     1       1.759   3.790  20.748  0.00  0.00    +0.000 C 
BRANCH  16  17
ATOM     17  C   UNL     1       2.206   2.884  19.654  0.00  0.00    +0.000 A 
ATOM     18  C   UNL     1       3.415   2.159  19.562  0.00  0.00    +0.000 A 
ATOM     19  N   UNL     1       3.504   1.445  18.435  0.00  0.00    +0.000 NA
ATOM     20  N   UNL     1       2.351   1.715  17.800  0.00  0.00    +0.000 N 
ATOM     21  C   UNL     1       1.542   2.569  18.487  0.00  0.00    +0.000 A 
ATOM     22  H   UNL     1       2.184   1.278  16.900  0.00  0.00    +0.000 HD
ENDBRANCH  16  17
ENDBRANCH  15  16
ENDBRANCH  14  15
ENDBRANCH   4  14
TORSDOF 6
ENDMDL
MODEL 6
REMARK VINA RESULT:      -6.7      1.989      2.971
REMARK  Name = 
REMARK  6 active torsions:
REMARK  status: ('A' for Active; 'I' for Inactive)
REMARK    1  A    between atoms: N_1  and  C_2
REMARK    2  A    between atoms: C_5  and  C_7
REMARK    3  A    between atoms: C_7  and  C_8
REMARK    4  A    between atoms: C_8  and  C_9
REMARK    5  A    between atoms: C_9  and  C_10
REMARK    6  A    between atoms: C_16  and  C_17
REMARK                            x       y       z     vdW  Elec       q    Type
REMARK                         _______ _______ _______ _____ _____    ______ ____
ROOT
ATOM      1  C   UNL     1       6.791   5.756  15.875  0.00  0.00    +0.000 C 
ATOM      2  C   UNL     1       5.455   5.063  16.250  0.00  0.00    +0.000 C 
ATOM      3  N   UNL     1       5.671   4.456  17.556  0.00  0.00    +0.000 N 
ATOM      4  C   UNL     1       4.740   3.987  18.451  0.00  0.00    +0.000 C 
ATOM      5  O   UNL     1       5.073   3.417  19.493  0.00  0.00    +0.000 OA
ATOM      6  C   UNL     1       7.080   4.502  17.907  0.00  0.00    +0.000 C 
ATOM      7  C   UNL     1       7.588   5.763  17.203  0.00  0.00    +0.000 C 
ENDROOT
BRANCH   1   8
ATOM      8  N   UNL     1       7.517   5.049  14.811  0.00  0.00    +0.000 NA
ATOM      9  H   UNL     1       6.917   4.335  14.397  0.00  0.00    +0.000 HD
ATOM     10  H   UNL     1       8.321   4.555  15.196  0.00  0.00    +0.000 HD
ENDBRANCH   1   8
BRANCH   7  11
ATOM     11  C   UNL     1       7.283   7.007  18.021  0.00  0.00    +0.000 C 
ATOM     12  C   UNL     1       8.223   8.187  17.989  0.00  0.00    +0.000 C 
ATOM     13  C   UNL     1       6.876   8.285  17.332  0.00  0.00    +0.000 C 
ENDBRANCH   7  11
BRANCH   4  14
ATOM     14  C   UNL     1       3.275   4.217  18.120  0.00  0.00    +0.000 C 
BRANCH  14  15
ATOM     15  C   UNL     1       2.831   5.646  18.453  0.00  0.00    +0.000 C 
BRANCH  15  16
ATOM     16  C   UNL     1       2.482   5.811  19.939  0.00  0.00    +0.000 C 
BRANCH  16  17
ATOM     17  C   UNL     1       1.917   4.569  20.533  0.00  0.00    +0.000 A 
ATOM     18  C   UNL     1       2.393   3.839  21.645  0.00  0.00    +0.000 A 
ATOM     19  N   UNL     1       1.651   2.758  21.909  0.00  0.00    +0.000 NA
ATOM     20  N   UNL     1       0.698   2.793  20.964  0.00  0.00    +0.000 N 
ATOM     21  C   UNL     1       0.813   3.855  20.117  0.00  0.00    +0.000 A 
ATOM     22  H   UNL     1      -0.000   2.057  20.957  0.00  0.00    +0.000 HD
ENDBRANCH  16  17
ENDBRANCH  15  16
ENDBRANCH  14  15
ENDBRANCH   4  14
TORSDOF 6
ENDMDL
MODEL 7
REMARK VINA RESULT:      -6.7      2.368      4.737
REMARK  Name = 
REMARK  6 active torsions:
REMARK  status: ('A' for Active; 'I' for Inactive)
REMARK    1  A    between atoms: N_1  and  C_2
REMARK    2  A    between atoms: C_5  and  C_7
REMARK    3  A    between atoms: C_7  and  C_8
REMARK    4  A    between atoms: C_8  and  C_9
REMARK    5  A    between atoms: C_9  and  C_10
REMARK    6  A    between atoms: C_16  and  C_17
REMARK                            x       y       z     vdW  Elec       q    Type
REMARK                         _______ _______ _______ _____ _____    ______ ____
ROOT
ATOM      1  C   UNL     1       4.117   2.820  19.744  0.00  0.00    +0.000 C 
ATOM      2  C   UNL     1       4.887   4.059  19.218  0.00  0.00    +0.000 C 
ATOM      3  N   UNL     1       4.744   4.035  17.769  0.00  0.00    +0.000 N 
ATOM      4  C   UNL     1       4.977   5.041  16.864  0.00  0.00    +0.000 C 
ATOM      5  O   UNL     1       4.893   4.852  15.648  0.00  0.00    +0.000 OA
ATOM      6  C   UNL     1       4.169   2.770  17.340  0.00  0.00    +0.000 C 
ATOM      7  C   UNL     1       3.288   2.353  18.521  0.00  0.00    +0.000 C 
ENDROOT
BRANCH   1   8
ATOM      8  N   UNL     1       5.012   1.760  20.229  0.00  0.00    +0.000 NA
ATOM      9  H   UNL     1       5.822   1.683  19.614  0.00  0.00    +0.000 HD
ATOM     10  H   UNL     1       4.542   0.856  20.196  0.00  0.00    +0.000 HD
ENDBRANCH   1   8
BRANCH   7  11
ATOM     11  C   UNL     1       1.939   3.052  18.471  0.00  0.00    +0.000 C 
ATOM     12  C   UNL     1       0.673   2.279  18.751  0.00  0.00    +0.000 C 
ATOM     13  C   UNL     1       1.165   3.294  19.742  0.00  0.00    +0.000 C 
ENDBRANCH   7  11
BRANCH   4  14
ATOM     14  C   UNL     1       5.323   6.413  17.420  0.00  0.00    +0.000 C 
BRANCH  14  15
ATOM     15  C   UNL     1       4.147   7.389  17.309  0.00  0.00    +0.000 C 
BRANCH  15  16
ATOM     16  C   UNL     1       2.818   6.744  17.729  0.00  0.00    +0.000 C 
BRANCH  16  17
ATOM     17  C   UNL     1       2.285   7.311  18.998  0.00  0.00    +0.000 A 
ATOM     18  C   UNL     1       1.720   8.588  19.213  0.00  0.00    +0.000 A 
ATOM     19  N   UNL     1       1.349   8.780  20.483  0.00  0.00    +0.000 NA
ATOM     20  N   UNL     1       1.679   7.626  21.085  0.00  0.00    +0.000 N 
ATOM     21  C   UNL     1       2.242   6.716  20.241  0.00  0.00    +0.000 A 
ATOM     22  H   UNL     1       1.491   7.530  22.077  0.00  0.00    +0.000 HD
ENDBRANCH  16  17
ENDBRANCH  15  16
ENDBRANCH  14  15
ENDBRANCH   4  14
TORSDOF 6
ENDMDL
MODEL 8
REMARK VINA RESULT:      -6.7      0.910      1.279
REMARK  Name = 
REMARK  6 active torsions:
REMARK  status: ('A' for Active; 'I' for Inactive)
REMARK    1  A    between atoms: N_1  and  C_2
REMARK    2  A    between atoms: C_5  and  C_7
REMARK    3  A    between atoms: C_7  and  C_8
REMARK    4  A    between atoms: C_8  and  C_9
REMARK    5  A    between atoms: C_9  and  C_10
REMARK    6  A    between atoms: C_16  and  C_17
REMARK                            x       y       z     vdW  Elec       q    Type
REMARK                         _______ _______ _______ _____ _____    ______ ____
ROOT
ATOM      1  C   UNL     1       6.605   4.497  17.378  0.00  0.00    +0.000 C 
ATOM      2  C   UNL     1       5.299   4.879  18.123  0.00  0.00    +0.000 C 
ATOM      3  N   UNL     1       4.962   6.223  17.677  0.00  0.00    +0.000 N 
ATOM      4  C   UNL     1       3.771   6.897  17.800  0.00  0.00    +0.000 C 
ATOM      5  O   UNL     1       3.652   8.072  17.447  0.00  0.00    +0.000 OA
ATOM      6  C   UNL     1       6.063   6.795  16.920  0.00  0.00    +0.000 C 
ATOM      7  C   UNL     1       6.730   5.577  16.274  0.00  0.00    +0.000 C 
ENDROOT
BRANCH   1   8
ATOM      8  N   UNL     1       7.779   4.486  18.261  0.00  0.00    +0.000 NA
ATOM      9  H   UNL     1       8.307   5.352  18.147  0.00  0.00    +0.000 HD
ATOM     10  H   UNL     1       8.413   3.731  18.001  0.00  0.00    +0.000 HD
ENDBRANCH   1   8
BRANCH   7  11
ATOM     11  C   UNL     1       5.998   5.159  15.009  0.00  0.00    +0.000 C 
ATOM     12  C   UNL     1       6.775   4.723  13.791  0.00  0.00    +0.000 C 
ATOM     13  C   UNL     1       5.993   3.713  14.581  0.00  0.00    +0.000 C 
ENDBRANCH   7  11
BRANCH   4  14
ATOM     14  C   UNL     1       2.590   6.129  18.371  0.00  0.00    +0.000 C 
BRANCH  14  15
ATOM     15  C   UNL     1       2.331   6.486  19.839  0.00  0.00    +0.000 C 
BRANCH  15  16
ATOM     16  C   UNL     1       1.139   5.713  20.420  0.00  0.00    +0.000 C 
BRANCH  16  17
ATOM     17  C   UNL     1       1.477   4.297  20.732  0.00  0.00    +0.000 A 
ATOM     18  C   UNL     1       2.323   3.806  21.752  0.00  0.00    +0.000 A 
ATOM     19  N   UNL     1       2.416   2.472  21.747  0.00  0.00    +0.000 NA
ATOM     20  N   UNL     1       1.631   2.106  20.721  0.00  0.00    +0.000 N 
ATOM     21  C   UNL     1       1.047   3.159  20.083  0.00  0.00    +0.000 A 
ATOM     22  H   UNL     1       1.539   1.117  20.514  0.00  0.00    +0.000 HD
ENDBRANCH  16  17
ENDBRANCH  15  16
ENDBRANCH  14  15
ENDBRANCH   4  14
TORSDOF 6
ENDMDL
MODEL 9
REMARK VINA RESULT:      -6.7      1.601      1.931
REMARK  Name = 
REMARK  6 active torsions:
REMARK  status: ('A' for Active; 'I' for Inactive)
REMARK    1  A    between atoms: N_1  and  C_2
REMARK    2  A    between atoms: C_5  and  C_7
REMARK    3  A    between atoms: C_7  and  C_8
REMARK    4  A    between atoms: C_8  and  C_9
REMARK    5  A    between atoms: C_9  and  C_10
REMARK    6  A    between atoms: C_16  and  C_17
REMARK                            x       y       z     vdW  Elec       q    Type
REMARK                         _______ _______ _______ _____ _____    ______ ____
ROOT
ATOM      1  C   UNL     1       6.535   5.483  18.003  0.00  0.00    +0.000 C 
ATOM      2  C   UNL     1       5.496   5.448  19.154  0.00  0.00    +0.000 C 
ATOM      3  N   UNL     1       4.319   6.144  18.653  0.00  0.00    +0.000 N 
ATOM      4  C   UNL     1       3.039   6.138  19.150  0.00  0.00    +0.000 C 
ATOM      5  O   UNL     1       2.153   6.847  18.668  0.00  0.00    +0.000 OA
ATOM      6  C   UNL     1       4.624   6.812  17.399  0.00  0.00    +0.000 C 
ATOM      7  C   UNL     1       5.708   5.931  16.772  0.00  0.00    +0.000 C 
ENDROOT
BRANCH   1   8
ATOM      8  N   UNL     1       7.648   6.404  18.272  0.00  0.00    +0.000 NA
ATOM      9  H   UNL     1       7.318   7.194  18.826  0.00  0.00    +0.000 HD
ATOM     10  H   UNL     1       8.004   6.795  17.401  0.00  0.00    +0.000 HD
ENDBRANCH   1   8
BRANCH   7  11
ATOM     11  C   UNL     1       5.096   4.737  16.056  0.00  0.00    +0.000 C 
ATOM     12  C   UNL     1       5.418   4.476  14.605  0.00  0.00    +0.000 C 
ATOM     13  C   UNL     1       5.960   3.564  15.668  0.00  0.00    +0.000 C 
ENDBRANCH   7  11
BRANCH   4  14
ATOM     14  C   UNL     1       2.746   5.204  20.312  0.00  0.00    +0.000 C 
BRANCH  14  15
ATOM     15  C   UNL     1       1.297   4.704  20.294  0.00  0.00    +0.000 C 
BRANCH  15  16
ATOM     16  C   UNL     1       1.214   3.173  20.228  0.00  0.00    +0.000 C 
BRANCH  16  17
ATOM     17  C   UNL     1       2.358   2.572  19.489  0.00  0.00    +0.000 A 
ATOM     18  C   UNL     1       2.425   2.220  18.122  0.00  0.00    +0.000 A 
ATOM     19  N   UNL     1       3.605   1.690  17.783  0.00  0.00    +0.000 NA
ATOM     20  N   UNL     1       4.295   1.697  18.935  0.00  0.00    +0.000 N 
ATOM     21  C   UNL     1       3.594   2.215  19.984  0.00  0.00    +0.000 A 
ATOM     22  H   UNL     1       5.242   1.334  18.931  0.00  0.00    +0.000 HD
ENDBRANCH  16  17
ENDBRANCH  15  16
ENDBRANCH  14  15
ENDBRANCH   4  14
TORSDOF 6
ENDMDL
