MODEL 1
REMARK VINA RESULT:      -7.2      0.000      0.000
REMARK  Name = 
REMARK  11 active torsions:
REMARK  status: ('A' for Active; 'I' for Inactive)
REMARK    1  A    between atoms: C_1  and  C_2
REMARK    2  A    between atoms: C_2  and  N_3
REMARK    3  A    between atoms: N_3  and  C_4
REMARK    4  A    between atoms: N_3  and  C_6
REMARK    5  A    between atoms: C_4  and  C_5
REMARK    6  A    between atoms: C_6  and  C_7
REMARK    7  A    between atoms: C_7  and  N_8
REMARK    8  A    between atoms: N_8  and  C_9
REMARK    9  A    between atoms: N_8  and  C_11
REMARK   10  A    between atoms: C_9  and  C_10
REMARK   11  A    between atoms: C_16  and  C_17
REMARK                            x       y       z     vdW  Elec       q    Type
REMARK                         _______ _______ _______ _____ _____    ______ ____
ROOT
ATOM      1  C   UNL     1       2.427   7.368  18.657  0.00  0.00    +0.000 A 
ATOM      2  C   UNL     1       1.910   8.399  17.841  0.00  0.00    +0.000 A 
ATOM      3  C   UNL     1       1.180   9.476  18.363  0.00  0.00    +0.000 A 
ATOM      4  C   UNL     1       0.937   9.549  19.728  0.00  0.00    +0.000 A 
ATOM      5  C   UNL     1       0.251  10.676  20.336  0.00  0.00    +0.000 A 
ATOM      6  C   UNL     1       0.029  10.699  21.658  0.00  0.00    +0.000 A 
ATOM      7  C   UNL     1       0.487   9.582  22.529  0.00  0.00    +0.000 A 
ATOM      8  O   UNL     1       0.275   9.587  23.735  0.00  0.00    +0.000 OA
ATOM      9  O   UNL     1       1.174   8.542  21.922  0.00  0.00    +0.000 OA
ATOM     10  C   UNL     1       1.403   8.523  20.535  0.00  0.00    +0.000 A 
ATOM     11  C   UNL     1       2.130   7.443  20.021  0.00  0.00    +0.000 A 
ENDROOT
BRANCH   6  12
ATOM     12  C   UNL     1      -0.612  11.912  22.270  0.00  0.00    +0.000 C 
ATOM     13  N   UNL     1      -0.121  13.111  22.187  0.00  0.00    +0.000 NA
ATOM     14  N   UNL     1      -1.795  11.833  22.946  0.00  0.00    +0.000 N 
ATOM     15  H   UNL     1       0.741  13.137  21.638  0.00  0.00    +0.000 HD
ATOM     16  H   UNL     1      -2.438  11.118  22.605  0.00  0.00    +0.000 HD
ATOM     17  H   UNL     1      -2.229  12.743  23.051  0.00  0.00    +0.000 HD
ENDBRANCH   6  12
BRANCH   1  18
ATOM     18  N   UNL     1       3.214   6.343  18.113  0.00  0.00    +0.000 N 
BRANCH  18  19
ATOM     19  C   UNL     1       2.793   4.971  18.450  0.00  0.00    +0.000 C 
ATOM     20  C   UNL     1       1.577   4.415  17.734  0.00  0.00    +0.000 C 
ENDBRANCH  18  19
BRANCH  18  21
ATOM     21  C   UNL     1       4.281   6.654  17.134  0.00  0.00    +0.000 C 
BRANCH  21  22
ATOM     22  C   UNL     1       4.943   5.350  16.602  0.00  0.00    +0.000 C 
BRANCH  22  23
ATOM     23  N   UNL     1       6.400   5.149  16.838  0.00  0.00    +0.000 NA
BRANCH  23  25
ATOM     24  C   UNL     1       6.105   4.025  14.556  0.00  0.00    +0.000 C 
ATOM     25  C   UNL     1       7.023   4.713  15.567  0.00  0.00    +0.000 C 
ENDBRANCH  23  25
BRANCH  23  26
ATOM     26  C   UNL     1       7.070   6.299  17.459  0.00  0.00    +0.000 C 
ATOM     27  C   UNL     1       7.773   6.023  18.785  0.00  0.00    +0.000 C 
ENDBRANCH  23  26
ENDBRANCH  22  23
ENDBRANCH  21  22
ENDBRANCH  18  21
ENDBRANCH   1  18
TORSDOF 8
ENDMDL
MODEL 2
REMARK VINA RESULT:      -7.1      1.159      1.294
REMARK  Name = 
REMARK  11 active torsions:
REMARK  status: ('A' for Active; 'I' for Inactive)
REMARK    1  A    between atoms: C_1  and  C_2
REMARK    2  A    between atoms: C_2  and  N_3
REMARK    3  A    between atoms: N_3  and  C_4
REMARK    4  A    between atoms: N_3  and  C_6
REMARK    5  A    between atoms: C_4  and  C_5
REMARK    6  A    between atoms: C_6  and  C_7
REMARK    7  A    between atoms: C_7  and  N_8
REMARK    8  A    between atoms: N_8  and  C_9
REMARK    9  A    between atoms: N_8  and  C_11
REMARK   10  A    between atoms: C_9  and  C_10
REMARK   11  A    between atoms: C_16  and  C_17
REMARK                            x       y       z     vdW  Elec       q    Type
REMARK                         _______ _______ _______ _____ _____    ______ ____
ROOT
ATOM      1  C   UNL     1       2.608   6.681  18.836  0.00  0.00    +0.000 A 
ATOM      2  C   UNL     1       2.365   7.573  17.767  0.00  0.00    +0.000 A 
ATOM      3  C   UNL     1       1.744   8.816  17.950  0.00  0.00    +0.000 A 
ATOM      4  C   UNL     1       1.337   9.204  19.219  0.00  0.00    +0.000 A 
ATOM      5  C   UNL     1       0.755  10.508  19.484  0.00  0.00    +0.000 A 
ATOM      6  C   UNL     1       0.367  10.836  20.725  0.00  0.00    +0.000 A 
ATOM      7  C   UNL     1       0.532   9.881  21.854  0.00  0.00    +0.000 A 
ATOM      8  O   UNL     1       0.166  10.166  22.988  0.00  0.00    +0.000 OA
ATOM      9  O   UNL     1       1.128   8.662  21.575  0.00  0.00    +0.000 OA
ATOM     10  C   UNL     1       1.532   8.322  20.272  0.00  0.00    +0.000 A 
ATOM     11  C   UNL     1       2.149   7.079  20.095  0.00  0.00    +0.000 A 
ENDROOT
BRANCH   6  12
ATOM     12  C   UNL     1      -0.158  12.220  20.984  0.00  0.00    +0.000 C 
ATOM     13  N   UNL     1       0.336  13.029  21.872  0.00  0.00    +0.000 NA
ATOM     14  N   UNL     1      -1.197  12.737  20.267  0.00  0.00    +0.000 N 
ATOM     15  H   UNL     1       1.138  12.623  22.358  0.00  0.00    +0.000 HD
ATOM     16  H   UNL     1      -1.254  12.417  19.299  0.00  0.00    +0.000 HD
ATOM     17  H   UNL     1      -1.251  13.745  20.357  0.00  0.00    +0.000 HD
ENDBRANCH   6  12
BRANCH   1  18
ATOM     18  N   UNL     1       3.295   5.477  18.631  0.00  0.00    +0.000 N 
BRANCH  18  19
ATOM     19  C   UNL     1       2.649   4.524  17.712  0.00  0.00    +0.000 C 
ATOM     20  C   UNL     1       1.551   3.641  18.275  0.00  0.00    +0.000 C 
ENDBRANCH  18  19
BRANCH  18  21
ATOM     21  C   UNL     1       4.657   5.286  19.182  0.00  0.00    +0.000 C 
BRANCH  21  22
ATOM     22  C   UNL     1       5.476   4.294  18.306  0.00  0.00    +0.000 C 
BRANCH  22  23
ATOM     23  N   UNL     1       6.948   4.496  18.198  0.00  0.00    +0.000 NA
BRANCH  23  25
ATOM     24  C   UNL     1       6.182   4.258  15.767  0.00  0.00    +0.000 C 
ATOM     25  C   UNL     1       7.313   4.513  16.763  0.00  0.00    +0.000 C 
ENDBRANCH  23  25
BRANCH  23  26
ATOM     26  C   UNL     1       7.451   5.653  18.949  0.00  0.00    +0.000 C 
ATOM     27  C   UNL     1       7.844   6.868  18.116  0.00  0.00    +0.000 C 
ENDBRANCH  23  26
ENDBRANCH  22  23
ENDBRANCH  21  22
ENDBRANCH  18  21
ENDBRANCH   1  18
TORSDOF 8
ENDMDL
MODEL 3
REMARK VINA RESULT:      -7.1      2.210      4.352
REMARK  Name = 
REMARK  11 active torsions:
REMARK  status: ('A' for Active; 'I' for Inactive)
REMARK    1  A    between atoms: C_1  and  C_2
REMARK    2  A    between atoms: C_2  and  N_3
REMARK    3  A    between atoms: N_3  and  C_4
REMARK    4  A    between atoms: N_3  and  C_6
REMARK    5  A    between atoms: C_4  and  C_5
REMARK    6  A    between atoms: C_6  and  C_7
REMARK    7  A    between atoms: C_7  and  N_8
REMARK    8  A    between atoms: N_8  and  C_9
REMARK    9  A    between atoms: N_8  and  C_11
REMARK   10  A    between atoms: C_9  and  C_10
REMARK   11  A    between atoms: C_16  and  C_17
REMARK                            x       y       z     vdW  Elec       q    Type
REMARK                         _______ _______ _______ _____ _____    ______ ____
ROOT
ATOM      1  C   UNL     1       4.300   5.665  18.561  0.00  0.00    +0.000 A 
ATOM      2  C   UNL     1       4.237   6.414  17.365  0.00  0.00    +0.000 A 
ATOM      3  C   UNL     1       3.402   7.531  17.220  0.00  0.00    +0.000 A 
ATOM      4  C   UNL     1       2.594   7.931  18.275  0.00  0.00    +0.000 A 
ATOM      5  C   UNL     1       1.764   9.121  18.211  0.00  0.00    +0.000 A 
ATOM      6  C   UNL     1       0.990   9.463  19.252  0.00  0.00    +0.000 A 
ATOM      7  C   UNL     1       0.973   8.641  20.492  0.00  0.00    +0.000 A 
ATOM      8  O   UNL     1       0.258   8.937  21.442  0.00  0.00    +0.000 OA
ATOM      9  O   UNL     1       1.807   7.535  20.536  0.00  0.00    +0.000 OA
ATOM     10  C   UNL     1       2.615   7.180  19.441  0.00  0.00    +0.000 A 
ATOM     11  C   UNL     1       3.443   6.063  19.592  0.00  0.00    +0.000 A 
ENDROOT
BRANCH   6  12
ATOM     12  C   UNL     1       0.203  10.741  19.187  0.00  0.00    +0.000 C 
ATOM     13  N   UNL     1       0.722  11.899  18.911  0.00  0.00    +0.000 NA
ATOM     14  N   UNL     1      -1.145  10.763  19.395  0.00  0.00    +0.000 N 
ATOM     15  H   UNL     1       1.724  11.835  18.720  0.00  0.00    +0.000 HD
ATOM     16  H   UNL     1      -1.640   9.923  19.093  0.00  0.00    +0.000 HD
ATOM     17  H   UNL     1      -1.565  11.618  19.050  0.00  0.00    +0.000 HD
ENDBRANCH   6  12
BRANCH   1  18
ATOM     18  N   UNL     1       5.197   4.597  18.698  0.00  0.00    +0.000 N 
BRANCH  18  19
ATOM     19  C   UNL     1       6.557   4.839  18.184  0.00  0.00    +0.000 C 
ATOM     20  C   UNL     1       7.477   5.713  19.017  0.00  0.00    +0.000 C 
ENDBRANCH  18  19
BRANCH  18  21
ATOM     21  C   UNL     1       4.816   3.389  19.466  0.00  0.00    +0.000 C 
BRANCH  21  22
ATOM     22  C   UNL     1       3.735   2.566  18.708  0.00  0.00    +0.000 C 
BRANCH  22  23
ATOM     23  N   UNL     1       2.481   2.212  19.429  0.00  0.00    +0.000 NA
BRANCH  23  25
ATOM     24  C   UNL     1       1.281   2.732  21.630  0.00  0.00    +0.000 C 
ATOM     25  C   UNL     1       2.571   2.740  20.810  0.00  0.00    +0.000 C 
ENDBRANCH  23  25
BRANCH  23  26
ATOM     26  C   UNL     1       1.253   2.606  18.726  0.00  0.00    +0.000 C 
ATOM     27  C   UNL     1       1.368   3.827  17.819  0.00  0.00    +0.000 C 
ENDBRANCH  23  26
ENDBRANCH  22  23
ENDBRANCH  21  22
ENDBRANCH  18  21
ENDBRANCH   1  18
TORSDOF 8
ENDMDL
MODEL 4
REMARK VINA RESULT:      -7.1      0.397      1.609
REMARK  Name = 
REMARK  11 active torsions:
REMARK  status: ('A' for Active; 'I' for Inactive)
REMARK    1  A    between atoms: C_1  and  C_2
REMARK    2  A    between atoms: C_2  and  N_3
REMARK    3  A    between atoms: N_3  and  C_4
REMARK    4  A    between atoms: N_3  and  C_6
REMARK    5  A    between atoms: C_4  and  C_5
REMARK    6  A    between atoms: C_6  and  C_7
REMARK    7  A    between atoms: C_7  and  N_8
REMARK    8  A    between atoms: N_8  and  C_9
REMARK    9  A    between atoms: N_8  and  C_11
REMARK   10  A    between atoms: C_9  and  C_10
REMARK   11  A    between atoms: C_16  and  C_17
REMARK                            x       y       z     vdW  Elec       q    Type
REMARK                         _______ _______ _______ _____ _____    ______ ____
ROOT
ATOM      1  C   UNL     1       2.322   7.479  18.704  0.00  0.00    +0.000 A 
ATOM      2  C   UNL     1       1.842   8.538  17.901  0.00  0.00    +0.000 A 
ATOM      3  C   UNL     1       1.135   9.624  18.433  0.00  0.00    +0.000 A 
ATOM      4  C   UNL     1       0.877   9.681  19.795  0.00  0.00    +0.000 A 
ATOM      5  C   UNL     1       0.214  10.815  20.415  0.00  0.00    +0.000 A 
ATOM      6  C   UNL     1      -0.023  10.821  21.735  0.00  0.00    +0.000 A 
ATOM      7  C   UNL     1       0.394   9.678  22.591  0.00  0.00    +0.000 A 
ATOM      8  O   UNL     1       0.168   9.668  23.795  0.00  0.00    +0.000 OA
ATOM      9  O   UNL     1       1.061   8.631  21.975  0.00  0.00    +0.000 OA
ATOM     10  C   UNL     1       1.306   8.629  20.590  0.00  0.00    +0.000 A 
ATOM     11  C   UNL     1       2.011   7.540  20.066  0.00  0.00    +0.000 A 
ENDROOT
BRANCH   6  12
ATOM     12  C   UNL     1      -0.640  12.040  22.360  0.00  0.00    +0.000 C 
ATOM     13  N   UNL     1      -0.159  13.241  22.236  0.00  0.00    +0.000 NA
ATOM     14  N   UNL     1      -1.787  11.967  23.094  0.00  0.00    +0.000 N 
ATOM     15  H   UNL     1       0.675  13.262  21.645  0.00  0.00    +0.000 HD
ATOM     16  H   UNL     1      -2.443  11.243  22.796  0.00  0.00    +0.000 HD
ATOM     17  H   UNL     1      -2.220  12.876  23.207  0.00  0.00    +0.000 HD
ENDBRANCH   6  12
BRANCH   1  18
ATOM     18  N   UNL     1       3.088   6.443  18.152  0.00  0.00    +0.000 N 
BRANCH  18  19
ATOM     19  C   UNL     1       2.718   5.082  18.577  0.00  0.00    +0.000 C 
ATOM     20  C   UNL     1       1.831   4.274  17.648  0.00  0.00    +0.000 C 
ENDBRANCH  18  19
BRANCH  18  21
ATOM     21  C   UNL     1       4.079   6.727  17.088  0.00  0.00    +0.000 C 
BRANCH  21  22
ATOM     22  C   UNL     1       5.368   5.877  17.289  0.00  0.00    +0.000 C 
BRANCH  22  23
ATOM     23  N   UNL     1       6.571   6.214  16.478  0.00  0.00    +0.000 NA
BRANCH  23  25
ATOM     24  C   UNL     1       7.804   6.231  18.722  0.00  0.00    +0.000 C 
ATOM     25  C   UNL     1       7.557   6.880  17.360  0.00  0.00    +0.000 C 
ENDBRANCH  23  25
BRANCH  23  26
ATOM     26  C   UNL     1       7.123   5.081  15.726  0.00  0.00    +0.000 C 
ATOM     27  C   UNL     1       6.175   4.414  14.734  0.00  0.00    +0.000 C 
ENDBRANCH  23  26
ENDBRANCH  22  23
ENDBRANCH  21  22
ENDBRANCH  18  21
ENDBRANCH   1  18
TORSDOF 8
ENDMDL
MODEL 5
REMARK VINA RESULT:      -7.0      1.582      3.299
REMARK  Name = 
REMARK  11 active torsions:
REMARK  status: ('A' for Active; 'I' for Inactive)
REMARK    1  A    between atoms: C_1  and  C_2
REMARK    2  A    between atoms: C_2  and  N_3
REMARK    3  A    between atoms: N_3  and  C_4
REMARK    4  A    between atoms: N_3  and  C_6
REMARK    5  A    between atoms: C_4  and  C_5
REMARK    6  A    between atoms: C_6  and  C_7
REMARK    7  A    between atoms: C_7  and  N_8
REMARK    8  A    between atoms: N_8  and  C_9
REMARK    9  A    between atoms: N_8  and  C_11
REMARK   10  A    between atoms: C_9  and  C_10
REMARK   11  A    between atoms: C_16  and  C_17
REMARK                            x       y       z     vdW  Elec       q    Type
REMARK                         _______ _______ _______ _____ _____    ______ ____
ROOT
ATOM      1  C   UNL     1       2.460   7.487  18.686  0.00  0.00    +0.000 A 
ATOM      2  C   UNL     1       1.900   8.500  17.876  0.00  0.00    +0.000 A 
ATOM      3  C   UNL     1       1.123   9.541  18.403  0.00  0.00    +0.000 A 
ATOM      4  C   UNL     1       0.875   9.596  19.768  0.00  0.00    +0.000 A 
ATOM      5  C   UNL     1       0.141  10.688  20.381  0.00  0.00    +0.000 A 
ATOM      6  C   UNL     1      -0.083  10.694  21.704  0.00  0.00    +0.000 A 
ATOM      7  C   UNL     1       0.422   9.593  22.568  0.00  0.00    +0.000 A 
ATOM      8  O   UNL     1       0.209   9.582  23.775  0.00  0.00    +0.000 OA
ATOM      9  O   UNL     1       1.154   8.588  21.957  0.00  0.00    +0.000 OA
ATOM     10  C   UNL     1       1.385   8.586  20.570  0.00  0.00    +0.000 A 
ATOM     11  C   UNL     1       2.159   7.543  20.050  0.00  0.00    +0.000 A 
ENDROOT
BRANCH   6  12
ATOM     12  C   UNL     1      -0.778  11.874  22.321  0.00  0.00    +0.000 C 
ATOM     13  N   UNL     1      -1.796  11.779  23.123  0.00  0.00    +0.000 NA
ATOM     14  N   UNL     1      -0.357  13.152  22.094  0.00  0.00    +0.000 N 
ATOM     15  H   UNL     1      -2.054  10.806  23.302  0.00  0.00    +0.000 HD
ATOM     16  H   UNL     1       0.649  13.255  21.954  0.00  0.00    +0.000 HD
ATOM     17  H   UNL     1      -0.732  13.798  22.779  0.00  0.00    +0.000 HD
ENDBRANCH   6  12
BRANCH   1  18
ATOM     18  N   UNL     1       3.292   6.501  18.138  0.00  0.00    +0.000 N 
BRANCH  18  19
ATOM     19  C   UNL     1       4.231   6.965  17.102  0.00  0.00    +0.000 C 
ATOM     20  C   UNL     1       5.657   6.450  17.166  0.00  0.00    +0.000 C 
ENDBRANCH  18  19
BRANCH  18  21
ATOM     21  C   UNL     1       3.314   5.134  18.709  0.00  0.00    +0.000 C 
BRANCH  21  22
ATOM     22  C   UNL     1       2.100   4.302  18.205  0.00  0.00    +0.000 C 
BRANCH  22  23
ATOM     23  N   UNL     1       1.748   3.052  18.934  0.00  0.00    +0.000 NA
BRANCH  23  25
ATOM     24  C   UNL     1       3.605   1.433  18.236  0.00  0.00    +0.000 C 
ATOM     25  C   UNL     1       3.004   2.354  19.297  0.00  0.00    +0.000 C 
ENDBRANCH  23  25
BRANCH  23  26
ATOM     26  C   UNL     1       0.837   3.254  20.067  0.00  0.00    +0.000 C 
ATOM     27  C   UNL     1       1.407   2.936  21.446  0.00  0.00    +0.000 C 
ENDBRANCH  23  26
ENDBRANCH  22  23
ENDBRANCH  21  22
ENDBRANCH  18  21
ENDBRANCH   1  18
TORSDOF 8
ENDMDL
MODEL 6
REMARK VINA RESULT:      -6.9      1.678      2.276
REMARK  Name = 
REMARK  11 active torsions:
REMARK  status: ('A' for Active; 'I' for Inactive)
REMARK    1  A    between atoms: C_1  and  C_2
REMARK    2  A    between atoms: C_2  and  N_3
REMARK    3  A    between atoms: N_3  and  C_4
REMARK    4  A    between atoms: N_3  and  C_6
REMARK    5  A    between atoms: C_4  and  C_5
REMARK    6  A    between atoms: C_6  and  C_7
REMARK    7  A    between atoms: C_7  and  N_8
REMARK    8  A    between atoms: N_8  and  C_9
REMARK    9  A    between atoms: N_8  and  C_11
REMARK   10  A    between atoms: C_9  and  C_10
REMARK   11  A    between atoms: C_16  and  C_17
REMARK                            x       y       z     vdW  Elec       q    Type
REMARK                         _______ _______ _______ _____ _____    ______ ____
ROOT
ATOM      1  C   UNL     1       3.464   6.067  18.913  0.00  0.00    +0.000 A 
ATOM      2  C   UNL     1       3.656   6.789  17.714  0.00  0.00    +0.000 A 
ATOM      3  C   UNL     1       3.024   8.015  17.465  0.00  0.00    +0.000 A 
ATOM      4  C   UNL     1       2.168   8.556  18.414  0.00  0.00    +0.000 A 
ATOM      5  C   UNL     1       1.542   9.856  18.246  0.00  0.00    +0.000 A 
ATOM      6  C   UNL     1       0.713  10.334  19.185  0.00  0.00    +0.000 A 
ATOM      7  C   UNL     1       0.426   9.554  20.419  0.00  0.00    +0.000 A 
ATOM      8  O   UNL     1      -0.342   9.976  21.275  0.00  0.00    +0.000 OA
ATOM      9  O   UNL     1       1.071   8.336  20.567  0.00  0.00    +0.000 OA
ATOM     10  C   UNL     1       1.938   7.839  19.579  0.00  0.00    +0.000 A 
ATOM     11  C   UNL     1       2.563   6.613  19.832  0.00  0.00    +0.000 A 
ENDROOT
BRANCH   6  12
ATOM     12  C   UNL     1       0.142  11.714  19.020  0.00  0.00    +0.000 C 
ATOM     13  N   UNL     1      -0.366  12.161  17.912  0.00  0.00    +0.000 NA
ATOM     14  N   UNL     1       0.097  12.600  20.058  0.00  0.00    +0.000 N 
ATOM     15  H   UNL     1      -0.353  11.456  17.171  0.00  0.00    +0.000 HD
ATOM     16  H   UNL     1      -0.027  12.177  20.978  0.00  0.00    +0.000 HD
ATOM     17  H   UNL     1      -0.549  13.358  19.876  0.00  0.00    +0.000 HD
ENDBRANCH   6  12
BRANCH   1  18
ATOM     18  N   UNL     1       4.166   4.879  19.162  0.00  0.00    +0.000 N 
BRANCH  18  19
ATOM     19  C   UNL     1       3.381   3.638  19.040  0.00  0.00    +0.000 C 
ATOM     20  C   UNL     1       2.704   3.363  17.710  0.00  0.00    +0.000 C 
ENDBRANCH  18  19
BRANCH  18  21
ATOM     21  C   UNL     1       5.634   4.902  19.361  0.00  0.00    +0.000 C 
BRANCH  21  22
ATOM     22  C   UNL     1       6.375   4.403  18.086  0.00  0.00    +0.000 C 
BRANCH  22  23
ATOM     23  N   UNL     1       7.354   5.317  17.434  0.00  0.00    +0.000 NA
BRANCH  23  25
ATOM     24  C   UNL     1       6.019   4.508  15.405  0.00  0.00    +0.000 C 
ATOM     25  C   UNL     1       6.897   5.580  16.050  0.00  0.00    +0.000 C 
ENDBRANCH  23  25
BRANCH  23  26
ATOM     26  C   UNL     1       7.640   6.535  18.203  0.00  0.00    +0.000 C 
ATOM     27  C   UNL     1       7.546   7.847  17.430  0.00  0.00    +0.000 C 
ENDBRANCH  23  26
ENDBRANCH  22  23
ENDBRANCH  21  22
ENDBRANCH  18  21
ENDBRANCH   1  18
TORSDOF 8
ENDMDL
MODEL 7
REMARK VINA RESULT:      -6.9      1.895      2.781
REMARK  Name = 
REMARK  11 active torsions:
REMARK  status: ('A' for Active; 'I' for Inactive)
REMARK    1  A    between atoms: C_1  and  C_2
REMARK    2  A    between atoms: C_2  and  N_3
REMARK    3  A    between atoms: N_3  and  C_4
REMARK    4  A    between atoms: N_3  and  C_6
REMARK    5  A    between atoms: C_4  and  C_5
REMARK    6  A    between atoms: C_6  and  C_7
REMARK    7  A    between atoms: C_7  and  N_8
REMARK    8  A    between atoms: N_8  and  C_9
REMARK    9  A    between atoms: N_8  and  C_11
REMARK   10  A    between atoms: C_9  and  C_10
REMARK   11  A    between atoms: C_16  and  C_17
REMARK                            x       y       z     vdW  Elec       q    Type
REMARK                         _______ _______ _______ _____ _____    ______ ____
ROOT
ATOM      1  C   UNL     1       2.432   6.121  19.465  0.00  0.00    +0.000 A 
ATOM      2  C   UNL     1       2.542   6.586  18.135  0.00  0.00    +0.000 A 
ATOM      3  C   UNL     1       2.218   7.900  17.769  0.00  0.00    +0.000 A 
ATOM      4  C   UNL     1       1.763   8.793  18.729  0.00  0.00    +0.000 A 
ATOM      5  C   UNL     1       1.482  10.185  18.425  0.00  0.00    +0.000 A 
ATOM      6  C   UNL     1       1.033  11.009  19.384  0.00  0.00    +0.000 A 
ATOM      7  C   UNL     1       0.826  10.522  20.774  0.00  0.00    +0.000 A 
ATOM      8  O   UNL     1       0.402  11.263  21.652  0.00  0.00    +0.000 OA
ATOM      9  O   UNL     1       1.143   9.199  21.039  0.00  0.00    +0.000 OA
ATOM     10  C   UNL     1       1.611   8.338  20.031  0.00  0.00    +0.000 A 
ATOM     11  C   UNL     1       1.930   7.028  20.403  0.00  0.00    +0.000 A 
ENDROOT
BRANCH   6  12
ATOM     12  C   UNL     1       0.826  12.461  19.059  0.00  0.00    +0.000 C 
ATOM     13  N   UNL     1       1.399  13.436  19.697  0.00  0.00    +0.000 NA
ATOM     14  N   UNL     1       0.021  12.857  18.031  0.00  0.00    +0.000 N 
ATOM     15  H   UNL     1       2.026  13.099  20.431  0.00  0.00    +0.000 HD
ATOM     16  H   UNL     1      -0.006  12.218  17.235  0.00  0.00    +0.000 HD
ATOM     17  H   UNL     1       0.198  13.819  17.764  0.00  0.00    +0.000 HD
ENDBRANCH   6  12
BRANCH   1  18
ATOM     18  N   UNL     1       2.833   4.823  19.812  0.00  0.00    +0.000 N 
BRANCH  18  19
ATOM     19  C   UNL     1       2.318   4.321  21.098  0.00  0.00    +0.000 C 
ATOM     20  C   UNL     1       1.268   3.227  21.055  0.00  0.00    +0.000 C 
ENDBRANCH  18  19
BRANCH  18  21
ATOM     21  C   UNL     1       3.579   3.984  18.846  0.00  0.00    +0.000 C 
BRANCH  21  22
ATOM     22  C   UNL     1       5.113   4.211  18.982  0.00  0.00    +0.000 C 
BRANCH  22  23
ATOM     23  N   UNL     1       5.799   5.041  17.953  0.00  0.00    +0.000 NA
BRANCH  23  25
ATOM     24  C   UNL     1       7.821   6.532  18.445  0.00  0.00    +0.000 C 
ATOM     25  C   UNL     1       7.235   5.127  18.304  0.00  0.00    +0.000 C 
ENDBRANCH  23  25
BRANCH  23  26
ATOM     26  C   UNL     1       5.554   4.605  16.572  0.00  0.00    +0.000 C 
ATOM     27  C   UNL     1       5.422   5.717  15.536  0.00  0.00    +0.000 C 
ENDBRANCH  23  26
ENDBRANCH  22  23
ENDBRANCH  21  22
ENDBRANCH  18  21
ENDBRANCH   1  18
TORSDOF 8
ENDMDL
MODEL 8
REMARK VINA RESULT:      -6.9      1.756      2.212
REMARK  Name = 
REMARK  11 active torsions:
REMARK  status: ('A' for Active; 'I' for Inactive)
REMARK    1  A    between atoms: C_1  and  C_2
REMARK    2  A    between atoms: C_2  and  N_3
REMARK    3  A    between atoms: N_3  and  C_4
REMARK    4  A    between atoms: N_3  and  C_6
REMARK    5  A    between atoms: C_4  and  C_5
REMARK    6  A    between atoms: C_6  and  C_7
REMARK    7  A    between atoms: C_7  and  N_8
REMARK    8  A    between atoms: N_8  and  C_9
REMARK    9  A    between atoms: N_8  and  C_11
REMARK   10  A    between atoms: C_9  and  C_10
REMARK   11  A    between atoms: C_16  and  C_17
REMARK                            x       y       z     vdW  Elec       q    Type
REMARK                         _______ _______ _______ _____ _____    ______ ____
ROOT
ATOM      1  C   UNL     1       2.698   6.727  19.367  0.00  0.00    +0.000 A 
ATOM      2  C   UNL     1       2.858   7.260  18.068  0.00  0.00    +0.000 A 
ATOM      3  C   UNL     1       2.269   8.469  17.674  0.00  0.00    +0.000 A 
ATOM      4  C   UNL     1       1.490   9.184  18.573  0.00  0.00    +0.000 A 
ATOM      5  C   UNL     1       0.915  10.477  18.248  0.00  0.00    +0.000 A 
ATOM      6  C   UNL     1       0.159  11.126  19.146  0.00  0.00    +0.000 A 
ATOM      7  C   UNL     1      -0.097  10.545  20.491  0.00  0.00    +0.000 A 
ATOM      8  O   UNL     1      -0.799  11.124  21.312  0.00  0.00    +0.000 OA
ATOM      9  O   UNL     1       0.500   9.329  20.783  0.00  0.00    +0.000 OA
ATOM     10  C   UNL     1       1.290   8.652  19.839  0.00  0.00    +0.000 A 
ATOM     11  C   UNL     1       1.873   7.444  20.238  0.00  0.00    +0.000 A 
ENDROOT
BRANCH   6  12
ATOM     12  C   UNL     1      -0.358  12.497  18.810  0.00  0.00    +0.000 C 
ATOM     13  N   UNL     1      -0.994  12.783  17.714  0.00  0.00    +0.000 NA
ATOM     14  N   UNL     1      -0.210  13.548  19.667  0.00  0.00    +0.000 N 
ATOM     15  H   UNL     1      -1.123  11.963  17.119  0.00  0.00    +0.000 HD
ATOM     16  H   UNL     1      -0.224  13.301  20.657  0.00  0.00    +0.000 HD
ATOM     17  H   UNL     1      -0.836  14.311  19.437  0.00  0.00    +0.000 HD
ENDBRANCH   6  12
BRANCH   1  18
ATOM     18  N   UNL     1       3.359   5.552  19.751  0.00  0.00    +0.000 N 
BRANCH  18  19
ATOM     19  C   UNL     1       2.499   4.492  20.308  0.00  0.00    +0.000 C 
ATOM     20  C   UNL     1       1.403   3.937  19.418  0.00  0.00    +0.000 C 
ENDBRANCH  18  19
BRANCH  18  21
ATOM     21  C   UNL     1       4.795   5.362  19.444  0.00  0.00    +0.000 C 
BRANCH  21  22
ATOM     22  C   UNL     1       4.995   4.220  18.406  0.00  0.00    +0.000 C 
BRANCH  22  23
ATOM     23  N   UNL     1       5.991   4.421  17.317  0.00  0.00    +0.000 NA
BRANCH  23  25
ATOM     24  C   UNL     1       5.551   4.445  14.795  0.00  0.00    +0.000 C 
ATOM     25  C   UNL     1       5.306   5.064  16.171  0.00  0.00    +0.000 C 
ENDBRANCH  23  25
BRANCH  23  26
ATOM     26  C   UNL     1       7.211   5.119  17.741  0.00  0.00    +0.000 C 
ATOM     27  C   UNL     1       7.350   6.564  17.274  0.00  0.00    +0.000 C 
ENDBRANCH  23  26
ENDBRANCH  22  23
ENDBRANCH  21  22
ENDBRANCH  18  21
ENDBRANCH   1  18
TORSDOF 8
ENDMDL
MODEL 9
REMARK VINA RESULT:      -6.8      0.768      1.764
REMARK  Name = 
REMARK  11 active torsions:
REMARK  status: ('A' for Active; 'I' for Inactive)
REMARK    1  A    between atoms: C_1  and  C_2
REMARK    2  A    between atoms: C_2  and  N_3
REMARK    3  A    between atoms: N_3  and  C_4
REMARK    4  A    between atoms: N_3  and  C_6
REMARK    5  A    between atoms: C_4  and  C_5
REMARK    6  A    between atoms: C_6  and  C_7
REMARK    7  A    between atoms: C_7  and  N_8
REMARK    8  A    between atoms: N_8  and  C_9
REMARK    9  A    between atoms: N_8  and  C_11
REMARK   10  A    between atoms: C_9  and  C_10
REMARK   11  A    between atoms: C_16  and  C_17
REMARK                            x       y       z     vdW  Elec       q    Type
REMARK                         _______ _______ _______ _____ _____    ______ ____
ROOT
ATOM      1  C   UNL     1       2.284   7.103  18.831  0.00  0.00    +0.000 A 
ATOM      2  C   UNL     1       1.936   8.142  17.938  0.00  0.00    +0.000 A 
ATOM      3  C   UNL     1       1.312   9.322  18.365  0.00  0.00    +0.000 A 
ATOM      4  C   UNL     1       1.008   9.497  19.707  0.00  0.00    +0.000 A 
ATOM      5  C   UNL     1       0.429  10.726  20.220  0.00  0.00    +0.000 A 
ATOM      6  C   UNL     1       0.142  10.845  21.525  0.00  0.00    +0.000 A 
ATOM      7  C   UNL     1       0.417   9.732  22.473  0.00  0.00    +0.000 A 
ATOM      8  O   UNL     1       0.145   9.826  23.663  0.00  0.00    +0.000 OA
ATOM      9  O   UNL     1       1.008   8.589  21.957  0.00  0.00    +0.000 OA
ATOM     10  C   UNL     1       1.306   8.468  20.589  0.00  0.00    +0.000 A 
ATOM     11  C   UNL     1       1.927   7.286  20.170  0.00  0.00    +0.000 A 
ENDROOT
BRANCH   6  12
ATOM     12  C   UNL     1      -0.384  12.156  22.040  0.00  0.00    +0.000 C 
ATOM     13  N   UNL     1      -1.326  12.261  22.928  0.00  0.00    +0.000 NA
ATOM     14  N   UNL     1       0.126  13.348  21.615  0.00  0.00    +0.000 N 
ATOM     15  H   UNL     1      -1.652  11.348  23.253  0.00  0.00    +0.000 HD
ATOM     16  H   UNL     1       1.119  13.332  21.380  0.00  0.00    +0.000 HD
ATOM     17  H   UNL     1      -0.124  14.107  22.239  0.00  0.00    +0.000 HD
ENDBRANCH   6  12
BRANCH   1  18
ATOM     18  N   UNL     1       2.972   5.967  18.384  0.00  0.00    +0.000 N 
BRANCH  18  19
ATOM     19  C   UNL     1       2.127   4.859  17.905  0.00  0.00    +0.000 C 
ATOM     20  C   UNL     1       2.824   3.662  17.284  0.00  0.00    +0.000 C 
ENDBRANCH  18  19
BRANCH  18  21
ATOM     21  C   UNL     1       4.448   5.984  18.255  0.00  0.00    +0.000 C 
BRANCH  21  22
ATOM     22  C   UNL     1       4.895   6.947  17.118  0.00  0.00    +0.000 C 
BRANCH  22  23
ATOM     23  N   UNL     1       5.950   6.483  16.173  0.00  0.00    +0.000 NA
BRANCH  23  25
ATOM     24  C   UNL     1       7.753   7.513  17.671  0.00  0.00    +0.000 C 
ATOM     25  C   UNL     1       7.207   6.291  16.933  0.00  0.00    +0.000 C 
ENDBRANCH  23  25
BRANCH  23  26
ATOM     26  C   UNL     1       5.563   5.318  15.368  0.00  0.00    +0.000 C 
ATOM     27  C   UNL     1       6.526   4.135  15.402  0.00  0.00    +0.000 C 
ENDBRANCH  23  26
ENDBRANCH  22  23
ENDBRANCH  21  22
ENDBRANCH  18  21
ENDBRANCH   1  18
TORSDOF 8
ENDMDL
