MODEL 1
REMARK VINA RESULT:      -7.7      0.000      0.000
REMARK  Name = 
REMARK  4 active torsions:
REMARK  status: ('A' for Active; 'I' for Inactive)
REMARK    1  A    between atoms: C_1  and  O_2
REMARK    2  A    between atoms: O_2  and  C_3
REMARK    3  A    between atoms: C_8  and  N_9
REMARK    4  A    between atoms: N_9  and  C_10
REMARK                            x       y       z     vdW  Elec       q    Type
REMARK                         _______ _______ _______ _____ _____    ______ ____
ROOT
ATOM      1  C   UNL     1       2.161   7.463  19.670  0.00  0.00    +0.000 C 
ATOM      2  C   UNL     1       1.578   8.668  19.658  0.00  0.00    +0.000 C 
ATOM      3  S   UNL     1       1.435   9.466  18.120  0.00  0.00    +0.000 S 
ATOM      4  C   UNL     1      -0.097  10.271  18.490  0.00  0.00    +0.000 A 
ATOM      5  C   UNL     1      -1.272  10.025  17.800  0.00  0.00    +0.000 A 
ATOM      6  C   UNL     1      -2.401  10.767  18.129  0.00  0.00    +0.000 A 
ATOM      7 CL   UNL     1      -3.929  10.314  17.483  0.00  0.00    +0.000 Cl
ATOM      8  C   UNL     1      -2.318  11.831  19.035  0.00  0.00    +0.000 A 
ATOM      9  C   UNL     1      -1.160  12.006  19.794  0.00  0.00    +0.000 A 
ATOM     10  C   UNL     1      -0.118  11.105  19.609  0.00  0.00    +0.000 A 
ATOM     11  N   UNL     1       0.673  10.724  20.737  0.00  0.00    +0.000 N 
ATOM     12  C   UNL     1       0.923   9.333  20.854  0.00  0.00    +0.000 C 
ATOM     13  O   UNL     1       0.600   8.711  21.858  0.00  0.00    +0.000 OA
ATOM     14  H   UNL     1       1.544  11.245  20.727  0.00  0.00    +0.000 HD
ENDROOT
BRANCH   1  15
ATOM     15  N   UNL     1       2.238   6.435  20.587  0.00  0.00    +0.000 N 
ATOM     16  H   UNL     1       1.947   6.660  21.536  0.00  0.00    +0.000 HD
BRANCH  15  22
ATOM     17  C   UNL     1       3.349   4.417  19.704  0.00  0.00    +0.000 A 
ATOM     18  C   UNL     1       3.279   3.059  19.348  0.00  0.00    +0.000 A 
ATOM     19  C   UNL     1       2.113   2.321  19.548  0.00  0.00    +0.000 A 
ATOM     20  C   UNL     1       0.997   2.942  20.095  0.00  0.00    +0.000 A 
ATOM     21  C   UNL     1       1.041   4.298  20.419  0.00  0.00    +0.000 A 
ATOM     22  C   UNL     1       2.205   5.069  20.212  0.00  0.00    +0.000 A 
BRANCH  17  24
ATOM     23  C   UNL     1       5.553   4.575  18.858  0.00  0.00    +0.000 C 
ATOM     24  O   UNL     1       4.489   5.178  19.588  0.00  0.00    +0.000 OA
ENDBRANCH  17  24
ENDBRANCH  15  22
ENDBRANCH   1  15
TORSDOF 3
ENDMDL
MODEL 2
REMARK VINA RESULT:      -7.6      1.298      1.915
REMARK  Name = 
REMARK  4 active torsions:
REMARK  status: ('A' for Active; 'I' for Inactive)
REMARK    1  A    between atoms: C_1  and  O_2
REMARK    2  A    between atoms: O_2  and  C_3
REMARK    3  A    between atoms: C_8  and  N_9
REMARK    4  A    between atoms: N_9  and  C_10
REMARK                            x       y       z     vdW  Elec       q    Type
REMARK                         _______ _______ _______ _____ _____    ______ ____
ROOT
ATOM      1  C   UNL     1       2.413   7.212  19.039  0.00  0.00    +0.000 C 
ATOM      2  C   UNL     1       1.815   8.387  19.270  0.00  0.00    +0.000 C 
ATOM      3  S   UNL     1       1.680   9.486  17.930  0.00  0.00    +0.000 S 
ATOM      4  C   UNL     1       0.135  10.181  18.438  0.00  0.00    +0.000 A 
ATOM      5  C   UNL     1      -1.030  10.073  17.694  0.00  0.00    +0.000 A 
ATOM      6  C   UNL     1      -2.172  10.719  18.155  0.00  0.00    +0.000 A 
ATOM      7 CL   UNL     1      -3.686  10.395  17.407  0.00  0.00    +0.000 Cl
ATOM      8  C   UNL     1      -2.113  11.572  19.263  0.00  0.00    +0.000 A 
ATOM      9  C   UNL     1      -0.966  11.597  20.058  0.00  0.00    +0.000 A 
ATOM     10  C   UNL     1       0.090  10.764  19.705  0.00  0.00    +0.000 A 
ATOM     11  N   UNL     1       0.872  10.165  20.740  0.00  0.00    +0.000 N 
ATOM     12  C   UNL     1       1.138   8.782  20.568  0.00  0.00    +0.000 C 
ATOM     13  O   UNL     1       0.811   7.962  21.417  0.00  0.00    +0.000 OA
ATOM     14  H   UNL     1       1.736  10.685  20.851  0.00  0.00    +0.000 HD
ENDROOT
BRANCH   1  15
ATOM     15  N   UNL     1       2.493   6.017  19.724  0.00  0.00    +0.000 N 
ATOM     16  H   UNL     1       2.182   6.035  20.693  0.00  0.00    +0.000 HD
BRANCH  15  22
ATOM     17  C   UNL     1       1.910   3.620  19.673  0.00  0.00    +0.000 A 
ATOM     18  C   UNL     1       1.918   2.390  18.992  0.00  0.00    +0.000 A 
ATOM     19  C   UNL     1       2.433   2.285  17.700  0.00  0.00    +0.000 A 
ATOM     20  C   UNL     1       2.958   3.412  17.080  0.00  0.00    +0.000 A 
ATOM     21  C   UNL     1       2.989   4.631  17.758  0.00  0.00    +0.000 A 
ATOM     22  C   UNL     1       2.488   4.759  19.072  0.00  0.00    +0.000 A 
BRANCH  17  24
ATOM     23  C   UNL     1       1.512   2.698  21.815  0.00  0.00    +0.000 C 
ATOM     24  O   UNL     1       1.361   3.796  20.921  0.00  0.00    +0.000 OA
ENDBRANCH  17  24
ENDBRANCH  15  22
ENDBRANCH   1  15
TORSDOF 3
ENDMDL
MODEL 3
REMARK VINA RESULT:      -7.3      2.818      3.196
REMARK  Name = 
REMARK  4 active torsions:
REMARK  status: ('A' for Active; 'I' for Inactive)
REMARK    1  A    between atoms: C_1  and  O_2
REMARK    2  A    between atoms: O_2  and  C_3
REMARK    3  A    between atoms: C_8  and  N_9
REMARK    4  A    between atoms: N_9  and  C_10
REMARK                            x       y       z     vdW  Elec       q    Type
REMARK                         _______ _______ _______ _____ _____    ______ ____
ROOT
ATOM      1  C   UNL     1       1.647   7.984  20.556  0.00  0.00    +0.000 C 
ATOM      2  C   UNL     1       1.083   9.090  20.058  0.00  0.00    +0.000 C 
ATOM      3  S   UNL     1       0.354  10.188  21.191  0.00  0.00    +0.000 S 
ATOM      4  C   UNL     1       0.741  11.654  20.278  0.00  0.00    +0.000 A 
ATOM      5  C   UNL     1       1.572  12.652  20.759  0.00  0.00    +0.000 A 
ATOM      6  C   UNL     1       1.751  13.794  19.985  0.00  0.00    +0.000 A 
ATOM      7 CL   UNL     1       2.968  14.928  20.421  0.00  0.00    +0.000 Cl
ATOM      8  C   UNL     1       1.002  13.993  18.820  0.00  0.00    +0.000 A 
ATOM      9  C   UNL     1       0.245  12.944  18.296  0.00  0.00    +0.000 A 
ATOM     10  C   UNL     1       0.262  11.728  18.970  0.00  0.00    +0.000 A 
ATOM     11  N   UNL     1       0.211  10.518  18.211  0.00  0.00    +0.000 N 
ATOM     12  C   UNL     1       1.140   9.522  18.605  0.00  0.00    +0.000 C 
ATOM     13  O   UNL     1       1.955   9.063  17.814  0.00  0.00    +0.000 OA
ATOM     14  H   UNL     1      -0.735  10.151  18.227  0.00  0.00    +0.000 HD
ENDROOT
BRANCH   1  15
ATOM     15  N   UNL     1       2.512   7.030  20.058  0.00  0.00    +0.000 N 
ATOM     16  H   UNL     1       3.487   7.125  20.333  0.00  0.00    +0.000 HD
BRANCH  15  22
ATOM     17  C   UNL     1       2.436   5.214  18.390  0.00  0.00    +0.000 A 
ATOM     18  C   UNL     1       1.995   3.931  18.022  0.00  0.00    +0.000 A 
ATOM     19  C   UNL     1       1.263   3.140  18.907  0.00  0.00    +0.000 A 
ATOM     20  C   UNL     1       0.952   3.633  20.168  0.00  0.00    +0.000 A 
ATOM     21  C   UNL     1       1.352   4.919  20.532  0.00  0.00    +0.000 A 
ATOM     22  C   UNL     1       2.081   5.744  19.649  0.00  0.00    +0.000 A 
BRANCH  17  24
ATOM     23  C   UNL     1       4.429   5.426  17.133  0.00  0.00    +0.000 C 
ATOM     24  O   UNL     1       3.212   6.013  17.584  0.00  0.00    +0.000 OA
ENDBRANCH  17  24
ENDBRANCH  15  22
ENDBRANCH   1  15
TORSDOF 3
ENDMDL
MODEL 4
REMARK VINA RESULT:      -7.0      2.706      3.116
REMARK  Name = 
REMARK  4 active torsions:
REMARK  status: ('A' for Active; 'I' for Inactive)
REMARK    1  A    between atoms: C_1  and  O_2
REMARK    2  A    between atoms: O_2  and  C_3
REMARK    3  A    between atoms: C_8  and  N_9
REMARK    4  A    between atoms: N_9  and  C_10
REMARK                            x       y       z     vdW  Elec       q    Type
REMARK                         _______ _______ _______ _____ _____    ______ ____
ROOT
ATOM      1  C   UNL     1       1.715   8.059  20.132  0.00  0.00    +0.000 C 
ATOM      2  C   UNL     1       1.096   9.185  19.758  0.00  0.00    +0.000 C 
ATOM      3  S   UNL     1       0.429  10.180  21.018  0.00  0.00    +0.000 S 
ATOM      4  C   UNL     1       0.721  11.717  20.191  0.00  0.00    +0.000 A 
ATOM      5  C   UNL     1       1.565  12.698  20.685  0.00  0.00    +0.000 A 
ATOM      6  C   UNL     1       1.665  13.897  19.987  0.00  0.00    +0.000 A 
ATOM      7 CL   UNL     1       2.889  15.026  20.418  0.00  0.00    +0.000 Cl
ATOM      8  C   UNL     1       0.830  14.161  18.895  0.00  0.00    +0.000 A 
ATOM      9  C   UNL     1       0.058  13.135  18.350  0.00  0.00    +0.000 A 
ATOM     10  C   UNL     1       0.147  11.874  18.929  0.00  0.00    +0.000 A 
ATOM     11  N   UNL     1       0.065  10.721  18.088  0.00  0.00    +0.000 N 
ATOM     12  C   UNL     1       1.040   9.722  18.341  0.00  0.00    +0.000 C 
ATOM     13  O   UNL     1       1.804   9.343  17.462  0.00  0.00    +0.000 OA
ATOM     14  H   UNL     1      -0.870  10.331  18.143  0.00  0.00    +0.000 HD
ENDROOT
BRANCH   1  15
ATOM     15  N   UNL     1       2.560   7.166  19.504  0.00  0.00    +0.000 N 
ATOM     16  H   UNL     1       3.412   7.560  19.110  0.00  0.00    +0.000 HD
BRANCH  15  22
ATOM     17  C   UNL     1       3.651   4.955  19.429  0.00  0.00    +0.000 A 
ATOM     18  C   UNL     1       3.628   3.586  19.749  0.00  0.00    +0.000 A 
ATOM     19  C   UNL     1       2.581   3.037  20.490  0.00  0.00    +0.000 A 
ATOM     20  C   UNL     1       1.537   3.853  20.906  0.00  0.00    +0.000 A 
ATOM     21  C   UNL     1       1.530   5.206  20.564  0.00  0.00    +0.000 A 
ATOM     22  C   UNL     1       2.570   5.782  19.803  0.00  0.00    +0.000 A 
BRANCH  17  24
ATOM     23  C   UNL     1       5.993   5.214  19.202  0.00  0.00    +0.000 C 
ATOM     24  O   UNL     1       4.685   5.563  18.757  0.00  0.00    +0.000 OA
ENDBRANCH  17  24
ENDBRANCH  15  22
ENDBRANCH   1  15
TORSDOF 3
ENDMDL
MODEL 5
REMARK VINA RESULT:      -7.0      0.951      1.983
REMARK  Name = 
REMARK  4 active torsions:
REMARK  status: ('A' for Active; 'I' for Inactive)
REMARK    1  A    between atoms: C_1  and  O_2
REMARK    2  A    between atoms: O_2  and  C_3
REMARK    3  A    between atoms: C_8  and  N_9
REMARK    4  A    between atoms: N_9  and  C_10
REMARK                            x       y       z     vdW  Elec       q    Type
REMARK                         _______ _______ _______ _____ _____    ______ ____
ROOT
ATOM      1  C   UNL     1       2.212   7.563  19.445  0.00  0.00    +0.000 C 
ATOM      2  C   UNL     1       1.594   8.747  19.535  0.00  0.00    +0.000 C 
ATOM      3  S   UNL     1       1.426   9.669  18.071  0.00  0.00    +0.000 S 
ATOM      4  C   UNL     1      -0.128  10.395  18.507  0.00  0.00    +0.000 A 
ATOM      5  C   UNL     1      -1.296  10.175  17.795  0.00  0.00    +0.000 A 
ATOM      6  C   UNL     1      -2.446  10.853  18.186  0.00  0.00    +0.000 A 
ATOM      7 CL   UNL     1      -3.961  10.412  17.500  0.00  0.00    +0.000 Cl
ATOM      8  C   UNL     1      -2.393  11.837  19.179  0.00  0.00    +0.000 A 
ATOM      9  C   UNL     1      -1.240  11.980  19.952  0.00  0.00    +0.000 A 
ATOM     10  C   UNL     1      -0.172  11.129  19.693  0.00  0.00    +0.000 A 
ATOM     11  N   UNL     1       0.630  10.676  20.785  0.00  0.00    +0.000 N 
ATOM     12  C   UNL     1       0.921   9.288  20.782  0.00  0.00    +0.000 C 
ATOM     13  O   UNL     1       0.617   8.573  21.729  0.00  0.00    +0.000 OA
ATOM     14  H   UNL     1       1.486  11.221  20.822  0.00  0.00    +0.000 HD
ENDROOT
BRANCH   1  15
ATOM     15  N   UNL     1       2.320   6.463  20.271  0.00  0.00    +0.000 N 
ATOM     16  H   UNL     1       1.535   6.295  20.896  0.00  0.00    +0.000 HD
BRANCH  15  22
ATOM     17  C   UNL     1       2.694   4.028  20.141  0.00  0.00    +0.000 A 
ATOM     18  C   UNL     1       3.540   2.952  19.819  0.00  0.00    +0.000 A 
ATOM     19  C   UNL     1       4.802   3.169  19.266  0.00  0.00    +0.000 A 
ATOM     20  C   UNL     1       5.235   4.469  19.041  0.00  0.00    +0.000 A 
ATOM     21  C   UNL     1       4.421   5.546  19.389  0.00  0.00    +0.000 A 
ATOM     22  C   UNL     1       3.146   5.353  19.964  0.00  0.00    +0.000 A 
BRANCH  17  24
ATOM     23  C   UNL     1       0.591   2.969  19.905  0.00  0.00    +0.000 C 
ATOM     24  O   UNL     1       1.418   3.874  20.630  0.00  0.00    +0.000 OA
ENDBRANCH  17  24
ENDBRANCH  15  22
ENDBRANCH   1  15
TORSDOF 3
ENDMDL
MODEL 6
REMARK VINA RESULT:      -7.0      5.116      7.337
REMARK  Name = 
REMARK  4 active torsions:
REMARK  status: ('A' for Active; 'I' for Inactive)
REMARK    1  A    between atoms: C_1  and  O_2
REMARK    2  A    between atoms: O_2  and  C_3
REMARK    3  A    between atoms: C_8  and  N_9
REMARK    4  A    between atoms: N_9  and  C_10
REMARK                            x       y       z     vdW  Elec       q    Type
REMARK                         _______ _______ _______ _____ _____    ______ ____
ROOT
ATOM      1  C   UNL     1       5.428   6.183  16.263  0.00  0.00    +0.000 C 
ATOM      2  C   UNL     1       4.832   5.964  17.441  0.00  0.00    +0.000 C 
ATOM      3  S   UNL     1       3.221   6.582  17.643  0.00  0.00    +0.000 S 
ATOM      4  C   UNL     1       2.669   5.273  18.697  0.00  0.00    +0.000 A 
ATOM      5  C   UNL     1       1.649   4.399  18.356  0.00  0.00    +0.000 A 
ATOM      6  C   UNL     1       1.249   3.451  19.291  0.00  0.00    +0.000 A 
ATOM      7 CL   UNL     1       0.178   2.192  18.814  0.00  0.00    +0.000 Cl
ATOM      8  C   UNL     1       1.764   3.468  20.592  0.00  0.00    +0.000 A 
ATOM      9  C   UNL     1       2.855   4.284  20.894  0.00  0.00    +0.000 A 
ATOM     10  C   UNL     1       3.388   5.063  19.875  0.00  0.00    +0.000 A 
ATOM     11  N   UNL     1       4.801   5.278  19.837  0.00  0.00    +0.000 N 
ATOM     12  C   UNL     1       5.400   5.114  18.562  0.00  0.00    +0.000 C 
ATOM     13  O   UNL     1       6.306   4.309  18.385  0.00  0.00    +0.000 OA
ATOM     14  H   UNL     1       5.011   6.196  20.216  0.00  0.00    +0.000 HD
ENDROOT
BRANCH   1  15
ATOM     15  N   UNL     1       6.543   5.669  15.632  0.00  0.00    +0.000 N 
ATOM     16  H   UNL     1       7.351   5.494  16.226  0.00  0.00    +0.000 HD
BRANCH  15  22
ATOM     17  C   UNL     1       7.494   5.026  13.449  0.00  0.00    +0.000 A 
ATOM     18  C   UNL     1       7.390   4.288  12.257  0.00  0.00    +0.000 A 
ATOM     19  C   UNL     1       6.317   3.423  12.037  0.00  0.00    +0.000 A 
ATOM     20  C   UNL     1       5.330   3.299  13.006  0.00  0.00    +0.000 A 
ATOM     21  C   UNL     1       5.403   4.053  14.178  0.00  0.00    +0.000 A 
ATOM     22  C   UNL     1       6.470   4.946  14.417  0.00  0.00    +0.000 A 
BRANCH  17  24
ATOM     23  C   UNL     1       9.354   6.240  12.634  0.00  0.00    +0.000 C 
ATOM     24  O   UNL     1       8.558   5.845  13.747  0.00  0.00    +0.000 OA
ENDBRANCH  17  24
ENDBRANCH  15  22
ENDBRANCH   1  15
TORSDOF 3
ENDMDL
MODEL 7
REMARK VINA RESULT:      -6.9      2.706      3.052
REMARK  Name = 
REMARK  4 active torsions:
REMARK  status: ('A' for Active; 'I' for Inactive)
REMARK    1  A    between atoms: C_1  and  O_2
REMARK    2  A    between atoms: O_2  and  C_3
REMARK    3  A    between atoms: C_8  and  N_9
REMARK    4  A    between atoms: N_9  and  C_10
REMARK                            x       y       z     vdW  Elec       q    Type
REMARK                         _______ _______ _______ _____ _____    ______ ____
ROOT
ATOM      1  C   UNL     1       2.160   7.573  19.711  0.00  0.00    +0.000 C 
ATOM      2  C   UNL     1       1.370   8.619  19.443  0.00  0.00    +0.000 C 
ATOM      3  S   UNL     1       0.440   9.270  20.759  0.00  0.00    +0.000 S 
ATOM      4  C   UNL     1       0.499  10.946  20.195  0.00  0.00    +0.000 A 
ATOM      5  C   UNL     1       1.108  11.967  20.905  0.00  0.00    +0.000 A 
ATOM      6  C   UNL     1       1.033  13.261  20.400  0.00  0.00    +0.000 A 
ATOM      7 CL   UNL     1       1.990  14.502  21.109  0.00  0.00    +0.000 Cl
ATOM      8  C   UNL     1       0.244  13.546  19.280  0.00  0.00    +0.000 A 
ATOM      9  C   UNL     1      -0.282  12.502  18.519  0.00  0.00    +0.000 A 
ATOM     10  C   UNL     1      -0.001  11.200  18.917  0.00  0.00    +0.000 A 
ATOM     11  N   UNL     1       0.194  10.199  17.915  0.00  0.00    +0.000 N 
ATOM     12  C   UNL     1       1.317   9.357  18.119  0.00  0.00    +0.000 C 
ATOM     13  O   UNL     1       2.200   9.260  17.275  0.00  0.00    +0.000 OA
ATOM     14  H   UNL     1      -0.654   9.649  17.821  0.00  0.00    +0.000 HD
ENDROOT
BRANCH   1  15
ATOM     15  N   UNL     1       3.200   6.951  19.050  0.00  0.00    +0.000 N 
ATOM     16  H   UNL     1       4.129   7.325  19.228  0.00  0.00    +0.000 HD
BRANCH  15  22
ATOM     17  C   UNL     1       4.191   4.710  18.766  0.00  0.00    +0.000 A 
ATOM     18  C   UNL     1       4.075   3.389  18.298  0.00  0.00    +0.000 A 
ATOM     19  C   UNL     1       2.894   2.934  17.713  0.00  0.00    +0.000 A 
ATOM     20  C   UNL     1       1.819   3.803  17.577  0.00  0.00    +0.000 A 
ATOM     21  C   UNL     1       1.933   5.126  18.004  0.00  0.00    +0.000 A 
ATOM     22  C   UNL     1       3.122   5.615  18.586  0.00  0.00    +0.000 A 
BRANCH  17  24
ATOM     23  C   UNL     1       6.488   5.258  18.612  0.00  0.00    +0.000 C 
ATOM     24  O   UNL     1       5.307   5.196  19.406  0.00  0.00    +0.000 OA
ENDBRANCH  17  24
ENDBRANCH  15  22
ENDBRANCH   1  15
TORSDOF 3
ENDMDL
MODEL 8
REMARK VINA RESULT:      -6.8      1.626      2.475
REMARK  Name = 
REMARK  4 active torsions:
REMARK  status: ('A' for Active; 'I' for Inactive)
REMARK    1  A    between atoms: C_1  and  O_2
REMARK    2  A    between atoms: O_2  and  C_3
REMARK    3  A    between atoms: C_8  and  N_9
REMARK    4  A    between atoms: N_9  and  C_10
REMARK                            x       y       z     vdW  Elec       q    Type
REMARK                         _______ _______ _______ _____ _____    ______ ____
ROOT
ATOM      1  C   UNL     1       2.216   8.032  18.666  0.00  0.00    +0.000 C 
ATOM      2  C   UNL     1       1.632   9.098  19.226  0.00  0.00    +0.000 C 
ATOM      3  S   UNL     1       1.494  10.532  18.252  0.00  0.00    +0.000 S 
ATOM      4  C   UNL     1      -0.040  11.065  18.956  0.00  0.00    +0.000 A 
ATOM      5  C   UNL     1      -1.213  11.178  18.227  0.00  0.00    +0.000 A 
ATOM      6  C   UNL     1      -2.344  11.675  18.866  0.00  0.00    +0.000 A 
ATOM      7 CL   UNL     1      -3.869  11.585  18.077  0.00  0.00    +0.000 Cl
ATOM      8  C   UNL     1      -2.265  12.180  20.169  0.00  0.00    +0.000 A 
ATOM      9  C   UNL     1      -1.109  11.972  20.923  0.00  0.00    +0.000 A 
ATOM     10  C   UNL     1      -0.065  11.267  20.336  0.00  0.00    +0.000 A 
ATOM     11  N   UNL     1       0.721  10.395  21.150  0.00  0.00    +0.000 N 
ATOM     12  C   UNL     1       0.973   9.115  20.592  0.00  0.00    +0.000 C 
ATOM     13  O   UNL     1       0.647   8.091  21.179  0.00  0.00    +0.000 OA
ATOM     14  H   UNL     1       1.592  10.857  21.392  0.00  0.00    +0.000 HD
ENDROOT
BRANCH   1  15
ATOM     15  N   UNL     1       2.292   6.692  18.984  0.00  0.00    +0.000 N 
ATOM     16  H   UNL     1       1.531   6.324  19.552  0.00  0.00    +0.000 HD
BRANCH  15  22
ATOM     17  C   UNL     1       2.582   4.428  18.049  0.00  0.00    +0.000 A 
ATOM     18  C   UNL     1       3.329   3.533  17.263  0.00  0.00    +0.000 A 
ATOM     19  C   UNL     1       4.471   3.954  16.580  0.00  0.00    +0.000 A 
ATOM     20  C   UNL     1       4.883   5.276  16.689  0.00  0.00    +0.000 A 
ATOM     21  C   UNL     1       4.171   6.165  17.494  0.00  0.00    +0.000 A 
ATOM     22  C   UNL     1       3.022   5.760  18.206  0.00  0.00    +0.000 A 
BRANCH  17  24
ATOM     23  C   UNL     1       1.083   2.700  18.658  0.00  0.00    +0.000 C 
ATOM     24  O   UNL     1       1.416   4.085  18.693  0.00  0.00    +0.000 OA
ENDBRANCH  17  24
ENDBRANCH  15  22
ENDBRANCH   1  15
TORSDOF 3
ENDMDL
MODEL 9
REMARK VINA RESULT:      -6.7      2.088      2.903
REMARK  Name = 
REMARK  4 active torsions:
REMARK  status: ('A' for Active; 'I' for Inactive)
REMARK    1  A    between atoms: C_1  and  O_2
REMARK    2  A    between atoms: O_2  and  C_3
REMARK    3  A    between atoms: C_8  and  N_9
REMARK    4  A    between atoms: N_9  and  C_10
REMARK                            x       y       z     vdW  Elec       q    Type
REMARK                         _______ _______ _______ _____ _____    ______ ____
ROOT
ATOM      1  C   UNL     1       1.465   8.670  20.792  0.00  0.00    +0.000 C 
ATOM      2  C   UNL     1       0.731   9.625  21.375  0.00  0.00    +0.000 C 
ATOM      3  S   UNL     1       0.838  11.227  20.709  0.00  0.00    +0.000 S 
ATOM      4  C   UNL     1      -0.839  11.668  21.061  0.00  0.00    +0.000 A 
ATOM      5  C   UNL     1      -1.769  11.968  20.079  0.00  0.00    +0.000 A 
ATOM      6  C   UNL     1      -3.041  12.371  20.472  0.00  0.00    +0.000 A 
ATOM      7 CL   UNL     1      -4.289  12.497  19.296  0.00  0.00    +0.000 Cl
ATOM      8  C   UNL     1      -3.331  12.604  21.821  0.00  0.00    +0.000 A 
ATOM      9  C   UNL     1      -2.424  12.207  22.804  0.00  0.00    +0.000 A 
ATOM     10  C   UNL     1      -1.246  11.593  22.394  0.00  0.00    +0.000 A 
ATOM     11  N   UNL     1      -0.697  10.547  23.198  0.00  0.00    +0.000 N 
ATOM     12  C   UNL     1      -0.279   9.396  22.484  0.00  0.00    +0.000 C 
ATOM     13  O   UNL     1      -0.734   8.288  22.741  0.00  0.00    +0.000 OA
ATOM     14  H   UNL     1       0.066  10.919  23.756  0.00  0.00    +0.000 HD
ENDROOT
BRANCH   1  15
ATOM     15  N   UNL     1       1.475   7.291  20.842  0.00  0.00    +0.000 N 
ATOM     16  H   UNL     1       0.712   6.858  21.357  0.00  0.00    +0.000 HD
BRANCH  15  22
ATOM     17  C   UNL     1       2.100   5.085  19.934  0.00  0.00    +0.000 A 
ATOM     18  C   UNL     1       2.755   4.326  18.948  0.00  0.00    +0.000 A 
ATOM     19  C   UNL     1       3.384   4.942  17.865  0.00  0.00    +0.000 A 
ATOM     20  C   UNL     1       3.375   6.328  17.768  0.00  0.00    +0.000 A 
ATOM     21  C   UNL     1       2.760   7.093  18.759  0.00  0.00    +0.000 A 
ATOM     22  C   UNL     1       2.129   6.494  19.870  0.00  0.00    +0.000 A 
BRANCH  17  24
ATOM     23  C   UNL     1       1.973   3.336  21.524  0.00  0.00    +0.000 C 
ATOM     24  O   UNL     1       1.411   4.531  20.987  0.00  0.00    +0.000 OA
ENDBRANCH  17  24
ENDBRANCH  15  22
ENDBRANCH   1  15
TORSDOF 3
ENDMDL
