MODEL 1
REMARK VINA RESULT:      -6.8      0.000      0.000
REMARK  Name = 
REMARK  10 active torsions:
REMARK  status: ('A' for Active; 'I' for Inactive)
REMARK    1  A    between atoms: C_1  and  O_2
REMARK    2  A    between atoms: O_2  and  C_3
REMARK    3  A    between atoms: C_6  and  N_7
REMARK    4  A    between atoms: C_14  and  C_15
REMARK    5  A    between atoms: N_17  and  C_18
REMARK    6  A    between atoms: C_18  and  C_19
REMARK    7  A    between atoms: C_19  and  C_20
REMARK    8  A    between atoms: C_20  and  N_21
REMARK    9  A    between atoms: N_21  and  C_22
REMARK   10  A    between atoms: N_21  and  C_23
REMARK                            x       y       z     vdW  Elec       q    Type
REMARK                         _______ _______ _______ _____ _____    ______ ____
ROOT
ATOM      1  N   UNL     1       2.908   6.650  18.566  0.00  0.00    +0.000 N 
ATOM      2  C   UNL     1       2.389   5.946  19.741  0.00  0.00    +0.000 C 
ATOM      3  C   UNL     1       1.829   7.095  20.577  0.00  0.00    +0.000 C 
ATOM      4  N   UNL     1       1.639   8.154  19.619  0.00  0.00    +0.000 N 
ATOM      5  C   UNL     1       2.388   7.929  18.485  0.00  0.00    +0.000 A 
ATOM      6  N   UNL     1       2.514   8.825  17.562  0.00  0.00    +0.000 NA
ATOM      7  N   UNL     1       1.818  10.054  17.660  0.00  0.00    +0.000 NA
ATOM      8  C   UNL     1       1.130  10.322  18.736  0.00  0.00    +0.000 A 
ATOM      9  C   UNL     1       1.116   9.372  19.909  0.00  0.00    +0.000 A 
ATOM     10  O   UNL     1       0.736   9.723  21.016  0.00  0.00    +0.000 OA
ENDROOT
BRANCH   1  14
ATOM     11  C   UNL     1       5.708   4.726  16.035  0.00  0.00    +0.000 A 
ATOM     12  C   UNL     1       4.590   4.040  16.502  0.00  0.00    +0.000 A 
ATOM     13  C   UNL     1       3.658   4.680  17.327  0.00  0.00    +0.000 A 
ATOM     14  C   UNL     1       3.816   6.023  17.710  0.00  0.00    +0.000 A 
ATOM     15  C   UNL     1       4.943   6.694  17.220  0.00  0.00    +0.000 A 
ATOM     16  C   UNL     1       5.887   6.055  16.404  0.00  0.00    +0.000 A 
BRANCH  11  18
ATOM     17  C   UNL     1       6.219   3.871  13.894  0.00  0.00    +0.000 C 
ATOM     18  O   UNL     1       6.568   3.991  15.269  0.00  0.00    +0.000 OA
ENDBRANCH  11  18
ENDBRANCH   1  14
BRANCH   8  19
ATOM     19  C   UNL     1       0.337  11.612  18.768  0.00  0.00    +0.000 C 
ATOM     20  O   UNL     1       0.875  12.654  18.431  0.00  0.00    +0.000 OA
ATOM     21  N   UNL     1      -0.965  11.502  19.218  0.00  0.00    +0.000 N 
ATOM     22  H   UNL     1      -1.275  10.603  19.573  0.00  0.00    +0.000 HD
BRANCH  21  23
ATOM     23  C   UNL     1      -1.833  12.664  19.297  0.00  0.00    +0.000 C 
BRANCH  23  24
ATOM     24  C   UNL     1      -3.246  12.276  19.731  0.00  0.00    +0.000 C 
BRANCH  24  25
ATOM     25  C   UNL     1      -4.092  11.709  18.580  0.00  0.00    +0.000 C 
BRANCH  25  26
ATOM     26  N   UNL     1      -3.325  11.018  17.531  0.00  0.00    +0.000 NA
ATOM     27  C   UNL     1      -3.331   9.562  17.703  0.00  0.00    +0.000 C 
ATOM     28  C   UNL     1      -3.850  11.357  16.205  0.00  0.00    +0.000 C 
ENDBRANCH  25  26
ENDBRANCH  24  25
ENDBRANCH  23  24
ENDBRANCH  21  23
ENDBRANCH   8  19
TORSDOF 7
ENDMDL
MODEL 2
REMARK VINA RESULT:      -6.7      2.282      2.717
REMARK  Name = 
REMARK  10 active torsions:
REMARK  status: ('A' for Active; 'I' for Inactive)
REMARK    1  A    between atoms: C_1  and  O_2
REMARK    2  A    between atoms: O_2  and  C_3
REMARK    3  A    between atoms: C_6  and  N_7
REMARK    4  A    between atoms: C_14  and  C_15
REMARK    5  A    between atoms: N_17  and  C_18
REMARK    6  A    between atoms: C_18  and  C_19
REMARK    7  A    between atoms: C_19  and  C_20
REMARK    8  A    between atoms: C_20  and  N_21
REMARK    9  A    between atoms: N_21  and  C_22
REMARK   10  A    between atoms: N_21  and  C_23
REMARK                            x       y       z     vdW  Elec       q    Type
REMARK                         _______ _______ _______ _____ _____    ______ ____
ROOT
ATOM      1  N   UNL     1       3.154   5.881  18.608  0.00  0.00    +0.000 N 
ATOM      2  C   UNL     1       2.798   4.939  19.672  0.00  0.00    +0.000 C 
ATOM      3  C   UNL     1       2.256   5.872  20.753  0.00  0.00    +0.000 C 
ATOM      4  N   UNL     1       1.908   7.069  20.029  0.00  0.00    +0.000 N 
ATOM      5  C   UNL     1       2.553   7.110  18.812  0.00  0.00    +0.000 A 
ATOM      6  N   UNL     1       2.532   8.164  18.065  0.00  0.00    +0.000 NA
ATOM      7  N   UNL     1       1.777   9.297  18.449  0.00  0.00    +0.000 NA
ATOM      8  C   UNL     1       1.185   9.314  19.613  0.00  0.00    +0.000 A 
ATOM      9  C   UNL     1       1.344   8.171  20.585  0.00  0.00    +0.000 A 
ATOM     10  O   UNL     1       1.057   8.287  21.766  0.00  0.00    +0.000 OA
ENDROOT
BRANCH   1  14
ATOM     11  C   UNL     1       5.808   4.696  15.527  0.00  0.00    +0.000 A 
ATOM     12  C   UNL     1       5.121   3.742  16.272  0.00  0.00    +0.000 A 
ATOM     13  C   UNL     1       4.233   4.134  17.281  0.00  0.00    +0.000 A 
ATOM     14  C   UNL     1       4.007   5.489  17.575  0.00  0.00    +0.000 A 
ATOM     15  C   UNL     1       4.703   6.430  16.805  0.00  0.00    +0.000 A 
ATOM     16  C   UNL     1       5.602   6.044  15.801  0.00  0.00    +0.000 A 
BRANCH  11  18
ATOM     17  C   UNL     1       6.092   3.819  13.352  0.00  0.00    +0.000 C 
ATOM     18  O   UNL     1       6.674   4.198  14.595  0.00  0.00    +0.000 OA
ENDBRANCH  11  18
ENDBRANCH   1  14
BRANCH   8  19
ATOM     19  C   UNL     1       0.323  10.512  19.952  0.00  0.00    +0.000 C 
ATOM     20  O   UNL     1      -0.502  10.905  19.143  0.00  0.00    +0.000 OA
ATOM     21  N   UNL     1       0.569  11.098  21.179  0.00  0.00    +0.000 N 
ATOM     22  H   UNL     1       1.352  10.752  21.726  0.00  0.00    +0.000 HD
BRANCH  21  23
ATOM     23  C   UNL     1      -0.188  12.254  21.626  0.00  0.00    +0.000 C 
BRANCH  23  24
ATOM     24  C   UNL     1      -1.259  11.862  22.642  0.00  0.00    +0.000 C 
BRANCH  24  25
ATOM     25  C   UNL     1      -2.418  12.868  22.711  0.00  0.00    +0.000 C 
BRANCH  25  26
ATOM     26  N   UNL     1      -3.726  12.283  23.052  0.00  0.00    +0.000 NA
ATOM     27  C   UNL     1      -4.107  12.545  24.443  0.00  0.00    +0.000 C 
ATOM     28  C   UNL     1      -4.766  12.793  22.154  0.00  0.00    +0.000 C 
ENDBRANCH  25  26
ENDBRANCH  24  25
ENDBRANCH  23  24
ENDBRANCH  21  23
ENDBRANCH   8  19
TORSDOF 7
ENDMDL
MODEL 3
REMARK VINA RESULT:      -6.6      2.305      3.231
REMARK  Name = 
REMARK  10 active torsions:
REMARK  status: ('A' for Active; 'I' for Inactive)
REMARK    1  A    between atoms: C_1  and  O_2
REMARK    2  A    between atoms: O_2  and  C_3
REMARK    3  A    between atoms: C_6  and  N_7
REMARK    4  A    between atoms: C_14  and  C_15
REMARK    5  A    between atoms: N_17  and  C_18
REMARK    6  A    between atoms: C_18  and  C_19
REMARK    7  A    between atoms: C_19  and  C_20
REMARK    8  A    between atoms: C_20  and  N_21
REMARK    9  A    between atoms: N_21  and  C_22
REMARK   10  A    between atoms: N_21  and  C_23
REMARK                            x       y       z     vdW  Elec       q    Type
REMARK                         _______ _______ _______ _____ _____    ______ ____
ROOT
ATOM      1  N   UNL     1       3.677   5.894  18.476  0.00  0.00    +0.000 N 
ATOM      2  C   UNL     1       3.265   4.901  19.470  0.00  0.00    +0.000 C 
ATOM      3  C   UNL     1       2.515   5.761  20.485  0.00  0.00    +0.000 C 
ATOM      4  N   UNL     1       2.167   6.945  19.740  0.00  0.00    +0.000 N 
ATOM      5  C   UNL     1       2.957   7.066  18.618  0.00  0.00    +0.000 A 
ATOM      6  N   UNL     1       2.946   8.134  17.890  0.00  0.00    +0.000 NA
ATOM      7  N   UNL     1       2.059   9.195  18.190  0.00  0.00    +0.000 NA
ATOM      8  C   UNL     1       1.324   9.135  19.267  0.00  0.00    +0.000 A 
ATOM      9  C   UNL     1       1.449   7.984  20.234  0.00  0.00    +0.000 A 
ATOM     10  O   UNL     1       1.004   8.048  21.370  0.00  0.00    +0.000 OA
ENDROOT
BRANCH   1  14
ATOM     11  C   UNL     1       6.703   5.053  15.633  0.00  0.00    +0.000 A 
ATOM     12  C   UNL     1       6.936   5.957  16.666  0.00  0.00    +0.000 A 
ATOM     13  C   UNL     1       5.941   6.224  17.613  0.00  0.00    +0.000 A 
ATOM     14  C   UNL     1       4.685   5.597  17.556  0.00  0.00    +0.000 A 
ATOM     15  C   UNL     1       4.478   4.685  16.514  0.00  0.00    +0.000 A 
ATOM     16  C   UNL     1       5.466   4.422  15.554  0.00  0.00    +0.000 A 
BRANCH  11  18
ATOM     17  C   UNL     1       7.362   4.857  13.373  0.00  0.00    +0.000 C 
ATOM     18  O   UNL     1       7.732   4.899  14.747  0.00  0.00    +0.000 OA
ENDBRANCH  11  18
ENDBRANCH   1  14
BRANCH   8  19
ATOM     19  C   UNL     1       0.330  10.253  19.510  0.00  0.00    +0.000 C 
ATOM     20  O   UNL     1      -0.534  10.477  18.678  0.00  0.00    +0.000 OA
ATOM     21  N   UNL     1       0.509  10.969  20.678  0.00  0.00    +0.000 N 
ATOM     22  H   UNL     1       1.327  10.764  21.245  0.00  0.00    +0.000 HD
BRANCH  21  23
ATOM     23  C   UNL     1      -0.374  12.066  21.030  0.00  0.00    +0.000 C 
BRANCH  23  24
ATOM     24  C   UNL     1       0.406  13.362  21.250  0.00  0.00    +0.000 C 
BRANCH  24  25
ATOM     25  C   UNL     1       1.043  13.905  19.961  0.00  0.00    +0.000 C 
BRANCH  25  26
ATOM     26  N   UNL     1       2.363  13.340  19.638  0.00  0.00    +0.000 NA
ATOM     27  C   UNL     1       2.471  12.947  18.229  0.00  0.00    +0.000 C 
ATOM     28  C   UNL     1       3.424  14.296  19.963  0.00  0.00    +0.000 C 
ENDBRANCH  25  26
ENDBRANCH  24  25
ENDBRANCH  23  24
ENDBRANCH  21  23
ENDBRANCH   8  19
TORSDOF 7
ENDMDL
MODEL 4
REMARK VINA RESULT:      -6.6      2.883      4.104
REMARK  Name = 
REMARK  10 active torsions:
REMARK  status: ('A' for Active; 'I' for Inactive)
REMARK    1  A    between atoms: C_1  and  O_2
REMARK    2  A    between atoms: O_2  and  C_3
REMARK    3  A    between atoms: C_6  and  N_7
REMARK    4  A    between atoms: C_14  and  C_15
REMARK    5  A    between atoms: N_17  and  C_18
REMARK    6  A    between atoms: C_18  and  C_19
REMARK    7  A    between atoms: C_19  and  C_20
REMARK    8  A    between atoms: C_20  and  N_21
REMARK    9  A    between atoms: N_21  and  C_22
REMARK   10  A    between atoms: N_21  and  C_23
REMARK                            x       y       z     vdW  Elec       q    Type
REMARK                         _______ _______ _______ _____ _____    ______ ____
ROOT
ATOM      1  N   UNL     1       2.446   7.523  18.485  0.00  0.00    +0.000 N 
ATOM      2  C   UNL     1       2.706   8.590  17.517  0.00  0.00    +0.000 C 
ATOM      3  C   UNL     1       1.731   9.675  17.971  0.00  0.00    +0.000 C 
ATOM      4  N   UNL     1       1.444   9.325  19.340  0.00  0.00    +0.000 N 
ATOM      5  C   UNL     1       1.760   8.007  19.585  0.00  0.00    +0.000 A 
ATOM      6  N   UNL     1       1.430   7.421  20.688  0.00  0.00    +0.000 NA
ATOM      7  N   UNL     1       0.787   8.147  21.719  0.00  0.00    +0.000 NA
ATOM      8  C   UNL     1       0.434   9.387  21.510  0.00  0.00    +0.000 A 
ATOM      9  C   UNL     1       0.642  10.041  20.167  0.00  0.00    +0.000 A 
ATOM     10  O   UNL     1       0.065  11.074  19.859  0.00  0.00    +0.000 OA
ENDROOT
BRANCH   1  14
ATOM     11  C   UNL     1       3.728   3.546  17.789  0.00  0.00    +0.000 A 
ATOM     12  C   UNL     1       2.372   3.862  17.778  0.00  0.00    +0.000 A 
ATOM     13  C   UNL     1       1.949   5.180  17.995  0.00  0.00    +0.000 A 
ATOM     14  C   UNL     1       2.868   6.217  18.228  0.00  0.00    +0.000 A 
ATOM     15  C   UNL     1       4.226   5.875  18.224  0.00  0.00    +0.000 A 
ATOM     16  C   UNL     1       4.655   4.556  18.020  0.00  0.00    +0.000 A 
BRANCH  11  18
ATOM     17  C   UNL     1       3.581   1.344  18.631  0.00  0.00    +0.000 C 
ATOM     18  O   UNL     1       4.021   2.224  17.603  0.00  0.00    +0.000 OA
ENDBRANCH  11  18
ENDBRANCH   1  14
BRANCH   8  19
ATOM     19  C   UNL     1      -0.179  10.153  22.665  0.00  0.00    +0.000 C 
ATOM     20  O   UNL     1       0.176   9.902  23.805  0.00  0.00    +0.000 OA
ATOM     21  N   UNL     1      -1.141  11.082  22.321  0.00  0.00    +0.000 N 
ATOM     22  H   UNL     1      -1.434  11.132  21.350  0.00  0.00    +0.000 HD
BRANCH  21  23
ATOM     23  C   UNL     1      -1.808  11.883  23.333  0.00  0.00    +0.000 C 
BRANCH  23  24
ATOM     24  C   UNL     1      -3.177  12.362  22.853  0.00  0.00    +0.000 C 
BRANCH  24  25
ATOM     25  C   UNL     1      -3.606  13.692  23.493  0.00  0.00    +0.000 C 
BRANCH  25  26
ATOM     26  N   UNL     1      -5.021  14.047  23.294  0.00  0.00    +0.000 NA
ATOM     27  C   UNL     1      -5.931  13.057  23.877  0.00  0.00    +0.000 C 
ATOM     28  C   UNL     1      -5.303  15.367  23.864  0.00  0.00    +0.000 C 
ENDBRANCH  25  26
ENDBRANCH  24  25
ENDBRANCH  23  24
ENDBRANCH  21  23
ENDBRANCH   8  19
TORSDOF 7
ENDMDL
MODEL 5
REMARK VINA RESULT:      -6.6      1.314      2.334
REMARK  Name = 
REMARK  10 active torsions:
REMARK  status: ('A' for Active; 'I' for Inactive)
REMARK    1  A    between atoms: C_1  and  O_2
REMARK    2  A    between atoms: O_2  and  C_3
REMARK    3  A    between atoms: C_6  and  N_7
REMARK    4  A    between atoms: C_14  and  C_15
REMARK    5  A    between atoms: N_17  and  C_18
REMARK    6  A    between atoms: C_18  and  C_19
REMARK    7  A    between atoms: C_19  and  C_20
REMARK    8  A    between atoms: C_20  and  N_21
REMARK    9  A    between atoms: N_21  and  C_22
REMARK   10  A    between atoms: N_21  and  C_23
REMARK                            x       y       z     vdW  Elec       q    Type
REMARK                         _______ _______ _______ _____ _____    ______ ____
ROOT
ATOM      1  N   UNL     1       3.000   6.465  18.497  0.00  0.00    +0.000 N 
ATOM      2  C   UNL     1       2.566   5.739  19.693  0.00  0.00    +0.000 C 
ATOM      3  C   UNL     1       2.000   6.863  20.558  0.00  0.00    +0.000 C 
ATOM      4  N   UNL     1       1.720   7.915  19.613  0.00  0.00    +0.000 N 
ATOM      5  C   UNL     1       2.424   7.721  18.444  0.00  0.00    +0.000 A 
ATOM      6  N   UNL     1       2.468   8.622  17.519  0.00  0.00    +0.000 NA
ATOM      7  N   UNL     1       1.727   9.821  17.652  0.00  0.00    +0.000 NA
ATOM      8  C   UNL     1       1.081  10.059  18.761  0.00  0.00    +0.000 A 
ATOM      9  C   UNL     1       1.162   9.109  19.931  0.00  0.00    +0.000 A 
ATOM     10  O   UNL     1       0.821   9.443  21.055  0.00  0.00    +0.000 OA
ENDROOT
BRANCH   1  14
ATOM     11  C   UNL     1       5.759   4.672  15.829  0.00  0.00    +0.000 A 
ATOM     12  C   UNL     1       4.803   3.898  16.482  0.00  0.00    +0.000 A 
ATOM     13  C   UNL     1       3.882   4.493  17.353  0.00  0.00    +0.000 A 
ATOM     14  C   UNL     1       3.890   5.876  17.597  0.00  0.00    +0.000 A 
ATOM     15  C   UNL     1       4.854   6.634  16.921  0.00  0.00    +0.000 A 
ATOM     16  C   UNL     1       5.787   6.043  16.057  0.00  0.00    +0.000 A 
BRANCH  11  18
ATOM     17  C   UNL     1       6.340   4.006  13.639  0.00  0.00    +0.000 C 
ATOM     18  O   UNL     1       6.627   3.980  15.032  0.00  0.00    +0.000 OA
ENDBRANCH  11  18
ENDBRANCH   1  14
BRANCH   8  19
ATOM     19  C   UNL     1       0.237  11.315  18.834  0.00  0.00    +0.000 C 
ATOM     20  O   UNL     1       0.785  12.406  18.822  0.00  0.00    +0.000 OA
ATOM     21  N   UNL     1      -1.126  11.115  18.940  0.00  0.00    +0.000 N 
ATOM     22  H   UNL     1      -1.463  10.163  19.049  0.00  0.00    +0.000 HD
BRANCH  21  23
ATOM     23  C   UNL     1      -2.047  12.235  19.019  0.00  0.00    +0.000 C 
BRANCH  23  24
ATOM     24  C   UNL     1      -2.484  12.499  20.459  0.00  0.00    +0.000 C 
BRANCH  24  25
ATOM     25  C   UNL     1      -1.872  13.780  21.046  0.00  0.00    +0.000 C 
BRANCH  25  26
ATOM     26  N   UNL     1      -0.993  13.570  22.209  0.00  0.00    +0.000 NA
ATOM     27  C   UNL     1      -0.877  12.155  22.571  0.00  0.00    +0.000 C 
ATOM     28  C   UNL     1       0.340  14.120  21.949  0.00  0.00    +0.000 C 
ENDBRANCH  25  26
ENDBRANCH  24  25
ENDBRANCH  23  24
ENDBRANCH  21  23
ENDBRANCH   8  19
TORSDOF 7
ENDMDL
MODEL 6
REMARK VINA RESULT:      -6.6      2.530      8.400
REMARK  Name = 
REMARK  10 active torsions:
REMARK  status: ('A' for Active; 'I' for Inactive)
REMARK    1  A    between atoms: C_1  and  O_2
REMARK    2  A    between atoms: O_2  and  C_3
REMARK    3  A    between atoms: C_6  and  N_7
REMARK    4  A    between atoms: C_14  and  C_15
REMARK    5  A    between atoms: N_17  and  C_18
REMARK    6  A    between atoms: C_18  and  C_19
REMARK    7  A    between atoms: C_19  and  C_20
REMARK    8  A    between atoms: C_20  and  N_21
REMARK    9  A    between atoms: N_21  and  C_22
REMARK   10  A    between atoms: N_21  and  C_23
REMARK                            x       y       z     vdW  Elec       q    Type
REMARK                         _______ _______ _______ _____ _____    ______ ____
ROOT
ATOM      1  N   UNL     1       1.041  10.345  19.986  0.00  0.00    +0.000 N 
ATOM      2  C   UNL     1       0.826   9.882  21.358  0.00  0.00    +0.000 C 
ATOM      3  C   UNL     1       1.021   8.374  21.219  0.00  0.00    +0.000 C 
ATOM      4  N   UNL     1       1.778   8.239  19.999  0.00  0.00    +0.000 N 
ATOM      5  C   UNL     1       1.671   9.375  19.228  0.00  0.00    +0.000 A 
ATOM      6  N   UNL     1       2.121   9.421  18.017  0.00  0.00    +0.000 NA
ATOM      7  N   UNL     1       2.808   8.313  17.467  0.00  0.00    +0.000 NA
ATOM      8  C   UNL     1       2.895   7.204  18.151  0.00  0.00    +0.000 A 
ATOM      9  C   UNL     1       2.220   7.060  19.493  0.00  0.00    +0.000 A 
ATOM     10  O   UNL     1       2.036   5.967  20.006  0.00  0.00    +0.000 OA
ENDROOT
BRANCH   1  14
ATOM     11  C   UNL     1      -0.234  14.229  18.874  0.00  0.00    +0.000 A 
ATOM     12  C   UNL     1       1.083  13.832  18.664  0.00  0.00    +0.000 A 
ATOM     13  C   UNL     1       1.501  12.543  19.018  0.00  0.00    +0.000 A 
ATOM     14  C   UNL     1       0.615  11.616  19.593  0.00  0.00    +0.000 A 
ATOM     15  C   UNL     1      -0.706  12.037  19.786  0.00  0.00    +0.000 A 
ATOM     16  C   UNL     1      -1.128  13.329  19.445  0.00  0.00    +0.000 A 
BRANCH  11  18
ATOM     17  C   UNL     1       0.459  16.487  18.887  0.00  0.00    +0.000 C 
ATOM     18  O   UNL     1      -0.519  15.519  18.524  0.00  0.00    +0.000 OA
ENDBRANCH  11  18
ENDBRANCH   1  14
BRANCH   8  19
ATOM     19  C   UNL     1       3.706   6.069  17.560  0.00  0.00    +0.000 C 
ATOM     20  O   UNL     1       4.747   6.319  16.975  0.00  0.00    +0.000 OA
ATOM     21  N   UNL     1       3.167   4.806  17.712  0.00  0.00    +0.000 N 
ATOM     22  H   UNL     1       2.241   4.727  18.123  0.00  0.00    +0.000 HD
BRANCH  21  23
ATOM     23  C   UNL     1       3.843   3.632  17.192  0.00  0.00    +0.000 C 
BRANCH  23  24
ATOM     24  C   UNL     1       3.346   2.355  17.868  0.00  0.00    +0.000 C 
BRANCH  24  25
ATOM     25  C   UNL     1       3.125   2.522  19.379  0.00  0.00    +0.000 C 
BRANCH  25  26
ATOM     26  N   UNL     1       1.803   2.092  19.863  0.00  0.00    +0.000 NA
ATOM     27  C   UNL     1       1.453   2.706  21.147  0.00  0.00    +0.000 C 
ATOM     28  C   UNL     1       0.768   2.403  18.873  0.00  0.00    +0.000 C 
ENDBRANCH  25  26
ENDBRANCH  24  25
ENDBRANCH  23  24
ENDBRANCH  21  23
ENDBRANCH   8  19
TORSDOF 7
ENDMDL
MODEL 7
REMARK VINA RESULT:      -6.5      3.233      4.398
REMARK  Name = 
REMARK  10 active torsions:
REMARK  status: ('A' for Active; 'I' for Inactive)
REMARK    1  A    between atoms: C_1  and  O_2
REMARK    2  A    between atoms: O_2  and  C_3
REMARK    3  A    between atoms: C_6  and  N_7
REMARK    4  A    between atoms: C_14  and  C_15
REMARK    5  A    between atoms: N_17  and  C_18
REMARK    6  A    between atoms: C_18  and  C_19
REMARK    7  A    between atoms: C_19  and  C_20
REMARK    8  A    between atoms: C_20  and  N_21
REMARK    9  A    between atoms: N_21  and  C_22
REMARK   10  A    between atoms: N_21  and  C_23
REMARK                            x       y       z     vdW  Elec       q    Type
REMARK                         _______ _______ _______ _____ _____    ______ ____
ROOT
ATOM      1  N   UNL     1       2.026   7.735  19.440  0.00  0.00    +0.000 N 
ATOM      2  C   UNL     1       2.375   8.284  18.128  0.00  0.00    +0.000 C 
ATOM      3  C   UNL     1       1.475   9.516  18.049  0.00  0.00    +0.000 C 
ATOM      4  N   UNL     1       1.145   9.786  19.426  0.00  0.00    +0.000 N 
ATOM      5  C   UNL     1       1.362   8.674  20.209  0.00  0.00    +0.000 A 
ATOM      6  N   UNL     1       0.976   8.623  21.441  0.00  0.00    +0.000 NA
ATOM      7  N   UNL     1       0.373   9.750  22.049  0.00  0.00    +0.000 NA
ATOM      8  C   UNL     1       0.114  10.809  21.330  0.00  0.00    +0.000 A 
ATOM      9  C   UNL     1       0.385  10.829  19.846  0.00  0.00    +0.000 A 
ATOM     10  O   UNL     1      -0.111  11.671  19.113  0.00  0.00    +0.000 OA
ENDROOT
BRANCH   1  14
ATOM     11  C   UNL     1       2.982   3.713  20.365  0.00  0.00    +0.000 A 
ATOM     12  C   UNL     1       3.825   4.472  19.557  0.00  0.00    +0.000 A 
ATOM     13  C   UNL     1       3.516   5.806  19.264  0.00  0.00    +0.000 A 
ATOM     14  C   UNL     1       2.356   6.418  19.766  0.00  0.00    +0.000 A 
ATOM     15  C   UNL     1       1.529   5.638  20.583  0.00  0.00    +0.000 A 
ATOM     16  C   UNL     1       1.826   4.299  20.871  0.00  0.00    +0.000 A 
BRANCH  11  18
ATOM     17  C   UNL     1       4.596   2.041  19.947  0.00  0.00    +0.000 C 
ATOM     18  O   UNL     1       3.364   2.415  20.554  0.00  0.00    +0.000 OA
ENDBRANCH  11  18
ENDBRANCH   1  14
BRANCH   8  19
ATOM     19  C   UNL     1      -0.458  12.022  22.035  0.00  0.00    +0.000 C 
ATOM     20  O   UNL     1       0.209  13.041  22.108  0.00  0.00    +0.000 OA
ATOM     21  N   UNL     1      -1.717  11.859  22.579  0.00  0.00    +0.000 N 
ATOM     22  H   UNL     1      -2.136  10.933  22.550  0.00  0.00    +0.000 HD
BRANCH  21  23
ATOM     23  C   UNL     1      -2.379  12.944  23.282  0.00  0.00    +0.000 C 
BRANCH  23  24
ATOM     24  C   UNL     1      -3.685  12.479  23.924  0.00  0.00    +0.000 C 
BRANCH  24  25
ATOM     25  C   UNL     1      -4.913  13.247  23.410  0.00  0.00    +0.000 C 
BRANCH  25  26
ATOM     26  N   UNL     1      -6.060  12.402  23.038  0.00  0.00    +0.000 NA
ATOM     27  C   UNL     1      -7.241  12.672  23.863  0.00  0.00    +0.000 C 
ATOM     28  C   UNL     1      -6.396  12.588  21.624  0.00  0.00    +0.000 C 
ENDBRANCH  25  26
ENDBRANCH  24  25
ENDBRANCH  23  24
ENDBRANCH  21  23
ENDBRANCH   8  19
TORSDOF 7
ENDMDL
MODEL 8
REMARK VINA RESULT:      -6.5      2.259      3.521
REMARK  Name = 
REMARK  10 active torsions:
REMARK  status: ('A' for Active; 'I' for Inactive)
REMARK    1  A    between atoms: C_1  and  O_2
REMARK    2  A    between atoms: O_2  and  C_3
REMARK    3  A    between atoms: C_6  and  N_7
REMARK    4  A    between atoms: C_14  and  C_15
REMARK    5  A    between atoms: N_17  and  C_18
REMARK    6  A    between atoms: C_18  and  C_19
REMARK    7  A    between atoms: C_19  and  C_20
REMARK    8  A    between atoms: C_20  and  N_21
REMARK    9  A    between atoms: N_21  and  C_22
REMARK   10  A    between atoms: N_21  and  C_23
REMARK                            x       y       z     vdW  Elec       q    Type
REMARK                         _______ _______ _______ _____ _____    ______ ____
ROOT
ATOM      1  N   UNL     1       2.949   6.440  18.481  0.00  0.00    +0.000 N 
ATOM      2  C   UNL     1       2.518   5.743  19.695  0.00  0.00    +0.000 C 
ATOM      3  C   UNL     1       1.995   6.894  20.552  0.00  0.00    +0.000 C 
ATOM      4  N   UNL     1       1.727   7.939  19.596  0.00  0.00    +0.000 N 
ATOM      5  C   UNL     1       2.405   7.711  18.419  0.00  0.00    +0.000 A 
ATOM      6  N   UNL     1       2.457   8.597  17.479  0.00  0.00    +0.000 NA
ATOM      7  N   UNL     1       1.750   9.816  17.608  0.00  0.00    +0.000 NA
ATOM      8  C   UNL     1       1.130  10.088  18.724  0.00  0.00    +0.000 A 
ATOM      9  C   UNL     1       1.206   9.152  19.906  0.00  0.00    +0.000 A 
ATOM     10  O   UNL     1       0.893   9.512  21.031  0.00  0.00    +0.000 OA
ENDROOT
BRANCH   1  14
ATOM     11  C   UNL     1       5.614   4.539  15.793  0.00  0.00    +0.000 A 
ATOM     12  C   UNL     1       4.669   3.795  16.494  0.00  0.00    +0.000 A 
ATOM     13  C   UNL     1       3.779   4.426  17.371  0.00  0.00    +0.000 A 
ATOM     14  C   UNL     1       3.808   5.816  17.575  0.00  0.00    +0.000 A 
ATOM     15  C   UNL     1       4.761   6.543  16.851  0.00  0.00    +0.000 A 
ATOM     16  C   UNL     1       5.664   5.916  15.980  0.00  0.00    +0.000 A 
BRANCH  11  18
ATOM     17  C   UNL     1       6.163   3.852  13.601  0.00  0.00    +0.000 C 
ATOM     18  O   UNL     1       6.453   3.814  14.994  0.00  0.00    +0.000 OA
ENDBRANCH  11  18
ENDBRANCH   1  14
BRANCH   8  19
ATOM     19  C   UNL     1       0.320  11.367  18.792  0.00  0.00    +0.000 C 
ATOM     20  O   UNL     1      -0.797  11.394  18.301  0.00  0.00    +0.000 OA
ATOM     21  N   UNL     1       0.945  12.439  19.399  0.00  0.00    +0.000 N 
ATOM     22  H   UNL     1       1.917  12.332  19.676  0.00  0.00    +0.000 HD
BRANCH  21  23
ATOM     23  C   UNL     1       0.279  13.722  19.529  0.00  0.00    +0.000 C 
BRANCH  23  24
ATOM     24  C   UNL     1       1.118  14.850  18.928  0.00  0.00    +0.000 C 
BRANCH  24  25
ATOM     25  C   UNL     1       2.517  14.390  18.490  0.00  0.00    +0.000 C 
BRANCH  25  26
ATOM     26  N   UNL     1       3.543  15.445  18.488  0.00  0.00    +0.000 NA
ATOM     27  C   UNL     1       4.789  15.009  17.851  0.00  0.00    +0.000 C 
ATOM     28  C   UNL     1       3.042  16.646  17.814  0.00  0.00    +0.000 C 
ENDBRANCH  25  26
ENDBRANCH  24  25
ENDBRANCH  23  24
ENDBRANCH  21  23
ENDBRANCH   8  19
TORSDOF 7
ENDMDL
MODEL 9
REMARK VINA RESULT:      -6.5      1.035      1.656
REMARK  Name = 
REMARK  10 active torsions:
REMARK  status: ('A' for Active; 'I' for Inactive)
REMARK    1  A    between atoms: C_1  and  O_2
REMARK    2  A    between atoms: O_2  and  C_3
REMARK    3  A    between atoms: C_6  and  N_7
REMARK    4  A    between atoms: C_14  and  C_15
REMARK    5  A    between atoms: N_17  and  C_18
REMARK    6  A    between atoms: C_18  and  C_19
REMARK    7  A    between atoms: C_19  and  C_20
REMARK    8  A    between atoms: C_20  and  N_21
REMARK    9  A    between atoms: N_21  and  C_22
REMARK   10  A    between atoms: N_21  and  C_23
REMARK                            x       y       z     vdW  Elec       q    Type
REMARK                         _______ _______ _______ _____ _____    ______ ____
ROOT
ATOM      1  N   UNL     1       3.183   6.270  18.431  0.00  0.00    +0.000 N 
ATOM      2  C   UNL     1       2.796   5.531  19.635  0.00  0.00    +0.000 C 
ATOM      3  C   UNL     1       2.189   6.632  20.502  0.00  0.00    +0.000 C 
ATOM      4  N   UNL     1       1.851   7.666  19.556  0.00  0.00    +0.000 N 
ATOM      5  C   UNL     1       2.550   7.499  18.380  0.00  0.00    +0.000 A 
ATOM      6  N   UNL     1       2.542   8.398  17.451  0.00  0.00    +0.000 NA
ATOM      7  N   UNL     1       1.750   9.562  17.588  0.00  0.00    +0.000 NA
ATOM      8  C   UNL     1       1.106   9.776  18.703  0.00  0.00    +0.000 A 
ATOM      9  C   UNL     1       1.242   8.835  19.875  0.00  0.00    +0.000 A 
ATOM     10  O   UNL     1       0.899   9.158  21.002  0.00  0.00    +0.000 OA
ENDROOT
BRANCH   1  14
ATOM     11  C   UNL     1       5.871   4.594  15.619  0.00  0.00    +0.000 A 
ATOM     12  C   UNL     1       5.762   5.976  15.755  0.00  0.00    +0.000 A 
ATOM     13  C   UNL     1       4.883   6.529  16.695  0.00  0.00    +0.000 A 
ATOM     14  C   UNL     1       4.089   5.719  17.524  0.00  0.00    +0.000 A 
ATOM     15  C   UNL     1       4.224   4.334  17.375  0.00  0.00    +0.000 A 
ATOM     16  C   UNL     1       5.092   3.773  16.428  0.00  0.00    +0.000 A 
BRANCH  11  18
ATOM     17  C   UNL     1       6.130   3.794  13.412  0.00  0.00    +0.000 C 
ATOM     18  O   UNL     1       6.731   4.168  14.647  0.00  0.00    +0.000 OA
ENDBRANCH  11  18
ENDBRANCH   1  14
BRANCH   8  19
ATOM     19  C   UNL     1       0.206  10.992  18.781  0.00  0.00    +0.000 C 
ATOM     20  O   UNL     1       0.684  12.102  18.608  0.00  0.00    +0.000 OA
ATOM     21  N   UNL     1      -1.119  10.739  19.079  0.00  0.00    +0.000 N 
ATOM     22  H   UNL     1      -1.384   9.785  19.308  0.00  0.00    +0.000 HD
BRANCH  21  23
ATOM     23  C   UNL     1      -2.086  11.817  19.183  0.00  0.00    +0.000 C 
BRANCH  23  24
ATOM     24  C   UNL     1      -3.032  11.836  17.983  0.00  0.00    +0.000 C 
BRANCH  24  25
ATOM     25  C   UNL     1      -4.408  11.226  18.295  0.00  0.00    +0.000 C 
BRANCH  25  26
ATOM     26  N   UNL     1      -5.502  12.202  18.431  0.00  0.00    +0.000 NA
ATOM     27  C   UNL     1      -6.788  11.663  17.978  0.00  0.00    +0.000 C 
ATOM     28  C   UNL     1      -5.619  12.650  19.821  0.00  0.00    +0.000 C 
ENDBRANCH  25  26
ENDBRANCH  24  25
ENDBRANCH  23  24
ENDBRANCH  21  23
ENDBRANCH   8  19
TORSDOF 7
ENDMDL
