MODEL 1
REMARK VINA RESULT:      -7.4      0.000      0.000
REMARK  Name = 
REMARK  7 active torsions:
REMARK  status: ('A' for Active; 'I' for Inactive)
REMARK    1  A    between atoms: C_1  and  C_2
REMARK    2  A    between atoms: C_2  and  C_3
REMARK    3  A    between atoms: C_2  and  C_4
REMARK    4  A    between atoms: C_2  and  C_5
REMARK    5  A    between atoms: C_5  and  C_6
REMARK    6  A    between atoms: N_11  and  C_12
REMARK    7  A    between atoms: C_12  and  C_13
REMARK                            x       y       z     vdW  Elec       q    Type
REMARK                         _______ _______ _______ _____ _____    ______ ____
ROOT
ATOM      1  C   UNL     1       1.492   8.141  20.357  0.00  0.00    +0.000 C 
ATOM      2  O   UNL     1       1.011   8.199  21.489  0.00  0.00    +0.000 OA
ATOM      3  N   UNL     1       2.067   6.983  19.893  0.00  0.00    +0.000 N 
ATOM      4  C   UNL     1       1.997   5.778  20.728  0.00  0.00    +0.000 C 
ATOM      5  C   UNL     1       1.657   4.530  19.882  0.00  0.00    +0.000 C 
ATOM      6  N   UNL     1       2.508   4.355  18.674  0.00  0.00    +0.000 NA
ATOM      7  C   UNL     1       2.440   5.608  17.887  0.00  0.00    +0.000 C 
ATOM      8  C   UNL     1       2.863   6.857  18.672  0.00  0.00    +0.000 C 
ENDROOT
BRANCH   1   9
ATOM      9  C   UNL     1       1.452   9.321  19.373  0.00  0.00    +0.000 C 
BRANCH   9  11
ATOM     10  C   UNL     1       0.681  10.835  21.248  0.00  0.00    +0.000 C 
ATOM     11  C   UNL     1       0.517  10.486  19.762  0.00  0.00    +0.000 C 
ATOM     12  C   UNL     1      -0.948  10.124  19.448  0.00  0.00    +0.000 C 
ATOM     13  C   UNL     1       0.902  11.739  18.946  0.00  0.00    +0.000 C 
ENDBRANCH   9  11
ENDBRANCH   1   9
BRANCH   6  14
ATOM     14  C   UNL     1       3.880   3.999  19.083  0.00  0.00    +0.000 C 
BRANCH  14  15
ATOM     15  C   UNL     1       4.954   4.287  18.056  0.00  0.00    +0.000 A 
ATOM     16  C   UNL     1       6.159   4.919  18.438  0.00  0.00    +0.000 A 
ATOM     17  C   UNL     1       7.126   5.258  17.486  0.00  0.00    +0.000 A 
ATOM     18  C   UNL     1       6.875   4.933  16.170  0.00  0.00    +0.000 A 
ATOM     19  C   UNL     1       5.721   4.293  15.792  0.00  0.00    +0.000 A 
ATOM     20  C   UNL     1       4.740   3.965  16.704  0.00  0.00    +0.000 A 
ATOM     21  O   UNL     1       5.677   4.045  14.456  0.00  0.00    +0.000 OA
ATOM     22  C   UNL     1       6.931   4.620  14.034  0.00  0.00    +0.000 C 
ATOM     23  O   UNL     1       7.698   5.184  15.118  0.00  0.00    +0.000 OA
ENDBRANCH  14  15
ENDBRANCH   6  14
TORSDOF 4
ENDMDL
MODEL 2
REMARK VINA RESULT:      -7.2      0.514      1.066
REMARK  Name = 
REMARK  7 active torsions:
REMARK  status: ('A' for Active; 'I' for Inactive)
REMARK    1  A    between atoms: C_1  and  C_2
REMARK    2  A    between atoms: C_2  and  C_3
REMARK    3  A    between atoms: C_2  and  C_4
REMARK    4  A    between atoms: C_2  and  C_5
REMARK    5  A    between atoms: C_5  and  C_6
REMARK    6  A    between atoms: N_11  and  C_12
REMARK    7  A    between atoms: C_12  and  C_13
REMARK                            x       y       z     vdW  Elec       q    Type
REMARK                         _______ _______ _______ _____ _____    ______ ____
ROOT
ATOM      1  C   UNL     1       1.557   8.057  20.403  0.00  0.00    +0.000 C 
ATOM      2  O   UNL     1       1.127   8.100  21.556  0.00  0.00    +0.000 OA
ATOM      3  N   UNL     1       2.159   6.923  19.917  0.00  0.00    +0.000 N 
ATOM      4  C   UNL     1       2.178   5.719  20.758  0.00  0.00    +0.000 C 
ATOM      5  C   UNL     1       1.852   4.454  19.932  0.00  0.00    +0.000 C 
ATOM      6  N   UNL     1       2.654   4.309  18.686  0.00  0.00    +0.000 NA
ATOM      7  C   UNL     1       2.496   5.554  17.900  0.00  0.00    +0.000 C 
ATOM      8  C   UNL     1       2.903   6.824  18.661  0.00  0.00    +0.000 C 
ENDROOT
BRANCH   1   9
ATOM      9  C   UNL     1       1.422   9.230  19.419  0.00  0.00    +0.000 C 
BRANCH   9  11
ATOM     10  C   UNL     1      -0.342  10.811  18.527  0.00  0.00    +0.000 C 
ATOM     11  C   UNL     1       0.369  10.297  19.788  0.00  0.00    +0.000 C 
ATOM     12  C   UNL     1       1.031  11.460  20.550  0.00  0.00    +0.000 C 
ATOM     13  C   UNL     1      -0.704   9.657  20.695  0.00  0.00    +0.000 C 
ENDBRANCH   9  11
ENDBRANCH   1   9
BRANCH   6  14
ATOM     14  C   UNL     1       4.057   4.013  19.033  0.00  0.00    +0.000 C 
BRANCH  14  15
ATOM     15  C   UNL     1       5.071   4.353  17.962  0.00  0.00    +0.000 A 
ATOM     16  C   UNL     1       6.181   5.175  18.261  0.00  0.00    +0.000 A 
ATOM     17  C   UNL     1       7.082   5.557  17.262  0.00  0.00    +0.000 A 
ATOM     18  C   UNL     1       6.866   5.085  15.985  0.00  0.00    +0.000 A 
ATOM     19  C   UNL     1       5.807   4.262  15.689  0.00  0.00    +0.000 A 
ATOM     20  C   UNL     1       4.890   3.885  16.648  0.00  0.00    +0.000 A 
ATOM     21  O   UNL     1       5.786   3.892  14.381  0.00  0.00    +0.000 OA
ATOM     22  C   UNL     1       6.944   4.594  13.883  0.00  0.00    +0.000 C 
ATOM     23  O   UNL     1       7.636   5.352  14.897  0.00  0.00    +0.000 OA
ENDBRANCH  14  15
ENDBRANCH   6  14
TORSDOF 4
ENDMDL
MODEL 3
REMARK VINA RESULT:      -7.2      0.990      1.022
REMARK  Name = 
REMARK  7 active torsions:
REMARK  status: ('A' for Active; 'I' for Inactive)
REMARK    1  A    between atoms: C_1  and  C_2
REMARK    2  A    between atoms: C_2  and  C_3
REMARK    3  A    between atoms: C_2  and  C_4
REMARK    4  A    between atoms: C_2  and  C_5
REMARK    5  A    between atoms: C_5  and  C_6
REMARK    6  A    between atoms: N_11  and  C_12
REMARK    7  A    between atoms: C_12  and  C_13
REMARK                            x       y       z     vdW  Elec       q    Type
REMARK                         _______ _______ _______ _____ _____    ______ ____
ROOT
ATOM      1  C   UNL     1       0.880   8.985  20.276  0.00  0.00    +0.000 C 
ATOM      2  O   UNL     1       0.438   9.038  21.424  0.00  0.00    +0.000 OA
ATOM      3  N   UNL     1       1.712   7.964  19.887  0.00  0.00    +0.000 N 
ATOM      4  C   UNL     1       1.975   6.871  20.829  0.00  0.00    +0.000 C 
ATOM      5  C   UNL     1       1.930   5.498  20.120  0.00  0.00    +0.000 C 
ATOM      6  N   UNL     1       2.758   5.416  18.886  0.00  0.00    +0.000 NA
ATOM      7  C   UNL     1       2.351   6.526  17.995  0.00  0.00    +0.000 C 
ATOM      8  C   UNL     1       2.473   7.915  18.638  0.00  0.00    +0.000 C 
ENDROOT
BRANCH   1   9
ATOM      9  C   UNL     1       0.512  10.013  19.193  0.00  0.00    +0.000 C 
BRANCH   9  11
ATOM     10  C   UNL     1       1.167  11.877  20.775  0.00  0.00    +0.000 C 
ATOM     11  C   UNL     1       0.162  11.427  19.704  0.00  0.00    +0.000 C 
ATOM     12  C   UNL     1      -1.274  11.454  20.261  0.00  0.00    +0.000 C 
ATOM     13  C   UNL     1       0.257  12.427  18.531  0.00  0.00    +0.000 C 
ENDBRANCH   9  11
ENDBRANCH   1   9
BRANCH   6  14
ATOM     14  C   UNL     1       4.188   5.453  19.246  0.00  0.00    +0.000 C 
BRANCH  14  15
ATOM     15  C   UNL     1       5.148   5.395  18.078  0.00  0.00    +0.000 A 
ATOM     16  C   UNL     1       6.329   6.172  18.083  0.00  0.00    +0.000 A 
ATOM     17  C   UNL     1       7.185   6.185  16.977  0.00  0.00    +0.000 A 
ATOM     18  C   UNL     1       6.852   5.398  15.896  0.00  0.00    +0.000 A 
ATOM     19  C   UNL     1       5.722   4.618  15.891  0.00  0.00    +0.000 A 
ATOM     20  C   UNL     1       4.848   4.600  16.958  0.00  0.00    +0.000 A 
ATOM     21  O   UNL     1       5.588   3.903  14.742  0.00  0.00    +0.000 OA
ATOM     22  C   UNL     1       6.755   4.339  14.015  0.00  0.00    +0.000 C 
ATOM     23  O   UNL     1       7.564   5.287  14.743  0.00  0.00    +0.000 OA
ENDBRANCH  14  15
ENDBRANCH   6  14
TORSDOF 4
ENDMDL
MODEL 4
REMARK VINA RESULT:      -7.1      3.332      5.140
REMARK  Name = 
REMARK  7 active torsions:
REMARK  status: ('A' for Active; 'I' for Inactive)
REMARK    1  A    between atoms: C_1  and  C_2
REMARK    2  A    between atoms: C_2  and  C_3
REMARK    3  A    between atoms: C_2  and  C_4
REMARK    4  A    between atoms: C_2  and  C_5
REMARK    5  A    between atoms: C_5  and  C_6
REMARK    6  A    between atoms: N_11  and  C_12
REMARK    7  A    between atoms: C_12  and  C_13
REMARK                            x       y       z     vdW  Elec       q    Type
REMARK                         _______ _______ _______ _____ _____    ______ ____
ROOT
ATOM      1  C   UNL     1       3.216   5.231  19.587  0.00  0.00    +0.000 C 
ATOM      2  O   UNL     1       2.625   6.209  20.045  0.00  0.00    +0.000 OA
ATOM      3  N   UNL     1       3.921   5.319  18.412  0.00  0.00    +0.000 N 
ATOM      4  C   UNL     1       4.055   6.630  17.767  0.00  0.00    +0.000 C 
ATOM      5  C   UNL     1       5.495   6.855  17.251  0.00  0.00    +0.000 C 
ATOM      6  N   UNL     1       6.033   5.741  16.425  0.00  0.00    +0.000 NA
ATOM      7  C   UNL     1       5.903   4.492  17.210  0.00  0.00    +0.000 C 
ATOM      8  C   UNL     1       4.466   4.189  17.659  0.00  0.00    +0.000 C 
ENDROOT
BRANCH   1   9
ATOM      9  C   UNL     1       3.248   3.869  20.299  0.00  0.00    +0.000 C 
BRANCH   9  11
ATOM     10  C   UNL     1       1.933   1.954  19.295  0.00  0.00    +0.000 C 
ATOM     11  C   UNL     1       1.913   3.094  20.324  0.00  0.00    +0.000 C 
ATOM     12  C   UNL     1       0.736   4.050  20.053  0.00  0.00    +0.000 C 
ATOM     13  C   UNL     1       1.723   2.457  21.718  0.00  0.00    +0.000 C 
ENDBRANCH   9  11
ENDBRANCH   1   9
BRANCH   6  14
ATOM     14  C   UNL     1       5.321   5.694  15.134  0.00  0.00    +0.000 C 
BRANCH  14  15
ATOM     15  C   UNL     1       5.981   4.849  14.065  0.00  0.00    +0.000 A 
ATOM     16  C   UNL     1       7.282   5.158  13.609  0.00  0.00    +0.000 A 
ATOM     17  C   UNL     1       7.871   4.431  12.569  0.00  0.00    +0.000 A 
ATOM     18  C   UNL     1       7.151   3.391  12.023  0.00  0.00    +0.000 A 
ATOM     19  C   UNL     1       5.898   3.063  12.478  0.00  0.00    +0.000 A 
ATOM     20  C   UNL     1       5.282   3.774  13.487  0.00  0.00    +0.000 A 
ATOM     21  O   UNL     1       5.369   1.995  11.823  0.00  0.00    +0.000 OA
ATOM     22  C   UNL     1       6.429   1.700  10.889  0.00  0.00    +0.000 C 
ATOM     23  O   UNL     1       7.565   2.581  11.013  0.00  0.00    +0.000 OA
ENDBRANCH  14  15
ENDBRANCH   6  14
TORSDOF 4
ENDMDL
MODEL 5
REMARK VINA RESULT:      -7.0      3.349      9.627
REMARK  Name = 
REMARK  7 active torsions:
REMARK  status: ('A' for Active; 'I' for Inactive)
REMARK    1  A    between atoms: C_1  and  C_2
REMARK    2  A    between atoms: C_2  and  C_3
REMARK    3  A    between atoms: C_2  and  C_4
REMARK    4  A    between atoms: C_2  and  C_5
REMARK    5  A    between atoms: C_5  and  C_6
REMARK    6  A    between atoms: N_11  and  C_12
REMARK    7  A    between atoms: C_12  and  C_13
REMARK                            x       y       z     vdW  Elec       q    Type
REMARK                         _______ _______ _______ _____ _____    ______ ____
ROOT
ATOM      1  C   UNL     1       2.733   6.941  19.018  0.00  0.00    +0.000 C 
ATOM      2  O   UNL     1       3.186   7.101  17.884  0.00  0.00    +0.000 OA
ATOM      3  N   UNL     1       1.991   7.924  19.626  0.00  0.00    +0.000 N 
ATOM      4  C   UNL     1       1.646   9.125  18.856  0.00  0.00    +0.000 C 
ATOM      5  C   UNL     1       0.175   9.538  19.092  0.00  0.00    +0.000 C 
ATOM      6  N   UNL     1      -0.215   9.631  20.525  0.00  0.00    +0.000 NA
ATOM      7  C   UNL     1       0.120   8.340  21.169  0.00  0.00    +0.000 C 
ATOM      8  C   UNL     1       1.598   7.946  21.035  0.00  0.00    +0.000 C 
ENDROOT
BRANCH   1   9
ATOM      9  C   UNL     1       2.922   5.641  19.816  0.00  0.00    +0.000 C 
BRANCH   9  11
ATOM     10  C   UNL     1       1.559   4.651  17.927  0.00  0.00    +0.000 C 
ATOM     11  C   UNL     1       2.050   4.448  19.367  0.00  0.00    +0.000 C 
ATOM     12  C   UNL     1       0.859   4.267  20.327  0.00  0.00    +0.000 C 
ATOM     13  C   UNL     1       2.903   3.161  19.389  0.00  0.00    +0.000 C 
ENDBRANCH   9  11
ENDBRANCH   1   9
BRANCH   6  14
ATOM     14  C   UNL     1       0.459  10.786  21.147  0.00  0.00    +0.000 C 
BRANCH  14  15
ATOM     15  C   UNL     1      -0.457  11.768  21.845  0.00  0.00    +0.000 A 
ATOM     16  C   UNL     1      -0.154  13.148  21.852  0.00  0.00    +0.000 A 
ATOM     17  C   UNL     1      -0.952  14.055  22.558  0.00  0.00    +0.000 A 
ATOM     18  C   UNL     1      -2.053  13.561  23.223  0.00  0.00    +0.000 A 
ATOM     19  C   UNL     1      -2.373  12.226  23.200  0.00  0.00    +0.000 A 
ATOM     20  C   UNL     1      -1.594  11.305  22.531  0.00  0.00    +0.000 A 
ATOM     21  O   UNL     1      -3.506  11.949  23.899  0.00  0.00    +0.000 OA
ATOM     22  C   UNL     1      -3.852  13.264  24.382  0.00  0.00    +0.000 C 
ATOM     23  O   UNL     1      -2.936  14.293  23.954  0.00  0.00    +0.000 OA
ENDBRANCH  14  15
ENDBRANCH   6  14
TORSDOF 4
ENDMDL
MODEL 6
REMARK VINA RESULT:      -6.9      0.792      1.170
REMARK  Name = 
REMARK  7 active torsions:
REMARK  status: ('A' for Active; 'I' for Inactive)
REMARK    1  A    between atoms: C_1  and  C_2
REMARK    2  A    between atoms: C_2  and  C_3
REMARK    3  A    between atoms: C_2  and  C_4
REMARK    4  A    between atoms: C_2  and  C_5
REMARK    5  A    between atoms: C_5  and  C_6
REMARK    6  A    between atoms: N_11  and  C_12
REMARK    7  A    between atoms: C_12  and  C_13
REMARK                            x       y       z     vdW  Elec       q    Type
REMARK                         _______ _______ _______ _____ _____    ______ ____
ROOT
ATOM      1  C   UNL     1       1.009   8.684  20.283  0.00  0.00    +0.000 C 
ATOM      2  O   UNL     1       0.558   8.756  21.426  0.00  0.00    +0.000 OA
ATOM      3  N   UNL     1       1.819   7.640  19.910  0.00  0.00    +0.000 N 
ATOM      4  C   UNL     1       2.046   6.547  20.864  0.00  0.00    +0.000 C 
ATOM      5  C   UNL     1       1.974   5.170  20.166  0.00  0.00    +0.000 C 
ATOM      6  N   UNL     1       2.811   5.058  18.940  0.00  0.00    +0.000 NA
ATOM      7  C   UNL     1       2.440   6.171  18.036  0.00  0.00    +0.000 C 
ATOM      8  C   UNL     1       2.590   7.561  18.669  0.00  0.00    +0.000 C 
ENDROOT
BRANCH   1   9
ATOM      9  C   UNL     1       0.677   9.711  19.189  0.00  0.00    +0.000 C 
BRANCH   9  11
ATOM     10  C   UNL     1      -0.849  11.669  19.680  0.00  0.00    +0.000 C 
ATOM     11  C   UNL     1       0.607  11.183  19.651  0.00  0.00    +0.000 C 
ATOM     12  C   UNL     1       1.458  12.074  18.726  0.00  0.00    +0.000 C 
ATOM     13  C   UNL     1       1.161  11.290  21.088  0.00  0.00    +0.000 C 
ENDBRANCH   9  11
ENDBRANCH   1   9
BRANCH   6  14
ATOM     14  C   UNL     1       4.238   5.063  19.314  0.00  0.00    +0.000 C 
BRANCH  14  15
ATOM     15  C   UNL     1       5.208   5.138  18.154  0.00  0.00    +0.000 A 
ATOM     16  C   UNL     1       6.299   6.035  18.190  0.00  0.00    +0.000 A 
ATOM     17  C   UNL     1       7.158   6.168  17.093  0.00  0.00    +0.000 A 
ATOM     18  C   UNL     1       6.917   5.379  15.989  0.00  0.00    +0.000 A 
ATOM     19  C   UNL     1       5.876   4.484  15.954  0.00  0.00    +0.000 A 
ATOM     20  C   UNL     1       5.001   4.345  17.011  0.00  0.00    +0.000 A 
ATOM     21  O   UNL     1       5.827   3.790  14.786  0.00  0.00    +0.000 OA
ATOM     22  C   UNL     1       6.946   4.366  14.082  0.00  0.00    +0.000 C 
ATOM     23  O   UNL     1       7.645   5.374  14.841  0.00  0.00    +0.000 OA
ENDBRANCH  14  15
ENDBRANCH   6  14
TORSDOF 4
ENDMDL
MODEL 7
REMARK VINA RESULT:      -6.9      3.251      5.257
REMARK  Name = 
REMARK  7 active torsions:
REMARK  status: ('A' for Active; 'I' for Inactive)
REMARK    1  A    between atoms: C_1  and  C_2
REMARK    2  A    between atoms: C_2  and  C_3
REMARK    3  A    between atoms: C_2  and  C_4
REMARK    4  A    between atoms: C_2  and  C_5
REMARK    5  A    between atoms: C_5  and  C_6
REMARK    6  A    between atoms: N_11  and  C_12
REMARK    7  A    between atoms: C_12  and  C_13
REMARK                            x       y       z     vdW  Elec       q    Type
REMARK                         _______ _______ _______ _____ _____    ______ ____
ROOT
ATOM      1  C   UNL     1      -2.152  12.397  20.261  0.00  0.00    +0.000 C 
ATOM      2  O   UNL     1      -3.274  12.234  19.782  0.00  0.00    +0.000 OA
ATOM      3  N   UNL     1      -1.142  11.501  20.013  0.00  0.00    +0.000 N 
ATOM      4  C   UNL     1      -1.390  10.403  19.070  0.00  0.00    +0.000 C 
ATOM      5  C   UNL     1      -0.184  10.193  18.126  0.00  0.00    +0.000 C 
ATOM      6  N   UNL     1       1.128  10.082  18.820  0.00  0.00    +0.000 NA
ATOM      7  C   UNL     1       1.286  11.275  19.682  0.00  0.00    +0.000 C 
ATOM      8  C   UNL     1       0.150  11.461  20.698  0.00  0.00    +0.000 C 
ENDROOT
BRANCH   1   9
ATOM      9  C   UNL     1      -1.783  13.614  21.125  0.00  0.00    +0.000 C 
BRANCH   9  11
ATOM     10  C   UNL     1      -1.330  14.262  23.529  0.00  0.00    +0.000 C 
ATOM     11  C   UNL     1      -2.330  13.600  22.569  0.00  0.00    +0.000 C 
ATOM     12  C   UNL     1      -2.633  12.155  23.012  0.00  0.00    +0.000 C 
ATOM     13  C   UNL     1      -3.637  14.419  22.624  0.00  0.00    +0.000 C 
ENDBRANCH   9  11
ENDBRANCH   1   9
BRANCH   6  14
ATOM     14  C   UNL     1       1.186   8.811  19.567  0.00  0.00    +0.000 C 
BRANCH  14  15
ATOM     15  C   UNL     1       2.215   7.818  19.072  0.00  0.00    +0.000 A 
ATOM     16  C   UNL     1       2.934   8.067  17.880  0.00  0.00    +0.000 A 
ATOM     17  C   UNL     1       3.832   7.122  17.373  0.00  0.00    +0.000 A 
ATOM     18  C   UNL     1       4.009   5.955  18.085  0.00  0.00    +0.000 A 
ATOM     19  C   UNL     1       3.338   5.716  19.258  0.00  0.00    +0.000 A 
ATOM     20  C   UNL     1       2.430   6.619  19.773  0.00  0.00    +0.000 A 
ATOM     21  O   UNL     1       3.670   4.520  19.814  0.00  0.00    +0.000 OA
ATOM     22  C   UNL     1       4.616   4.025  18.843  0.00  0.00    +0.000 C 
ATOM     23  O   UNL     1       4.838   4.933  17.744  0.00  0.00    +0.000 OA
ENDBRANCH  14  15
ENDBRANCH   6  14
TORSDOF 4
ENDMDL
MODEL 8
REMARK VINA RESULT:      -6.9      3.442      9.852
REMARK  Name = 
REMARK  7 active torsions:
REMARK  status: ('A' for Active; 'I' for Inactive)
REMARK    1  A    between atoms: C_1  and  C_2
REMARK    2  A    between atoms: C_2  and  C_3
REMARK    3  A    between atoms: C_2  and  C_4
REMARK    4  A    between atoms: C_2  and  C_5
REMARK    5  A    between atoms: C_5  and  C_6
REMARK    6  A    between atoms: N_11  and  C_12
REMARK    7  A    between atoms: C_12  and  C_13
REMARK                            x       y       z     vdW  Elec       q    Type
REMARK                         _______ _______ _______ _____ _____    ______ ____
ROOT
ATOM      1  C   UNL     1       2.568   7.476  18.780  0.00  0.00    +0.000 C 
ATOM      2  O   UNL     1       2.953   7.720  17.636  0.00  0.00    +0.000 OA
ATOM      3  N   UNL     1       1.820   8.387  19.482  0.00  0.00    +0.000 N 
ATOM      4  C   UNL     1       1.386   9.615  18.805  0.00  0.00    +0.000 C 
ATOM      5  C   UNL     1      -0.086   9.949  19.139  0.00  0.00    +0.000 C 
ATOM      6  N   UNL     1      -0.404   9.941  20.593  0.00  0.00    +0.000 NA
ATOM      7  C   UNL     1       0.018   8.632  21.141  0.00  0.00    +0.000 C 
ATOM      8  C   UNL     1       1.501   8.311  20.908  0.00  0.00    +0.000 C 
ENDROOT
BRANCH   1   9
ATOM      9  C   UNL     1       2.852   6.141  19.487  0.00  0.00    +0.000 C 
BRANCH   9  11
ATOM     10  C   UNL     1       3.120   3.625  19.406  0.00  0.00    +0.000 C 
ATOM     11  C   UNL     1       2.926   4.900  18.571  0.00  0.00    +0.000 C 
ATOM     12  C   UNL     1       4.066   5.058  17.548  0.00  0.00    +0.000 C 
ATOM     13  C   UNL     1       1.592   4.754  17.808  0.00  0.00    +0.000 C 
ENDBRANCH   9  11
ENDBRANCH   1   9
BRANCH   6  14
ATOM     14  C   UNL     1       0.256  11.087  21.249  0.00  0.00    +0.000 C 
BRANCH  14  15
ATOM     15  C   UNL     1      -0.663  11.992  22.040  0.00  0.00    +0.000 A 
ATOM     16  C   UNL     1      -0.348  13.359  22.212  0.00  0.00    +0.000 A 
ATOM     17  C   UNL     1      -1.150  14.188  23.004  0.00  0.00    +0.000 A 
ATOM     18  C   UNL     1      -2.267  13.632  23.590  0.00  0.00    +0.000 A 
ATOM     19  C   UNL     1      -2.599  12.313  23.406  0.00  0.00    +0.000 A 
ATOM     20  C   UNL     1      -1.817  11.466  22.648  0.00  0.00    +0.000 A 
ATOM     21  O   UNL     1      -3.747  11.970  24.050  0.00  0.00    +0.000 OA
ATOM     22  C   UNL     1      -4.090  13.224  24.676  0.00  0.00    +0.000 C 
ATOM     23  O   UNL     1      -3.155  14.285  24.386  0.00  0.00    +0.000 OA
ENDBRANCH  14  15
ENDBRANCH   6  14
TORSDOF 4
ENDMDL
MODEL 9
REMARK VINA RESULT:      -6.9      4.306      6.627
REMARK  Name = 
REMARK  7 active torsions:
REMARK  status: ('A' for Active; 'I' for Inactive)
REMARK    1  A    between atoms: C_1  and  C_2
REMARK    2  A    between atoms: C_2  and  C_3
REMARK    3  A    between atoms: C_2  and  C_4
REMARK    4  A    between atoms: C_2  and  C_5
REMARK    5  A    between atoms: C_5  and  C_6
REMARK    6  A    between atoms: N_11  and  C_12
REMARK    7  A    between atoms: C_12  and  C_13
REMARK                            x       y       z     vdW  Elec       q    Type
REMARK                         _______ _______ _______ _____ _____    ______ ____
ROOT
ATOM      1  C   UNL     1       4.091   3.875  17.529  0.00  0.00    +0.000 C 
ATOM      2  O   UNL     1       4.417   2.742  17.174  0.00  0.00    +0.000 OA
ATOM      3  N   UNL     1       5.005   4.900  17.539  0.00  0.00    +0.000 N 
ATOM      4  C   UNL     1       6.351   4.650  17.010  0.00  0.00    +0.000 C 
ATOM      5  C   UNL     1       6.835   5.829  16.134  0.00  0.00    +0.000 C 
ATOM      6  N   UNL     1       6.697   7.166  16.772  0.00  0.00    +0.000 NA
ATOM      7  C   UNL     1       5.288   7.321  17.198  0.00  0.00    +0.000 C 
ATOM      8  C   UNL     1       4.802   6.215  18.147  0.00  0.00    +0.000 C 
ENDROOT
BRANCH   1   9
ATOM      9  C   UNL     1       2.656   4.239  17.941  0.00  0.00    +0.000 C 
BRANCH   9  11
ATOM     10  C   UNL     1       1.437   4.681  20.115  0.00  0.00    +0.000 C 
ATOM     11  C   UNL     1       2.164   3.625  19.270  0.00  0.00    +0.000 C 
ATOM     12  C   UNL     1       3.349   3.026  20.052  0.00  0.00    +0.000 C 
ATOM     13  C   UNL     1       1.153   2.499  18.964  0.00  0.00    +0.000 C 
ENDBRANCH   9  11
ENDBRANCH   1   9
BRANCH   6  14
ATOM     14  C   UNL     1       7.659   7.285  17.884  0.00  0.00    +0.000 C 
BRANCH  14  15
ATOM     15  C   UNL     1       8.154   8.688  18.161  0.00  0.00    +0.000 A 
ATOM     16  C   UNL     1       9.058   8.932  19.219  0.00  0.00    +0.000 A 
ATOM     17  C   UNL     1       9.463  10.234  19.532  0.00  0.00    +0.000 A 
ATOM     18  C   UNL     1       8.971  11.264  18.760  0.00  0.00    +0.000 A 
ATOM     19  C   UNL     1       8.115  11.035  17.711  0.00  0.00    +0.000 A 
ATOM     20  C   UNL     1       7.681   9.766  17.391  0.00  0.00    +0.000 A 
ATOM     21  O   UNL     1       7.766  12.180  17.065  0.00  0.00    +0.000 OA
ATOM     22  C   UNL     1       8.487  13.159  17.841  0.00  0.00    +0.000 C 
ATOM     23  O   UNL     1       9.257  12.584  18.918  0.00  0.00    +0.000 OA
ENDBRANCH  14  15
ENDBRANCH   6  14
TORSDOF 4
ENDMDL
