MODEL 1
REMARK VINA RESULT:      -7.1      0.000      0.000
REMARK  Name = 
REMARK  14 active torsions:
REMARK  status: ('A' for Active; 'I' for Inactive)
REMARK    1  A    between atoms: C_1  and  C_2
REMARK    2  A    between atoms: C_2  and  C_3
REMARK    3  A    between atoms: C_3  and  C_4
REMARK    4  A    between atoms: C_4  and  C_5
REMARK    5  A    between atoms: C_5  and  C_6
REMARK    6  A    between atoms: C_6  and  C_7
REMARK    7  A    between atoms: C_7  and  C_8
REMARK    8  A    between atoms: C_8  and  N_9
REMARK    9  A    between atoms: N_12  and  C_13
REMARK   10  A    between atoms: C_13  and  C_14
REMARK   11  A    between atoms: C_14  and  C_15
REMARK   12  A    between atoms: C_15  and  C_16
REMARK   13  A    between atoms: C_17  and  C_18
REMARK   14  A    between atoms: C_18  and  C_19
REMARK                            x       y       z     vdW  Elec       q    Type
REMARK                         _______ _______ _______ _____ _____    ______ ____
ROOT
ATOM      1  N   UNL     1       3.965   5.502  18.033  0.00  0.00    +0.000 N 
ATOM      2  C   UNL     1       3.238   6.612  18.466  0.00  0.00    +0.000 A 
ATOM      3  C   UNL     1       2.689   6.276  19.672  0.00  0.00    +0.000 A 
ATOM      4  N   UNL     1       3.125   4.954  19.958  0.00  0.00    +0.000 N 
ATOM      5  C   UNL     1       3.878   4.492  18.923  0.00  0.00    +0.000 A 
ATOM      6  C   UNL     1       1.795   7.143  20.396  0.00  0.00    +0.000 C 
ATOM      7  O   UNL     1       1.257   6.929  21.481  0.00  0.00    +0.000 OA
ATOM      8  C   UNL     1       1.492   8.437  19.701  0.00  0.00    +0.000 A 
ATOM      9  C   UNL     1       0.605   9.347  20.295  0.00  0.00    +0.000 A 
ATOM     10  C   UNL     1       0.303  10.559  19.668  0.00  0.00    +0.000 A 
ATOM     11  C   UNL     1       0.875  10.876  18.441  0.00  0.00    +0.000 A 
ATOM     12  C   UNL     1       1.752   9.980  17.834  0.00  0.00    +0.000 A 
ATOM     13  C   UNL     1       2.069   8.762  18.460  0.00  0.00    +0.000 A 
ATOM     14  C   UNL     1       3.004   7.843  17.768  0.00  0.00    +0.000 C 
ATOM     15  O   UNL     1       3.470   8.189  16.686  0.00  0.00    +0.000 OA
ENDROOT
BRANCH   5  16
ATOM     16  C   UNL     1       4.432   3.099  18.726  0.00  0.00    +0.000 C 
ATOM     17  C   UNL     1       3.723   2.225  17.711  0.00  0.00    +0.000 C 
ENDBRANCH   5  16
BRANCH   1  18
ATOM     18  C   UNL     1       4.572   5.408  16.691  0.00  0.00    +0.000 C 
BRANCH  18  19
ATOM     19  C   UNL     1       6.056   5.740  16.787  0.00  0.00    +0.000 C 
BRANCH  19  20
ATOM     20  C   UNL     1       6.890   4.835  15.892  0.00  0.00    +0.000 C 
BRANCH  20  21
ATOM     21  C   UNL     1       6.061   4.416  14.685  0.00  0.00    +0.000 C 
BRANCH  21  22
ATOM     22  C   UNL     1       6.902   4.362  13.414  0.00  0.00    +0.000 C 
BRANCH  22  23
ATOM     23  C   UNL     1       6.263   3.482  12.338  0.00  0.00    +0.000 C 
BRANCH  23  25
ATOM     24  C   UNL     1       4.091   3.197  11.090  0.00  0.00    +0.000 C 
ATOM     25  C   UNL     1       4.739   3.430  12.442  0.00  0.00    +0.000 C 
ENDBRANCH  23  25
ENDBRANCH  22  23
ENDBRANCH  21  22
ENDBRANCH  20  21
ENDBRANCH  19  20
ENDBRANCH  18  19
ENDBRANCH   1  18
BRANCH   4  26
ATOM     26  C   UNL     1       2.654   4.147  21.108  0.00  0.00    +0.000 C 
BRANCH  26  27
ATOM     27  C   UNL     1       1.246   3.575  20.981  0.00  0.00    +0.000 C 
BRANCH  27  28
ATOM     28  C   UNL     1       1.160   2.301  20.142  0.00  0.00    +0.000 C 
ATOM     29  C   UNL     1       0.509   2.584  18.793  0.00  0.00    +0.000 C 
ENDBRANCH  27  28
ENDBRANCH  26  27
ENDBRANCH   4  26
TORSDOF 11
ENDMDL
MODEL 2
REMARK VINA RESULT:      -6.9      1.930      3.366
REMARK  Name = 
REMARK  14 active torsions:
REMARK  status: ('A' for Active; 'I' for Inactive)
REMARK    1  A    between atoms: C_1  and  C_2
REMARK    2  A    between atoms: C_2  and  C_3
REMARK    3  A    between atoms: C_3  and  C_4
REMARK    4  A    between atoms: C_4  and  C_5
REMARK    5  A    between atoms: C_5  and  C_6
REMARK    6  A    between atoms: C_6  and  C_7
REMARK    7  A    between atoms: C_7  and  C_8
REMARK    8  A    between atoms: C_8  and  N_9
REMARK    9  A    between atoms: N_12  and  C_13
REMARK   10  A    between atoms: C_13  and  C_14
REMARK   11  A    between atoms: C_14  and  C_15
REMARK   12  A    between atoms: C_15  and  C_16
REMARK   13  A    between atoms: C_17  and  C_18
REMARK   14  A    between atoms: C_18  and  C_19
REMARK                            x       y       z     vdW  Elec       q    Type
REMARK                         _______ _______ _______ _____ _____    ______ ____
ROOT
ATOM      1  N   UNL     1       4.044   5.187  18.175  0.00  0.00    +0.000 N 
ATOM      2  C   UNL     1       3.342   6.335  18.545  0.00  0.00    +0.000 A 
ATOM      3  C   UNL     1       2.764   6.069  19.755  0.00  0.00    +0.000 A 
ATOM      4  N   UNL     1       3.155   4.749  20.106  0.00  0.00    +0.000 N 
ATOM      5  C   UNL     1       3.912   4.220  19.107  0.00  0.00    +0.000 A 
ATOM      6  C   UNL     1       1.883   6.992  20.423  0.00  0.00    +0.000 C 
ATOM      7  O   UNL     1       1.320   6.842  21.507  0.00  0.00    +0.000 OA
ATOM      8  C   UNL     1       1.630   8.262  19.667  0.00  0.00    +0.000 A 
ATOM      9  C   UNL     1       0.760   9.222  20.204  0.00  0.00    +0.000 A 
ATOM     10  C   UNL     1       0.505  10.414  19.520  0.00  0.00    +0.000 A 
ATOM     11  C   UNL     1       1.107  10.660  18.291  0.00  0.00    +0.000 A 
ATOM     12  C   UNL     1       1.967   9.713  17.740  0.00  0.00    +0.000 A 
ATOM     13  C   UNL     1       2.237   8.516  18.424  0.00  0.00    +0.000 A 
ATOM     14  C   UNL     1       3.157   7.540  17.790  0.00  0.00    +0.000 C 
ATOM     15  O   UNL     1       3.652   7.825  16.703  0.00  0.00    +0.000 OA
ENDROOT
BRANCH   5  16
ATOM     16  C   UNL     1       4.428   2.804  18.980  0.00  0.00    +0.000 C 
ATOM     17  C   UNL     1       3.626   1.866  18.102  0.00  0.00    +0.000 C 
ENDBRANCH   5  16
BRANCH   1  18
ATOM     18  C   UNL     1       4.672   5.016  16.850  0.00  0.00    +0.000 C 
BRANCH  18  19
ATOM     19  C   UNL     1       6.083   4.472  17.028  0.00  0.00    +0.000 C 
BRANCH  19  20
ATOM     20  C   UNL     1       7.112   5.591  17.074  0.00  0.00    +0.000 C 
BRANCH  20  21
ATOM     21  C   UNL     1       7.592   5.778  18.507  0.00  0.00    +0.000 C 
BRANCH  21  22
ATOM     22  C   UNL     1       8.212   7.155  18.719  0.00  0.00    +0.000 C 
BRANCH  22  23
ATOM     23  C   UNL     1       7.684   8.184  17.717  0.00  0.00    +0.000 C 
BRANCH  23  25
ATOM     24  C   UNL     1       9.043   9.791  19.107  0.00  0.00    +0.000 C 
ATOM     25  C   UNL     1       8.482   9.488  17.730  0.00  0.00    +0.000 C 
ENDBRANCH  23  25
ENDBRANCH  22  23
ENDBRANCH  21  22
ENDBRANCH  20  21
ENDBRANCH  19  20
ENDBRANCH  18  19
ENDBRANCH   1  18
BRANCH   4  26
ATOM     26  C   UNL     1       2.641   4.007  21.282  0.00  0.00    +0.000 C 
BRANCH  26  27
ATOM     27  C   UNL     1       1.450   3.092  21.015  0.00  0.00    +0.000 C 
BRANCH  27  28
ATOM     28  C   UNL     1       0.537   3.565  19.886  0.00  0.00    +0.000 C 
ATOM     29  C   UNL     1       0.406   2.493  18.810  0.00  0.00    +0.000 C 
ENDBRANCH  27  28
ENDBRANCH  26  27
ENDBRANCH   4  26
TORSDOF 11
ENDMDL
MODEL 3
REMARK VINA RESULT:      -6.9      2.248      3.786
REMARK  Name = 
REMARK  14 active torsions:
REMARK  status: ('A' for Active; 'I' for Inactive)
REMARK    1  A    between atoms: C_1  and  C_2
REMARK    2  A    between atoms: C_2  and  C_3
REMARK    3  A    between atoms: C_3  and  C_4
REMARK    4  A    between atoms: C_4  and  C_5
REMARK    5  A    between atoms: C_5  and  C_6
REMARK    6  A    between atoms: C_6  and  C_7
REMARK    7  A    between atoms: C_7  and  C_8
REMARK    8  A    between atoms: C_8  and  N_9
REMARK    9  A    between atoms: N_12  and  C_13
REMARK   10  A    between atoms: C_13  and  C_14
REMARK   11  A    between atoms: C_14  and  C_15
REMARK   12  A    between atoms: C_15  and  C_16
REMARK   13  A    between atoms: C_17  and  C_18
REMARK   14  A    between atoms: C_18  and  C_19
REMARK                            x       y       z     vdW  Elec       q    Type
REMARK                         _______ _______ _______ _____ _____    ______ ____
ROOT
ATOM      1  N   UNL     1       3.833   6.205  18.139  0.00  0.00    +0.000 N 
ATOM      2  C   UNL     1       2.965   7.186  18.622  0.00  0.00    +0.000 A 
ATOM      3  C   UNL     1       2.425   6.698  19.779  0.00  0.00    +0.000 A 
ATOM      4  N   UNL     1       3.007   5.418  19.986  0.00  0.00    +0.000 N 
ATOM      5  C   UNL     1       3.841   5.127  18.951  0.00  0.00    +0.000 A 
ATOM      6  C   UNL     1       1.412   7.396  20.528  0.00  0.00    +0.000 C 
ATOM      7  O   UNL     1       0.871   7.039  21.574  0.00  0.00    +0.000 OA
ATOM      8  C   UNL     1       0.977   8.694  19.917  0.00  0.00    +0.000 A 
ATOM      9  C   UNL     1      -0.030   9.446  20.539  0.00  0.00    +0.000 A 
ATOM     10  C   UNL     1      -0.456  10.659  19.989  0.00  0.00    +0.000 A 
ATOM     11  C   UNL     1       0.110  11.132  18.811  0.00  0.00    +0.000 A 
ATOM     12  C   UNL     1       1.106  10.394  18.176  0.00  0.00    +0.000 A 
ATOM     13  C   UNL     1       1.548   9.178  18.725  0.00  0.00    +0.000 A 
ATOM     14  C   UNL     1       2.607   8.430  18.006  0.00  0.00    +0.000 C 
ATOM     15  O   UNL     1       3.060   8.910  16.970  0.00  0.00    +0.000 OA
ENDROOT
BRANCH   5  16
ATOM     16  C   UNL     1       4.564   3.827  18.676  0.00  0.00    +0.000 C 
ATOM     17  C   UNL     1       4.003   2.962  17.566  0.00  0.00    +0.000 C 
ENDBRANCH   5  16
BRANCH   1  18
ATOM     18  C   UNL     1       4.487   6.284  16.819  0.00  0.00    +0.000 C 
BRANCH  18  19
ATOM     19  C   UNL     1       5.774   7.092  16.943  0.00  0.00    +0.000 C 
BRANCH  19  20
ATOM     20  C   UNL     1       6.931   6.227  17.419  0.00  0.00    +0.000 C 
BRANCH  20  21
ATOM     21  C   UNL     1       7.916   7.087  18.201  0.00  0.00    +0.000 C 
BRANCH  21  22
ATOM     22  C   UNL     1       7.892   8.538  17.733  0.00  0.00    +0.000 C 
BRANCH  22  23
ATOM     23  C   UNL     1       8.769   9.438  18.606  0.00  0.00    +0.000 C 
BRANCH  23  25
ATOM     24  C   UNL     1      10.312  11.331  17.976  0.00  0.00    +0.000 C 
ATOM     25  C   UNL     1       8.870  10.867  18.071  0.00  0.00    +0.000 C 
ENDBRANCH  23  25
ENDBRANCH  22  23
ENDBRANCH  21  22
ENDBRANCH  20  21
ENDBRANCH  19  20
ENDBRANCH  18  19
ENDBRANCH   1  18
BRANCH   4  26
ATOM     26  C   UNL     1       2.603   4.476  21.057  0.00  0.00    +0.000 C 
BRANCH  26  27
ATOM     27  C   UNL     1       1.282   3.748  20.830  0.00  0.00    +0.000 C 
BRANCH  27  28
ATOM     28  C   UNL     1       0.864   3.649  19.364  0.00  0.00    +0.000 C 
ATOM     29  C   UNL     1       0.801   2.192  18.917  0.00  0.00    +0.000 C 
ENDBRANCH  27  28
ENDBRANCH  26  27
ENDBRANCH   4  26
TORSDOF 11
ENDMDL
MODEL 4
REMARK VINA RESULT:      -6.8      1.237      1.712
REMARK  Name = 
REMARK  14 active torsions:
REMARK  status: ('A' for Active; 'I' for Inactive)
REMARK    1  A    between atoms: C_1  and  C_2
REMARK    2  A    between atoms: C_2  and  C_3
REMARK    3  A    between atoms: C_3  and  C_4
REMARK    4  A    between atoms: C_4  and  C_5
REMARK    5  A    between atoms: C_5  and  C_6
REMARK    6  A    between atoms: C_6  and  C_7
REMARK    7  A    between atoms: C_7  and  C_8
REMARK    8  A    between atoms: C_8  and  N_9
REMARK    9  A    between atoms: N_12  and  C_13
REMARK   10  A    between atoms: C_13  and  C_14
REMARK   11  A    between atoms: C_14  and  C_15
REMARK   12  A    between atoms: C_15  and  C_16
REMARK   13  A    between atoms: C_17  and  C_18
REMARK   14  A    between atoms: C_18  and  C_19
REMARK                            x       y       z     vdW  Elec       q    Type
REMARK                         _______ _______ _______ _____ _____    ______ ____
ROOT
ATOM      1  N   UNL     1       3.142   7.132  18.087  0.00  0.00    +0.000 N 
ATOM      2  C   UNL     1       2.362   8.091  18.735  0.00  0.00    +0.000 A 
ATOM      3  C   UNL     1       1.923   7.520  19.897  0.00  0.00    +0.000 A 
ATOM      4  N   UNL     1       2.477   6.212  19.936  0.00  0.00    +0.000 N 
ATOM      5  C   UNL     1       3.192   5.989  18.801  0.00  0.00    +0.000 A 
ATOM      6  C   UNL     1       1.016   8.179  20.801  0.00  0.00    +0.000 C 
ATOM      7  O   UNL     1       0.569   7.747  21.863  0.00  0.00    +0.000 OA
ATOM      8  C   UNL     1       0.569   9.536  20.347  0.00  0.00    +0.000 A 
ATOM      9  C   UNL     1      -0.344  10.258  21.130  0.00  0.00    +0.000 A 
ATOM     10  C   UNL     1      -0.779  11.525  20.730  0.00  0.00    +0.000 A 
ATOM     11  C   UNL     1      -0.317  12.083  19.543  0.00  0.00    +0.000 A 
ATOM     12  C   UNL     1       0.584  11.376  18.751  0.00  0.00    +0.000 A 
ATOM     13  C   UNL     1       1.034  10.105  19.148  0.00  0.00    +0.000 A 
ATOM     14  C   UNL     1       1.989   9.393  18.264  0.00  0.00    +0.000 C 
ATOM     15  O   UNL     1       2.353   9.948  17.231  0.00  0.00    +0.000 OA
ENDROOT
BRANCH   5  16
ATOM     16  C   UNL     1       3.837   4.699  18.346  0.00  0.00    +0.000 C 
ATOM     17  C   UNL     1       2.985   3.778  17.497  0.00  0.00    +0.000 C 
ENDBRANCH   5  16
BRANCH   1  18
ATOM     18  C   UNL     1       3.664   7.308  16.717  0.00  0.00    +0.000 C 
BRANCH  18  19
ATOM     19  C   UNL     1       5.081   6.753  16.644  0.00  0.00    +0.000 C 
BRANCH  19  20
ATOM     20  C   UNL     1       5.350   6.084  15.305  0.00  0.00    +0.000 C 
BRANCH  20  21
ATOM     21  C   UNL     1       6.415   5.009  15.482  0.00  0.00    +0.000 C 
BRANCH  21  22
ATOM     22  C   UNL     1       6.084   3.751  14.687  0.00  0.00    +0.000 C 
BRANCH  22  23
ATOM     23  C   UNL     1       6.420   3.903  13.203  0.00  0.00    +0.000 C 
BRANCH  23  25
ATOM     24  C   UNL     1       5.696   2.137  11.555  0.00  0.00    +0.000 C 
ATOM     25  C   UNL     1       5.302   3.407  12.287  0.00  0.00    +0.000 C 
ENDBRANCH  23  25
ENDBRANCH  22  23
ENDBRANCH  21  22
ENDBRANCH  20  21
ENDBRANCH  19  20
ENDBRANCH  18  19
ENDBRANCH   1  18
BRANCH   4  26
ATOM     26  C   UNL     1       2.148   5.192  20.961  0.00  0.00    +0.000 C 
BRANCH  26  27
ATOM     27  C   UNL     1       1.036   4.217  20.587  0.00  0.00    +0.000 C 
BRANCH  27  28
ATOM     28  C   UNL     1       1.236   2.802  21.125  0.00  0.00    +0.000 C 
ATOM     29  C   UNL     1       2.713   2.528  21.392  0.00  0.00    +0.000 C 
ENDBRANCH  27  28
ENDBRANCH  26  27
ENDBRANCH   4  26
TORSDOF 11
ENDMDL
MODEL 5
REMARK VINA RESULT:      -6.8      0.860      1.056
REMARK  Name = 
REMARK  14 active torsions:
REMARK  status: ('A' for Active; 'I' for Inactive)
REMARK    1  A    between atoms: C_1  and  C_2
REMARK    2  A    between atoms: C_2  and  C_3
REMARK    3  A    between atoms: C_3  and  C_4
REMARK    4  A    between atoms: C_4  and  C_5
REMARK    5  A    between atoms: C_5  and  C_6
REMARK    6  A    between atoms: C_6  and  C_7
REMARK    7  A    between atoms: C_7  and  C_8
REMARK    8  A    between atoms: C_8  and  N_9
REMARK    9  A    between atoms: N_12  and  C_13
REMARK   10  A    between atoms: C_13  and  C_14
REMARK   11  A    between atoms: C_14  and  C_15
REMARK   12  A    between atoms: C_15  and  C_16
REMARK   13  A    between atoms: C_17  and  C_18
REMARK   14  A    between atoms: C_18  and  C_19
REMARK                            x       y       z     vdW  Elec       q    Type
REMARK                         _______ _______ _______ _____ _____    ______ ____
ROOT
ATOM      1  N   UNL     1       4.027   4.790  18.360  0.00  0.00    +0.000 N 
ATOM      2  C   UNL     1       3.380   5.992  18.653  0.00  0.00    +0.000 A 
ATOM      3  C   UNL     1       2.717   5.804  19.833  0.00  0.00    +0.000 A 
ATOM      4  N   UNL     1       3.001   4.474  20.247  0.00  0.00    +0.000 N 
ATOM      5  C   UNL     1       3.779   3.866  19.311  0.00  0.00    +0.000 A 
ATOM      6  C   UNL     1       1.860   6.802  20.419  0.00  0.00    +0.000 C 
ATOM      7  O   UNL     1       1.227   6.724  21.472  0.00  0.00    +0.000 OA
ATOM      8  C   UNL     1       1.734   8.059  19.612  0.00  0.00    +0.000 A 
ATOM      9  C   UNL     1       0.897   9.090  20.066  0.00  0.00    +0.000 A 
ATOM     10  C   UNL     1       0.760  10.271  19.332  0.00  0.00    +0.000 A 
ATOM     11  C   UNL     1       1.446  10.436  18.134  0.00  0.00    +0.000 A 
ATOM     12  C   UNL     1       2.274   9.420  17.665  0.00  0.00    +0.000 A 
ATOM     13  C   UNL     1       2.426   8.232  18.400  0.00  0.00    +0.000 A 
ATOM     14  C   UNL     1       3.317   7.180  17.852  0.00  0.00    +0.000 C 
ATOM     15  O   UNL     1       3.891   7.396  16.788  0.00  0.00    +0.000 OA
ENDROOT
BRANCH   5  16
ATOM     16  C   UNL     1       4.210   2.417  19.259  0.00  0.00    +0.000 C 
ATOM     17  C   UNL     1       4.882   1.864  20.499  0.00  0.00    +0.000 C 
ENDBRANCH   5  16
BRANCH   1  18
ATOM     18  C   UNL     1       4.718   4.536  17.081  0.00  0.00    +0.000 C 
BRANCH  18  19
ATOM     19  C   UNL     1       6.215   4.746  17.267  0.00  0.00    +0.000 C 
BRANCH  19  20
ATOM     20  C   UNL     1       6.957   4.686  15.941  0.00  0.00    +0.000 C 
BRANCH  20  21
ATOM     21  C   UNL     1       6.328   3.615  15.059  0.00  0.00    +0.000 C 
BRANCH  21  22
ATOM     22  C   UNL     1       6.389   3.993  13.583  0.00  0.00    +0.000 C 
BRANCH  22  23
ATOM     23  C   UNL     1       5.053   3.764  12.875  0.00  0.00    +0.000 C 
BRANCH  23  25
ATOM     24  C   UNL     1       6.542   2.211  11.559  0.00  0.00    +0.000 C 
ATOM     25  C   UNL     1       5.183   2.884  11.632  0.00  0.00    +0.000 C 
ENDBRANCH  23  25
ENDBRANCH  22  23
ENDBRANCH  21  22
ENDBRANCH  20  21
ENDBRANCH  19  20
ENDBRANCH  18  19
ENDBRANCH   1  18
BRANCH   4  26
ATOM     26  C   UNL     1       2.374   3.807  21.412  0.00  0.00    +0.000 C 
BRANCH  26  27
ATOM     27  C   UNL     1       1.243   2.837  21.086  0.00  0.00    +0.000 C 
BRANCH  27  28
ATOM     28  C   UNL     1       0.412   3.230  19.866  0.00  0.00    +0.000 C 
ATOM     29  C   UNL     1       0.617   2.237  18.727  0.00  0.00    +0.000 C 
ENDBRANCH  27  28
ENDBRANCH  26  27
ENDBRANCH   4  26
TORSDOF 11
ENDMDL
MODEL 6
REMARK VINA RESULT:      -6.6      2.135      3.431
REMARK  Name = 
REMARK  14 active torsions:
REMARK  status: ('A' for Active; 'I' for Inactive)
REMARK    1  A    between atoms: C_1  and  C_2
REMARK    2  A    between atoms: C_2  and  C_3
REMARK    3  A    between atoms: C_3  and  C_4
REMARK    4  A    between atoms: C_4  and  C_5
REMARK    5  A    between atoms: C_5  and  C_6
REMARK    6  A    between atoms: C_6  and  C_7
REMARK    7  A    between atoms: C_7  and  C_8
REMARK    8  A    between atoms: C_8  and  N_9
REMARK    9  A    between atoms: N_12  and  C_13
REMARK   10  A    between atoms: C_13  and  C_14
REMARK   11  A    between atoms: C_14  and  C_15
REMARK   12  A    between atoms: C_15  and  C_16
REMARK   13  A    between atoms: C_17  and  C_18
REMARK   14  A    between atoms: C_18  and  C_19
REMARK                            x       y       z     vdW  Elec       q    Type
REMARK                         _______ _______ _______ _____ _____    ______ ____
ROOT
ATOM      1  N   UNL     1       3.106   6.938  18.143  0.00  0.00    +0.000 N 
ATOM      2  C   UNL     1       2.343   7.915  18.785  0.00  0.00    +0.000 A 
ATOM      3  C   UNL     1       1.912   7.366  19.961  0.00  0.00    +0.000 A 
ATOM      4  N   UNL     1       2.453   6.053  20.014  0.00  0.00    +0.000 N 
ATOM      5  C   UNL     1       3.153   5.805  18.875  0.00  0.00    +0.000 A 
ATOM      6  C   UNL     1       1.021   8.048  20.865  0.00  0.00    +0.000 C 
ATOM      7  O   UNL     1       0.582   7.637  21.939  0.00  0.00    +0.000 OA
ATOM      8  C   UNL     1       0.582   9.402  20.395  0.00  0.00    +0.000 A 
ATOM      9  C   UNL     1      -0.315  10.146  21.176  0.00  0.00    +0.000 A 
ATOM     10  C   UNL     1      -0.742  11.410  20.761  0.00  0.00    +0.000 A 
ATOM     11  C   UNL     1      -0.288  11.945  19.561  0.00  0.00    +0.000 A 
ATOM     12  C   UNL     1       0.597  11.216  18.770  0.00  0.00    +0.000 A 
ATOM     13  C   UNL     1       1.039   9.948  19.182  0.00  0.00    +0.000 A 
ATOM     14  C   UNL     1       1.977   9.213  18.299  0.00  0.00    +0.000 C 
ATOM     15  O   UNL     1       2.335   9.748  17.253  0.00  0.00    +0.000 OA
ENDROOT
BRANCH   5  16
ATOM     16  C   UNL     1       3.780   4.502  18.433  0.00  0.00    +0.000 C 
ATOM     17  C   UNL     1       5.005   4.045  19.197  0.00  0.00    +0.000 C 
ENDBRANCH   5  16
BRANCH   1  18
ATOM     18  C   UNL     1       3.614   7.087  16.766  0.00  0.00    +0.000 C 
BRANCH  18  19
ATOM     19  C   UNL     1       5.123   7.292  16.805  0.00  0.00    +0.000 C 
BRANCH  19  20
ATOM     20  C   UNL     1       5.862   6.115  16.186  0.00  0.00    +0.000 C 
BRANCH  20  21
ATOM     21  C   UNL     1       7.313   6.129  16.650  0.00  0.00    +0.000 C 
BRANCH  21  22
ATOM     22  C   UNL     1       7.419   6.222  18.168  0.00  0.00    +0.000 C 
BRANCH  22  23
ATOM     23  C   UNL     1       8.305   7.387  18.613  0.00  0.00    +0.000 C 
BRANCH  23  25
ATOM     24  C   UNL     1       8.736   9.862  18.400  0.00  0.00    +0.000 C 
ATOM     25  C   UNL     1       8.117   8.637  17.753  0.00  0.00    +0.000 C 
ENDBRANCH  23  25
ENDBRANCH  22  23
ENDBRANCH  21  22
ENDBRANCH  20  21
ENDBRANCH  19  20
ENDBRANCH  18  19
ENDBRANCH   1  18
BRANCH   4  26
ATOM     26  C   UNL     1       2.125   5.053  21.058  0.00  0.00    +0.000 C 
BRANCH  26  27
ATOM     27  C   UNL     1       1.025   4.060  20.698  0.00  0.00    +0.000 C 
BRANCH  27  28
ATOM     28  C   UNL     1       1.489   2.605  20.639  0.00  0.00    +0.000 C 
ATOM     29  C   UNL     1       1.370   2.056  19.222  0.00  0.00    +0.000 C 
ENDBRANCH  27  28
ENDBRANCH  26  27
ENDBRANCH   4  26
TORSDOF 11
ENDMDL
MODEL 7
REMARK VINA RESULT:      -6.6      2.205      6.643
REMARK  Name = 
REMARK  14 active torsions:
REMARK  status: ('A' for Active; 'I' for Inactive)
REMARK    1  A    between atoms: C_1  and  C_2
REMARK    2  A    between atoms: C_2  and  C_3
REMARK    3  A    between atoms: C_3  and  C_4
REMARK    4  A    between atoms: C_4  and  C_5
REMARK    5  A    between atoms: C_5  and  C_6
REMARK    6  A    between atoms: C_6  and  C_7
REMARK    7  A    between atoms: C_7  and  C_8
REMARK    8  A    between atoms: C_8  and  N_9
REMARK    9  A    between atoms: N_12  and  C_13
REMARK   10  A    between atoms: C_13  and  C_14
REMARK   11  A    between atoms: C_14  and  C_15
REMARK   12  A    between atoms: C_15  and  C_16
REMARK   13  A    between atoms: C_17  and  C_18
REMARK   14  A    between atoms: C_18  and  C_19
REMARK                            x       y       z     vdW  Elec       q    Type
REMARK                         _______ _______ _______ _____ _____    ______ ____
ROOT
ATOM      1  N   UNL     1       2.287   7.600  18.935  0.00  0.00    +0.000 N 
ATOM      2  C   UNL     1       3.110   6.754  18.191  0.00  0.00    +0.000 A 
ATOM      3  C   UNL     1       3.171   5.569  18.869  0.00  0.00    +0.000 A 
ATOM      4  N   UNL     1       2.348   5.720  20.018  0.00  0.00    +0.000 N 
ATOM      5  C   UNL     1       1.845   6.983  20.051  0.00  0.00    +0.000 A 
ATOM      6  C   UNL     1       4.000   4.467  18.451  0.00  0.00    +0.000 C 
ATOM      7  O   UNL     1       4.118   3.369  18.993  0.00  0.00    +0.000 OA
ATOM      8  C   UNL     1       4.815   4.739  17.222  0.00  0.00    +0.000 A 
ATOM      9  C   UNL     1       5.688   3.752  16.741  0.00  0.00    +0.000 A 
ATOM     10  C   UNL     1       6.461   3.980  15.600  0.00  0.00    +0.000 A 
ATOM     11  C   UNL     1       6.380   5.195  14.929  0.00  0.00    +0.000 A 
ATOM     12  C   UNL     1       5.525   6.189  15.398  0.00  0.00    +0.000 A 
ATOM     13  C   UNL     1       4.737   5.967  16.540  0.00  0.00    +0.000 A 
ATOM     14  C   UNL     1       3.847   7.061  16.999  0.00  0.00    +0.000 C 
ATOM     15  O   UNL     1       3.828   8.107  16.356  0.00  0.00    +0.000 OA
ENDROOT
BRANCH   5  16
ATOM     16  C   UNL     1       1.038   7.635  21.151  0.00  0.00    +0.000 C 
ATOM     17  C   UNL     1       1.703   8.773  21.897  0.00  0.00    +0.000 C 
ENDBRANCH   5  16
BRANCH   1  18
ATOM     18  C   UNL     1       2.102   9.030  18.619  0.00  0.00    +0.000 C 
BRANCH  18  19
ATOM     19  C   UNL     1       0.766   9.221  17.913  0.00  0.00    +0.000 C 
BRANCH  19  20
ATOM     20  C   UNL     1      -0.032  10.362  18.526  0.00  0.00    +0.000 C 
BRANCH  20  21
ATOM     21  C   UNL     1      -1.502   9.970  18.599  0.00  0.00    +0.000 C 
BRANCH  21  22
ATOM     22  C   UNL     1      -2.410  11.091  18.107  0.00  0.00    +0.000 C 
BRANCH  22  23
ATOM     23  C   UNL     1      -2.406  11.207  16.582  0.00  0.00    +0.000 C 
BRANCH  23  25
ATOM     24  C   UNL     1      -3.275  10.102  14.488  0.00  0.00    +0.000 C 
ATOM     25  C   UNL     1      -2.726   9.884  15.886  0.00  0.00    +0.000 C 
ENDBRANCH  23  25
ENDBRANCH  22  23
ENDBRANCH  21  22
ENDBRANCH  20  21
ENDBRANCH  19  20
ENDBRANCH  18  19
ENDBRANCH   1  18
BRANCH   4  26
ATOM     26  C   UNL     1       2.233   4.719  21.104  0.00  0.00    +0.000 C 
BRANCH  26  27
ATOM     27  C   UNL     1       1.068   3.743  20.981  0.00  0.00    +0.000 C 
BRANCH  27  28
ATOM     28  C   UNL     1       1.407   2.452  20.237  0.00  0.00    +0.000 C 
ATOM     29  C   UNL     1       0.810   2.463  18.834  0.00  0.00    +0.000 C 
ENDBRANCH  27  28
ENDBRANCH  26  27
ENDBRANCH   4  26
TORSDOF 11
ENDMDL
MODEL 8
REMARK VINA RESULT:      -6.4      1.838      2.819
REMARK  Name = 
REMARK  14 active torsions:
REMARK  status: ('A' for Active; 'I' for Inactive)
REMARK    1  A    between atoms: C_1  and  C_2
REMARK    2  A    between atoms: C_2  and  C_3
REMARK    3  A    between atoms: C_3  and  C_4
REMARK    4  A    between atoms: C_4  and  C_5
REMARK    5  A    between atoms: C_5  and  C_6
REMARK    6  A    between atoms: C_6  and  C_7
REMARK    7  A    between atoms: C_7  and  C_8
REMARK    8  A    between atoms: C_8  and  N_9
REMARK    9  A    between atoms: N_12  and  C_13
REMARK   10  A    between atoms: C_13  and  C_14
REMARK   11  A    between atoms: C_14  and  C_15
REMARK   12  A    between atoms: C_15  and  C_16
REMARK   13  A    between atoms: C_17  and  C_18
REMARK   14  A    between atoms: C_18  and  C_19
REMARK                            x       y       z     vdW  Elec       q    Type
REMARK                         _______ _______ _______ _____ _____    ______ ____
ROOT
ATOM      1  N   UNL     1       2.998   7.028  18.170  0.00  0.00    +0.000 N 
ATOM      2  C   UNL     1       2.263   8.041  18.786  0.00  0.00    +0.000 A 
ATOM      3  C   UNL     1       1.787   7.523  19.959  0.00  0.00    +0.000 A 
ATOM      4  N   UNL     1       2.274   6.190  20.037  0.00  0.00    +0.000 N 
ATOM      5  C   UNL     1       2.986   5.902  18.914  0.00  0.00    +0.000 A 
ATOM      6  C   UNL     1       0.907   8.250  20.838  0.00  0.00    +0.000 C 
ATOM      7  O   UNL     1       0.432   7.869  21.907  0.00  0.00    +0.000 OA
ATOM      8  C   UNL     1       0.532   9.615  20.345  0.00  0.00    +0.000 A 
ATOM      9  C   UNL     1      -0.350  10.403  21.101  0.00  0.00    +0.000 A 
ATOM     10  C   UNL     1      -0.718  11.678  20.664  0.00  0.00    +0.000 A 
ATOM     11  C   UNL     1      -0.219  12.181  19.468  0.00  0.00    +0.000 A 
ATOM     12  C   UNL     1       0.650  11.409  18.702  0.00  0.00    +0.000 A 
ATOM     13  C   UNL     1       1.034  10.129  19.136  0.00  0.00    +0.000 A 
ATOM     14  C   UNL     1       1.958   9.347  18.279  0.00  0.00    +0.000 C 
ATOM     15  O   UNL     1       2.358   9.856  17.235  0.00  0.00    +0.000 OA
ENDROOT
BRANCH   5  16
ATOM     16  C   UNL     1       3.568   4.570  18.498  0.00  0.00    +0.000 C 
ATOM     17  C   UNL     1       2.725   3.721  17.570  0.00  0.00    +0.000 C 
ENDBRANCH   5  16
BRANCH   1  18
ATOM     18  C   UNL     1       3.538   7.141  16.801  0.00  0.00    +0.000 C 
BRANCH  18  19
ATOM     19  C   UNL     1       5.055   7.263  16.867  0.00  0.00    +0.000 C 
BRANCH  19  20
ATOM     20  C   UNL     1       5.721   6.606  15.668  0.00  0.00    +0.000 C 
BRANCH  20  21
ATOM     21  C   UNL     1       5.162   5.201  15.486  0.00  0.00    +0.000 C 
BRANCH  21  22
ATOM     22  C   UNL     1       6.171   4.135  15.897  0.00  0.00    +0.000 C 
BRANCH  22  23
ATOM     23  C   UNL     1       7.391   4.736  16.597  0.00  0.00    +0.000 C 
BRANCH  23  25
ATOM     24  C   UNL     1       7.759   5.948  18.777  0.00  0.00    +0.000 C 
ATOM     25  C   UNL     1       7.299   4.660  18.121  0.00  0.00    +0.000 C 
ENDBRANCH  23  25
ENDBRANCH  22  23
ENDBRANCH  21  22
ENDBRANCH  20  21
ENDBRANCH  19  20
ENDBRANCH  18  19
ENDBRANCH   1  18
BRANCH   4  26
ATOM     26  C   UNL     1       1.887   5.216  21.084  0.00  0.00    +0.000 C 
BRANCH  26  27
ATOM     27  C   UNL     1       0.986   4.075  20.623  0.00  0.00    +0.000 C 
BRANCH  27  28
ATOM     28  C   UNL     1       1.217   2.757  21.360  0.00  0.00    +0.000 C 
ATOM     29  C   UNL     1       2.707   2.481  21.522  0.00  0.00    +0.000 C 
ENDBRANCH  27  28
ENDBRANCH  26  27
ENDBRANCH   4  26
TORSDOF 11
ENDMDL
MODEL 9
REMARK VINA RESULT:      -6.3      1.321      2.115
REMARK  Name = 
REMARK  14 active torsions:
REMARK  status: ('A' for Active; 'I' for Inactive)
REMARK    1  A    between atoms: C_1  and  C_2
REMARK    2  A    between atoms: C_2  and  C_3
REMARK    3  A    between atoms: C_3  and  C_4
REMARK    4  A    between atoms: C_4  and  C_5
REMARK    5  A    between atoms: C_5  and  C_6
REMARK    6  A    between atoms: C_6  and  C_7
REMARK    7  A    between atoms: C_7  and  C_8
REMARK    8  A    between atoms: C_8  and  N_9
REMARK    9  A    between atoms: N_12  and  C_13
REMARK   10  A    between atoms: C_13  and  C_14
REMARK   11  A    between atoms: C_14  and  C_15
REMARK   12  A    between atoms: C_15  and  C_16
REMARK   13  A    between atoms: C_17  and  C_18
REMARK   14  A    between atoms: C_18  and  C_19
REMARK                            x       y       z     vdW  Elec       q    Type
REMARK                         _______ _______ _______ _____ _____    ______ ____
ROOT
ATOM      1  N   UNL     1       3.051   7.197  18.144  0.00  0.00    +0.000 N 
ATOM      2  C   UNL     1       2.293   8.175  18.789  0.00  0.00    +0.000 A 
ATOM      3  C   UNL     1       1.789   7.598  19.921  0.00  0.00    +0.000 A 
ATOM      4  N   UNL     1       2.282   6.265  19.946  0.00  0.00    +0.000 N 
ATOM      5  C   UNL     1       3.026   6.036  18.831  0.00  0.00    +0.000 A 
ATOM      6  C   UNL     1       0.881   8.276  20.810  0.00  0.00    +0.000 C 
ATOM      7  O   UNL     1       0.379   7.841  21.846  0.00  0.00    +0.000 OA
ATOM      8  C   UNL     1       0.511   9.662  20.375  0.00  0.00    +0.000 A 
ATOM      9  C   UNL     1      -0.396  10.407  21.144  0.00  0.00    +0.000 A 
ATOM     10  C   UNL     1      -0.759  11.701  20.761  0.00  0.00    +0.000 A 
ATOM     11  C   UNL     1      -0.232  12.265  19.604  0.00  0.00    +0.000 A 
ATOM     12  C   UNL     1       0.663  11.536  18.826  0.00  0.00    +0.000 A 
ATOM     13  C   UNL     1       1.042  10.237  19.207  0.00  0.00    +0.000 A 
ATOM     14  C   UNL     1       1.995   9.503  18.338  0.00  0.00    +0.000 C 
ATOM     15  O   UNL     1       2.419  10.065  17.332  0.00  0.00    +0.000 OA
ENDROOT
BRANCH   5  16
ATOM     16  C   UNL     1       3.627   4.729  18.366  0.00  0.00    +0.000 C 
ATOM     17  C   UNL     1       4.757   4.167  19.204  0.00  0.00    +0.000 C 
ENDBRANCH   5  16
BRANCH   1  18
ATOM     18  C   UNL     1       3.628   7.380  16.797  0.00  0.00    +0.000 C 
BRANCH  18  19
ATOM     19  C   UNL     1       4.837   6.467  16.640  0.00  0.00    +0.000 C 
BRANCH  19  20
ATOM     20  C   UNL     1       6.102   7.119  17.178  0.00  0.00    +0.000 C 
BRANCH  20  21
ATOM     21  C   UNL     1       7.302   6.242  16.847  0.00  0.00    +0.000 C 
BRANCH  21  22
ATOM     22  C   UNL     1       6.875   4.868  16.343  0.00  0.00    +0.000 C 
BRANCH  22  23
ATOM     23  C   UNL     1       7.097   4.713  14.837  0.00  0.00    +0.000 C 
BRANCH  23  25
ATOM     24  C   UNL     1       6.273   3.639  12.709  0.00  0.00    +0.000 C 
ATOM     25  C   UNL     1       5.921   4.038  14.131  0.00  0.00    +0.000 C 
ENDBRANCH  23  25
ENDBRANCH  22  23
ENDBRANCH  21  22
ENDBRANCH  20  21
ENDBRANCH  19  20
ENDBRANCH  18  19
ENDBRANCH   1  18
BRANCH   4  26
ATOM     26  C   UNL     1       1.872   5.238  20.934  0.00  0.00    +0.000 C 
BRANCH  26  27
ATOM     27  C   UNL     1       0.860   4.212  20.436  0.00  0.00    +0.000 C 
BRANCH  27  28
ATOM     28  C   UNL     1       1.298   2.760  20.620  0.00  0.00    +0.000 C 
ATOM     29  C   UNL     1       2.382   2.652  21.687  0.00  0.00    +0.000 C 
ENDBRANCH  27  28
ENDBRANCH  26  27
ENDBRANCH   4  26
TORSDOF 11
ENDMDL
