MODEL 1
REMARK VINA RESULT:      -8.4      0.000      0.000
REMARK  Name = 
REMARK  8 active torsions:
REMARK  status: ('A' for Active; 'I' for Inactive)
REMARK    1  A    between atoms: C_2  and  C_11
REMARK    2  A    between atoms: N_3  and  C_4
REMARK    3  A    between atoms: C_9  and  O_10
REMARK    4  A    between atoms: C_14  and  O_15
REMARK    5  A    between atoms: O_15  and  C_16
REMARK    6  A    between atoms: C_16  and  C_17
REMARK    7  A    between atoms: C_20  and  C_21
REMARK    8  A    between atoms: C_23  and  C_24
REMARK                            x       y       z     vdW  Elec       q    Type
REMARK                         _______ _______ _______ _____ _____    ______ ____
ROOT
ATOM      1  C   UNL     1       1.438   8.689  19.138  0.00  0.00    +0.000 A 
ATOM      2  C   UNL     1       1.033   8.473  20.435  0.00  0.00    +0.000 A 
ATOM      3  N   UNL     1       1.364   7.360  21.128  0.00  0.00    +0.000 NA
ATOM      4  C   UNL     1       2.140   6.415  20.527  0.00  0.00    +0.000 A 
ATOM      5  C   UNL     1       2.624   6.541  19.211  0.00  0.00    +0.000 A 
ATOM      6  C   UNL     1       2.271   7.743  18.555  0.00  0.00    +0.000 A 
ENDROOT
BRANCH   5   7
ATOM      7  C   UNL     1       3.535   5.603  18.495  0.00  0.00    +0.000 A 
ATOM      8  C   UNL     1       4.929   5.777  18.596  0.00  0.00    +0.000 A 
ATOM      9  C   UNL     1       5.834   5.114  17.743  0.00  0.00    +0.000 A 
ATOM     10  C   UNL     1       5.339   4.230  16.777  0.00  0.00    +0.000 A 
ATOM     11  C   UNL     1       3.974   3.979  16.696  0.00  0.00    +0.000 A 
ATOM     12  C   UNL     1       3.084   4.635  17.559  0.00  0.00    +0.000 A 
ATOM     13 CL   UNL     1       1.413   4.181  17.387  0.00  0.00    +0.000 Cl
BRANCH   9  14
ATOM     14  C   UNL     1       7.315   5.401  17.805  0.00  0.00    +0.000 C 
ATOM     15  F   UNL     1       8.092   4.317  17.539  0.00  0.00    +0.000 F 
ATOM     16  F   UNL     1       7.699   6.367  16.927  0.00  0.00    +0.000 F 
ATOM     17  F   UNL     1       7.696   5.841  19.037  0.00  0.00    +0.000 F 
ENDBRANCH   9  14
ENDBRANCH   5   7
BRANCH   1  19
ATOM     18  O   UNL     1       1.836  10.714  18.028  0.00  0.00    +0.000 OA
ATOM     19  C   UNL     1       1.006   9.909  18.419  0.00  0.00    +0.000 C 
ATOM     20  N   UNL     1      -0.358  10.059  18.265  0.00  0.00    +0.000 N 
ATOM     21  H   UNL     1      -0.981   9.376  18.675  0.00  0.00    +0.000 HD
BRANCH  20  22
ATOM     22  C   UNL     1      -0.947  11.161  17.506  0.00  0.00    +0.000 C 
ATOM     23  C   UNL     1      -1.293  12.326  18.450  0.00  0.00    +0.000 C 
ATOM     24  C   UNL     1      -2.491  12.022  19.354  0.00  0.00    +0.000 C 
ATOM     25  C   UNL     1      -3.712  11.539  18.576  0.00  0.00    +0.000 C 
ATOM     26  C   UNL     1      -3.378  10.391  17.623  0.00  0.00    +0.000 C 
ATOM     27  C   UNL     1      -2.193  10.708  16.706  0.00  0.00    +0.000 C 
BRANCH  27  28
ATOM     28  O   UNL     1      -2.583  11.705  15.755  0.00  0.00    +0.000 OA
ATOM     29  H   UNL     1      -2.291  12.576  16.067  0.00  0.00    +0.000 HD
ENDBRANCH  27  28
ENDBRANCH  20  22
ENDBRANCH   1  19
BRANCH   4  30
ATOM     30  O   UNL     1       2.502   5.315  21.301  0.00  0.00    +0.000 OA
BRANCH  30  31
ATOM     31  C   UNL     1       1.634   4.187  21.071  0.00  0.00    +0.000 C 
BRANCH  31  32
ATOM     32  C   UNL     1       2.337   2.858  21.126  0.00  0.00    +0.000 C 
ATOM     33  C   UNL     1       2.318   1.881  19.981  0.00  0.00    +0.000 C 
ATOM     34  C   UNL     1       3.606   2.561  20.369  0.00  0.00    +0.000 C 
ENDBRANCH  31  32
ENDBRANCH  30  31
ENDBRANCH   4  30
TORSDOF 8
ENDMDL
MODEL 2
REMARK VINA RESULT:      -8.3      0.948      1.164
REMARK  Name = 
REMARK  8 active torsions:
REMARK  status: ('A' for Active; 'I' for Inactive)
REMARK    1  A    between atoms: C_2  and  C_11
REMARK    2  A    between atoms: N_3  and  C_4
REMARK    3  A    between atoms: C_9  and  O_10
REMARK    4  A    between atoms: C_14  and  O_15
REMARK    5  A    between atoms: O_15  and  C_16
REMARK    6  A    between atoms: C_16  and  C_17
REMARK    7  A    between atoms: C_20  and  C_21
REMARK    8  A    between atoms: C_23  and  C_24
REMARK                            x       y       z     vdW  Elec       q    Type
REMARK                         _______ _______ _______ _____ _____    ______ ____
ROOT
ATOM      1  C   UNL     1       1.683   8.625  19.376  0.00  0.00    +0.000 A 
ATOM      2  C   UNL     1       1.113   8.293  20.583  0.00  0.00    +0.000 A 
ATOM      3  N   UNL     1       1.289   7.086  21.167  0.00  0.00    +0.000 NA
ATOM      4  C   UNL     1       2.074   6.161  20.546  0.00  0.00    +0.000 A 
ATOM      5  C   UNL     1       2.720   6.402  19.318  0.00  0.00    +0.000 A 
ATOM      6  C   UNL     1       2.522   7.694  18.779  0.00  0.00    +0.000 A 
ENDROOT
BRANCH   5   7
ATOM      7  C   UNL     1       3.653   5.487  18.599  0.00  0.00    +0.000 A 
ATOM      8  C   UNL     1       5.041   5.612  18.803  0.00  0.00    +0.000 A 
ATOM      9  C   UNL     1       5.984   4.981  17.966  0.00  0.00    +0.000 A 
ATOM     10  C   UNL     1       5.532   4.180  16.911  0.00  0.00    +0.000 A 
ATOM     11  C   UNL     1       4.170   3.976  16.725  0.00  0.00    +0.000 A 
ATOM     12  C   UNL     1       3.241   4.599  17.571  0.00  0.00    +0.000 A 
ATOM     13 CL   UNL     1       1.574   4.207  17.260  0.00  0.00    +0.000 Cl
BRANCH   9  14
ATOM     14  C   UNL     1       7.464   5.218  18.144  0.00  0.00    +0.000 C 
ATOM     15  F   UNL     1       8.240   4.203  17.678  0.00  0.00    +0.000 F 
ATOM     16  F   UNL     1       7.894   6.344  17.512  0.00  0.00    +0.000 F 
ATOM     17  F   UNL     1       7.799   5.374  19.456  0.00  0.00    +0.000 F 
ENDBRANCH   9  14
ENDBRANCH   5   7
BRANCH   1  19
ATOM     18  O   UNL     1       1.853  10.212  17.660  0.00  0.00    +0.000 OA
ATOM     19  C   UNL     1       1.415   9.949  18.769  0.00  0.00    +0.000 C 
ATOM     20  N   UNL     1       0.685  10.826  19.546  0.00  0.00    +0.000 N 
ATOM     21  H   UNL     1       0.414  10.551  20.482  0.00  0.00    +0.000 HD
BRANCH  20  22
ATOM     22  C   UNL     1       0.261  12.139  19.064  0.00  0.00    +0.000 C 
ATOM     23  C   UNL     1      -0.052  13.063  20.254  0.00  0.00    +0.000 C 
ATOM     24  C   UNL     1      -1.341  12.675  20.984  0.00  0.00    +0.000 C 
ATOM     25  C   UNL     1      -2.535  12.536  20.043  0.00  0.00    +0.000 C 
ATOM     26  C   UNL     1      -2.231  11.631  18.848  0.00  0.00    +0.000 C 
ATOM     27  C   UNL     1      -0.953  12.036  18.107  0.00  0.00    +0.000 C 
BRANCH  27  28
ATOM     28  O   UNL     1      -1.173  13.275  17.424  0.00  0.00    +0.000 OA
ATOM     29  H   UNL     1      -0.393  13.842  17.529  0.00  0.00    +0.000 HD
ENDBRANCH  27  28
ENDBRANCH  20  22
ENDBRANCH   1  19
BRANCH   4  30
ATOM     30  O   UNL     1       2.273   4.956  21.214  0.00  0.00    +0.000 OA
BRANCH  30  31
ATOM     31  C   UNL     1       1.307   3.960  20.826  0.00  0.00    +0.000 C 
BRANCH  31  32
ATOM     32  C   UNL     1       1.863   2.563  20.768  0.00  0.00    +0.000 C 
ATOM     33  C   UNL     1       1.960   1.780  19.486  0.00  0.00    +0.000 C 
ATOM     34  C   UNL     1       3.214   2.234  20.187  0.00  0.00    +0.000 C 
ENDBRANCH  31  32
ENDBRANCH  30  31
ENDBRANCH   4  30
TORSDOF 8
ENDMDL
MODEL 3
REMARK VINA RESULT:      -8.2      1.651      2.205
REMARK  Name = 
REMARK  8 active torsions:
REMARK  status: ('A' for Active; 'I' for Inactive)
REMARK    1  A    between atoms: C_2  and  C_11
REMARK    2  A    between atoms: N_3  and  C_4
REMARK    3  A    between atoms: C_9  and  O_10
REMARK    4  A    between atoms: C_14  and  O_15
REMARK    5  A    between atoms: O_15  and  C_16
REMARK    6  A    between atoms: C_16  and  C_17
REMARK    7  A    between atoms: C_20  and  C_21
REMARK    8  A    between atoms: C_23  and  C_24
REMARK                            x       y       z     vdW  Elec       q    Type
REMARK                         _______ _______ _______ _____ _____    ______ ____
ROOT
ATOM      1  C   UNL     1       1.727   8.811  19.187  0.00  0.00    +0.000 A 
ATOM      2  C   UNL     1       1.127   8.542  20.395  0.00  0.00    +0.000 A 
ATOM      3  N   UNL     1       1.253   7.351  21.025  0.00  0.00    +0.000 NA
ATOM      4  C   UNL     1       2.015   6.379  20.450  0.00  0.00    +0.000 A 
ATOM      5  C   UNL     1       2.688   6.553  19.226  0.00  0.00    +0.000 A 
ATOM      6  C   UNL     1       2.543   7.831  18.638  0.00  0.00    +0.000 A 
ENDROOT
BRANCH   5   7
ATOM      7  C   UNL     1       3.600   5.581  18.555  0.00  0.00    +0.000 A 
ATOM      8  C   UNL     1       4.991   5.685  18.755  0.00  0.00    +0.000 A 
ATOM      9  C   UNL     1       5.919   4.991  17.952  0.00  0.00    +0.000 A 
ATOM     10  C   UNL     1       5.450   4.148  16.939  0.00  0.00    +0.000 A 
ATOM     11  C   UNL     1       4.083   3.966  16.761  0.00  0.00    +0.000 A 
ATOM     12  C   UNL     1       3.168   4.652  17.573  0.00  0.00    +0.000 A 
ATOM     13 CL   UNL     1       1.493   4.283  17.280  0.00  0.00    +0.000 Cl
BRANCH   9  14
ATOM     14  C   UNL     1       7.404   5.203  18.120  0.00  0.00    +0.000 C 
ATOM     15  F   UNL     1       8.159   4.168  17.663  0.00  0.00    +0.000 F 
ATOM     16  F   UNL     1       7.852   6.313  17.471  0.00  0.00    +0.000 F 
ATOM     17  F   UNL     1       7.749   5.370  19.428  0.00  0.00    +0.000 F 
ENDBRANCH   9  14
ENDBRANCH   5   7
BRANCH   1  19
ATOM     18  O   UNL     1       1.855  10.282  17.368  0.00  0.00    +0.000 OA
ATOM     19  C   UNL     1       1.515  10.120  18.528  0.00  0.00    +0.000 C 
ATOM     20  N   UNL     1       0.949  11.101  19.319  0.00  0.00    +0.000 N 
ATOM     21  H   UNL     1       0.755  10.902  20.292  0.00  0.00    +0.000 HD
BRANCH  20  22
ATOM     22  C   UNL     1       0.594  12.421  18.801  0.00  0.00    +0.000 C 
ATOM     23  C   UNL     1       1.836  13.329  18.774  0.00  0.00    +0.000 C 
ATOM     24  C   UNL     1       2.288  13.759  20.172  0.00  0.00    +0.000 C 
ATOM     25  C   UNL     1       1.157  14.368  20.997  0.00  0.00    +0.000 C 
ATOM     26  C   UNL     1      -0.089  13.481  21.020  0.00  0.00    +0.000 C 
ATOM     27  C   UNL     1      -0.550  13.071  19.618  0.00  0.00    +0.000 C 
BRANCH  27  28
ATOM     28  O   UNL     1      -1.079  14.215  18.939  0.00  0.00    +0.000 OA
ATOM     29  H   UNL     1      -0.431  14.530  18.290  0.00  0.00    +0.000 HD
ENDBRANCH  27  28
ENDBRANCH  20  22
ENDBRANCH   1  19
BRANCH   4  30
ATOM     30  O   UNL     1       2.163   5.193  21.164  0.00  0.00    +0.000 OA
BRANCH  30  31
ATOM     31  C   UNL     1       1.235   4.181  20.723  0.00  0.00    +0.000 C 
BRANCH  31  32
ATOM     32  C   UNL     1       1.775   2.779  20.816  0.00  0.00    +0.000 C 
ATOM     33  C   UNL     1       1.923   1.885  19.614  0.00  0.00    +0.000 C 
ATOM     34  C   UNL     1       3.147   2.388  20.334  0.00  0.00    +0.000 C 
ENDBRANCH  31  32
ENDBRANCH  30  31
ENDBRANCH   4  30
TORSDOF 8
ENDMDL
MODEL 4
REMARK VINA RESULT:      -8.1      2.545      3.243
REMARK  Name = 
REMARK  8 active torsions:
REMARK  status: ('A' for Active; 'I' for Inactive)
REMARK    1  A    between atoms: C_2  and  C_11
REMARK    2  A    between atoms: N_3  and  C_4
REMARK    3  A    between atoms: C_9  and  O_10
REMARK    4  A    between atoms: C_14  and  O_15
REMARK    5  A    between atoms: O_15  and  C_16
REMARK    6  A    between atoms: C_16  and  C_17
REMARK    7  A    between atoms: C_20  and  C_21
REMARK    8  A    between atoms: C_23  and  C_24
REMARK                            x       y       z     vdW  Elec       q    Type
REMARK                         _______ _______ _______ _____ _____    ______ ____
ROOT
ATOM      1  C   UNL     1       2.463   7.809  18.505  0.00  0.00    +0.000 A 
ATOM      2  C   UNL     1       1.899   7.052  19.505  0.00  0.00    +0.000 A 
ATOM      3  N   UNL     1       2.349   5.819  19.831  0.00  0.00    +0.000 NA
ATOM      4  C   UNL     1       3.413   5.305  19.152  0.00  0.00    +0.000 A 
ATOM      5  C   UNL     1       4.077   5.999  18.124  0.00  0.00    +0.000 A 
ATOM      6  C   UNL     1       3.579   7.296  17.857  0.00  0.00    +0.000 A 
ENDROOT
BRANCH   5   7
ATOM      7  C   UNL     1       5.289   5.555  17.376  0.00  0.00    +0.000 A 
ATOM      8  C   UNL     1       5.181   5.238  16.008  0.00  0.00    +0.000 A 
ATOM      9  C   UNL     1       6.201   4.559  15.311  0.00  0.00    +0.000 A 
ATOM     10  C   UNL     1       7.374   4.208  15.989  0.00  0.00    +0.000 A 
ATOM     11  C   UNL     1       7.544   4.569  17.321  0.00  0.00    +0.000 A 
ATOM     12  C   UNL     1       6.528   5.255  18.001  0.00  0.00    +0.000 A 
ATOM     13 CL   UNL     1       6.900   5.696  19.642  0.00  0.00    +0.000 Cl
BRANCH   9  14
ATOM     14  C   UNL     1       6.014   4.140  13.873  0.00  0.00    +0.000 C 
ATOM     15  F   UNL     1       6.262   2.820  13.652  0.00  0.00    +0.000 F 
ATOM     16  F   UNL     1       4.751   4.368  13.420  0.00  0.00    +0.000 F 
ATOM     17  F   UNL     1       6.842   4.822  13.033  0.00  0.00    +0.000 F 
ENDBRANCH   9  14
ENDBRANCH   5   7
BRANCH   1  19
ATOM     18  O   UNL     1       2.297   9.739  17.186  0.00  0.00    +0.000 OA
ATOM     19  C   UNL     1       1.896   9.134  18.168  0.00  0.00    +0.000 C 
ATOM     20  N   UNL     1       0.939   9.613  19.040  0.00  0.00    +0.000 N 
ATOM     21  H   UNL     1       0.709   9.076  19.867  0.00  0.00    +0.000 HD
BRANCH  20  22
ATOM     22  C   UNL     1       0.219  10.864  18.808  0.00  0.00    +0.000 C 
ATOM     23  C   UNL     1       1.118  12.063  19.154  0.00  0.00    +0.000 C 
ATOM     24  C   UNL     1       1.345  12.221  20.660  0.00  0.00    +0.000 C 
ATOM     25  C   UNL     1       0.042  12.239  21.456  0.00  0.00    +0.000 C 
ATOM     26  C   UNL     1      -0.867  11.060  21.110  0.00  0.00    +0.000 C 
ATOM     27  C   UNL     1      -1.109  10.919  19.604  0.00  0.00    +0.000 C 
BRANCH  27  28
ATOM     28  O   UNL     1      -1.933  12.000  19.153  0.00  0.00    +0.000 OA
ATOM     29  H   UNL     1      -2.274  11.795  18.268  0.00  0.00    +0.000 HD
ENDBRANCH  27  28
ENDBRANCH  20  22
ENDBRANCH   1  19
BRANCH   4  30
ATOM     30  O   UNL     1       3.876   4.058  19.563  0.00  0.00    +0.000 OA
BRANCH  30  31
ATOM     31  C   UNL     1       3.470   3.009  18.661  0.00  0.00    +0.000 C 
BRANCH  31  32
ATOM     32  C   UNL     1       2.356   2.147  19.191  0.00  0.00    +0.000 C 
ATOM     33  C   UNL     1       1.551   2.518  20.408  0.00  0.00    +0.000 C 
ATOM     34  C   UNL     1       0.898   2.502  19.051  0.00  0.00    +0.000 C 
ENDBRANCH  31  32
ENDBRANCH  30  31
ENDBRANCH   4  30
TORSDOF 8
ENDMDL
MODEL 5
REMARK VINA RESULT:      -8.1      1.453      1.999
REMARK  Name = 
REMARK  8 active torsions:
REMARK  status: ('A' for Active; 'I' for Inactive)
REMARK    1  A    between atoms: C_2  and  C_11
REMARK    2  A    between atoms: N_3  and  C_4
REMARK    3  A    between atoms: C_9  and  O_10
REMARK    4  A    between atoms: C_14  and  O_15
REMARK    5  A    between atoms: O_15  and  C_16
REMARK    6  A    between atoms: C_16  and  C_17
REMARK    7  A    between atoms: C_20  and  C_21
REMARK    8  A    between atoms: C_23  and  C_24
REMARK                            x       y       z     vdW  Elec       q    Type
REMARK                         _______ _______ _______ _____ _____    ______ ____
ROOT
ATOM      1  C   UNL     1       1.784   8.874  19.168  0.00  0.00    +0.000 A 
ATOM      2  C   UNL     1       1.138   8.602  20.351  0.00  0.00    +0.000 A 
ATOM      3  N   UNL     1       1.213   7.399  20.965  0.00  0.00    +0.000 NA
ATOM      4  C   UNL     1       1.967   6.416  20.399  0.00  0.00    +0.000 A 
ATOM      5  C   UNL     1       2.683   6.590  19.200  0.00  0.00    +0.000 A 
ATOM      6  C   UNL     1       2.590   7.880  18.628  0.00  0.00    +0.000 A 
ENDROOT
BRANCH   5   7
ATOM      7  C   UNL     1       3.589   5.605  18.543  0.00  0.00    +0.000 A 
ATOM      8  C   UNL     1       4.983   5.731  18.705  0.00  0.00    +0.000 A 
ATOM      9  C   UNL     1       5.900   5.018  17.906  0.00  0.00    +0.000 A 
ATOM     10  C   UNL     1       5.417   4.134  16.934  0.00  0.00    +0.000 A 
ATOM     11  C   UNL     1       4.048   3.932  16.795  0.00  0.00    +0.000 A 
ATOM     12  C   UNL     1       3.145   4.637  17.604  0.00  0.00    +0.000 A 
ATOM     13 CL   UNL     1       1.468   4.240  17.365  0.00  0.00    +0.000 Cl
BRANCH   9  14
ATOM     14  C   UNL     1       7.386   5.251  18.031  0.00  0.00    +0.000 C 
ATOM     15  F   UNL     1       7.814   6.388  17.418  0.00  0.00    +0.000 F 
ATOM     16  F   UNL     1       7.795   5.343  19.326  0.00  0.00    +0.000 F 
ATOM     17  F   UNL     1       8.109   4.235  17.482  0.00  0.00    +0.000 F 
ENDBRANCH   9  14
ENDBRANCH   5   7
BRANCH   1  19
ATOM     18  O   UNL     1       1.856  10.329  17.332  0.00  0.00    +0.000 OA
ATOM     19  C   UNL     1       1.627  10.198  18.524  0.00  0.00    +0.000 C 
ATOM     20  N   UNL     1       1.243  11.227  19.361  0.00  0.00    +0.000 N 
ATOM     21  H   UNL     1       1.135  11.046  20.351  0.00  0.00    +0.000 HD
BRANCH  20  22
ATOM     22  C   UNL     1       0.961  12.575  18.872  0.00  0.00    +0.000 C 
ATOM     23  C   UNL     1       1.571  13.620  19.823  0.00  0.00    +0.000 C 
ATOM     24  C   UNL     1       0.827  13.714  21.158  0.00  0.00    +0.000 C 
ATOM     25  C   UNL     1      -0.676  13.913  20.984  0.00  0.00    +0.000 C 
ATOM     26  C   UNL     1      -1.292  12.890  20.029  0.00  0.00    +0.000 C 
ATOM     27  C   UNL     1      -0.558  12.815  18.687  0.00  0.00    +0.000 C 
BRANCH  27  28
ATOM     28  O   UNL     1      -0.801  14.014  17.945  0.00  0.00    +0.000 OA
ATOM     29  H   UNL     1      -0.294  13.988  17.119  0.00  0.00    +0.000 HD
ENDBRANCH  27  28
ENDBRANCH  20  22
ENDBRANCH   1  19
BRANCH   4  30
ATOM     30  O   UNL     1       2.060   5.215  21.098  0.00  0.00    +0.000 OA
BRANCH  30  31
ATOM     31  C   UNL     1       1.062   4.266  20.672  0.00  0.00    +0.000 C 
BRANCH  31  32
ATOM     32  C   UNL     1       1.558   2.847  20.612  0.00  0.00    +0.000 C 
ATOM     33  C   UNL     1       3.021   2.500  20.541  0.00  0.00    +0.000 C 
ATOM     34  C   UNL     1       2.225   2.155  21.773  0.00  0.00    +0.000 C 
ENDBRANCH  31  32
ENDBRANCH  30  31
ENDBRANCH   4  30
TORSDOF 8
ENDMDL
MODEL 6
REMARK VINA RESULT:      -8.0      2.545      3.248
REMARK  Name = 
REMARK  8 active torsions:
REMARK  status: ('A' for Active; 'I' for Inactive)
REMARK    1  A    between atoms: C_2  and  C_11
REMARK    2  A    between atoms: N_3  and  C_4
REMARK    3  A    between atoms: C_9  and  O_10
REMARK    4  A    between atoms: C_14  and  O_15
REMARK    5  A    between atoms: O_15  and  C_16
REMARK    6  A    between atoms: C_16  and  C_17
REMARK    7  A    between atoms: C_20  and  C_21
REMARK    8  A    between atoms: C_23  and  C_24
REMARK                            x       y       z     vdW  Elec       q    Type
REMARK                         _______ _______ _______ _____ _____    ______ ____
ROOT
ATOM      1  C   UNL     1       2.478   7.804  18.586  0.00  0.00    +0.000 A 
ATOM      2  C   UNL     1       1.966   7.082  19.638  0.00  0.00    +0.000 A 
ATOM      3  N   UNL     1       2.459   5.877  20.006  0.00  0.00    +0.000 NA
ATOM      4  C   UNL     1       3.514   5.358  19.318  0.00  0.00    +0.000 A 
ATOM      5  C   UNL     1       4.127   6.020  18.237  0.00  0.00    +0.000 A 
ATOM      6  C   UNL     1       3.586   7.289  17.926  0.00  0.00    +0.000 A 
ENDROOT
BRANCH   5   7
ATOM      7  C   UNL     1       5.326   5.571  17.471  0.00  0.00    +0.000 A 
ATOM      8  C   UNL     1       5.197   5.257  16.104  0.00  0.00    +0.000 A 
ATOM      9  C   UNL     1       6.204   4.574  15.392  0.00  0.00    +0.000 A 
ATOM     10  C   UNL     1       7.385   4.216  16.052  0.00  0.00    +0.000 A 
ATOM     11  C   UNL     1       7.575   4.574  17.382  0.00  0.00    +0.000 A 
ATOM     12  C   UNL     1       6.572   5.264  18.078  0.00  0.00    +0.000 A 
ATOM     13 CL   UNL     1       6.969   5.700  19.715  0.00  0.00    +0.000 Cl
BRANCH   9  14
ATOM     14  C   UNL     1       5.995   4.158  13.956  0.00  0.00    +0.000 C 
ATOM     15  F   UNL     1       6.757   4.854  13.070  0.00  0.00    +0.000 F 
ATOM     16  F   UNL     1       6.275   2.843  13.745  0.00  0.00    +0.000 F 
ATOM     17  F   UNL     1       4.704   4.334  13.558  0.00  0.00    +0.000 F 
ENDBRANCH   9  14
ENDBRANCH   5   7
BRANCH   1  19
ATOM     18  O   UNL     1       2.158   9.623  17.144  0.00  0.00    +0.000 OA
ATOM     19  C   UNL     1       1.866   9.097  18.206  0.00  0.00    +0.000 C 
ATOM     20  N   UNL     1       0.997   9.641  19.132  0.00  0.00    +0.000 N 
ATOM     21  H   UNL     1       0.859   9.171  20.017  0.00  0.00    +0.000 HD
BRANCH  20  22
ATOM     22  C   UNL     1       0.244  10.868  18.878  0.00  0.00    +0.000 C 
ATOM     23  C   UNL     1       1.116  12.097  19.187  0.00  0.00    +0.000 C 
ATOM     24  C   UNL     1       1.353  12.295  20.687  0.00  0.00    +0.000 C 
ATOM     25  C   UNL     1       0.057  12.300  21.494  0.00  0.00    +0.000 C 
ATOM     26  C   UNL     1      -0.826  11.091  21.185  0.00  0.00    +0.000 C 
ATOM     27  C   UNL     1      -1.078  10.909  19.685  0.00  0.00    +0.000 C 
BRANCH  27  28
ATOM     28  O   UNL     1      -1.932  11.958  19.217  0.00  0.00    +0.000 OA
ATOM     29  H   UNL     1      -1.546  12.354  18.419  0.00  0.00    +0.000 HD
ENDBRANCH  27  28
ENDBRANCH  20  22
ENDBRANCH   1  19
BRANCH   4  30
ATOM     30  O   UNL     1       4.023   4.144  19.771  0.00  0.00    +0.000 OA
BRANCH  30  31
ATOM     31  C   UNL     1       2.975   3.229  20.147  0.00  0.00    +0.000 C 
BRANCH  31  32
ATOM     32  C   UNL     1       2.606   2.249  19.066  0.00  0.00    +0.000 C 
ATOM     33  C   UNL     1       2.881   2.506  17.609  0.00  0.00    +0.000 C 
ATOM     34  C   UNL     1       3.618   1.409  18.331  0.00  0.00    +0.000 C 
ENDBRANCH  31  32
ENDBRANCH  30  31
ENDBRANCH   4  30
TORSDOF 8
ENDMDL
MODEL 7
REMARK VINA RESULT:      -7.7      4.269      8.564
REMARK  Name = 
REMARK  8 active torsions:
REMARK  status: ('A' for Active; 'I' for Inactive)
REMARK    1  A    between atoms: C_2  and  C_11
REMARK    2  A    between atoms: N_3  and  C_4
REMARK    3  A    between atoms: C_9  and  O_10
REMARK    4  A    between atoms: C_14  and  O_15
REMARK    5  A    between atoms: O_15  and  C_16
REMARK    6  A    between atoms: C_16  and  C_17
REMARK    7  A    between atoms: C_20  and  C_21
REMARK    8  A    between atoms: C_23  and  C_24
REMARK                            x       y       z     vdW  Elec       q    Type
REMARK                         _______ _______ _______ _____ _____    ______ ____
ROOT
ATOM      1  C   UNL     1       1.912   7.974  19.641  0.00  0.00    +0.000 A 
ATOM      2  C   UNL     1       1.735   7.734  20.984  0.00  0.00    +0.000 A 
ATOM      3  N   UNL     1       1.271   8.675  21.839  0.00  0.00    +0.000 NA
ATOM      4  C   UNL     1       0.953   9.908  21.353  0.00  0.00    +0.000 A 
ATOM      5  C   UNL     1       1.078  10.254  19.994  0.00  0.00    +0.000 A 
ATOM      6  C   UNL     1       1.535   9.216  19.150  0.00  0.00    +0.000 A 
ENDROOT
BRANCH   5   7
ATOM      7  C   UNL     1       0.690  11.546  19.357  0.00  0.00    +0.000 A 
ATOM      8  C   UNL     1       1.622  12.600  19.304  0.00  0.00    +0.000 A 
ATOM      9  C   UNL     1       1.248  13.919  18.972  0.00  0.00    +0.000 A 
ATOM     10  C   UNL     1      -0.089  14.191  18.658  0.00  0.00    +0.000 A 
ATOM     11  C   UNL     1      -1.022  13.160  18.631  0.00  0.00    +0.000 A 
ATOM     12  C   UNL     1      -0.636  11.850  18.951  0.00  0.00    +0.000 A 
ATOM     13 CL   UNL     1      -1.891  10.653  18.817  0.00  0.00    +0.000 Cl
BRANCH   9  14
ATOM     14  C   UNL     1       2.248  15.048  19.025  0.00  0.00    +0.000 C 
ATOM     15  F   UNL     1       2.666  15.465  17.800  0.00  0.00    +0.000 F 
ATOM     16  F   UNL     1       1.759  16.152  19.654  0.00  0.00    +0.000 F 
ATOM     17  F   UNL     1       3.375  14.697  19.706  0.00  0.00    +0.000 F 
ENDBRANCH   9  14
ENDBRANCH   5   7
BRANCH   1  19
ATOM     18  O   UNL     1       2.868   7.194  17.648  0.00  0.00    +0.000 OA
ATOM     19  C   UNL     1       2.464   6.915  18.766  0.00  0.00    +0.000 C 
ATOM     20  N   UNL     1       2.455   5.639  19.294  0.00  0.00    +0.000 N 
ATOM     21  H   UNL     1       2.044   5.483  20.206  0.00  0.00    +0.000 HD
BRANCH  20  22
ATOM     22  C   UNL     1       3.041   4.495  18.597  0.00  0.00    +0.000 C 
ATOM     23  C   UNL     1       1.956   3.752  17.797  0.00  0.00    +0.000 C 
ATOM     24  C   UNL     1       0.979   2.984  18.692  0.00  0.00    +0.000 C 
ATOM     25  C   UNL     1       1.685   2.062  19.683  0.00  0.00    +0.000 C 
ATOM     26  C   UNL     1       2.776   2.785  20.474  0.00  0.00    +0.000 C 
ATOM     27  C   UNL     1       3.763   3.534  19.574  0.00  0.00    +0.000 C 
BRANCH  27  28
ATOM     28  O   UNL     1       4.568   2.588  18.862  0.00  0.00    +0.000 OA
ATOM     29  H   UNL     1       4.099   2.308  18.060  0.00  0.00    +0.000 HD
ENDBRANCH  27  28
ENDBRANCH  20  22
ENDBRANCH   1  19
BRANCH   4  30
ATOM     30  O   UNL     1       0.424  10.822  22.260  0.00  0.00    +0.000 OA
BRANCH  30  31
ATOM     31  C   UNL     1      -0.957  10.542  22.563  0.00  0.00    +0.000 C 
BRANCH  31  32
ATOM     32  C   UNL     1      -1.757  11.760  22.940  0.00  0.00    +0.000 C 
ATOM     33  C   UNL     1      -1.368  13.150  22.514  0.00  0.00    +0.000 C 
ATOM     34  C   UNL     1      -2.619  12.517  21.963  0.00  0.00    +0.000 C 
ENDBRANCH  31  32
ENDBRANCH  30  31
ENDBRANCH   4  30
TORSDOF 8
ENDMDL
MODEL 8
REMARK VINA RESULT:      -7.7      4.673      8.795
REMARK  Name = 
REMARK  8 active torsions:
REMARK  status: ('A' for Active; 'I' for Inactive)
REMARK    1  A    between atoms: C_2  and  C_11
REMARK    2  A    between atoms: N_3  and  C_4
REMARK    3  A    between atoms: C_9  and  O_10
REMARK    4  A    between atoms: C_14  and  O_15
REMARK    5  A    between atoms: O_15  and  C_16
REMARK    6  A    between atoms: C_16  and  C_17
REMARK    7  A    between atoms: C_20  and  C_21
REMARK    8  A    between atoms: C_23  and  C_24
REMARK                            x       y       z     vdW  Elec       q    Type
REMARK                         _______ _______ _______ _____ _____    ______ ____
ROOT
ATOM      1  C   UNL     1       1.975   7.751  19.937  0.00  0.00    +0.000 A 
ATOM      2  C   UNL     1       2.100   7.659  21.303  0.00  0.00    +0.000 A 
ATOM      3  N   UNL     1       1.619   8.601  22.146  0.00  0.00    +0.000 NA
ATOM      4  C   UNL     1       0.971   9.681  21.627  0.00  0.00    +0.000 A 
ATOM      5  C   UNL     1       0.771   9.866  20.246  0.00  0.00    +0.000 A 
ATOM      6  C   UNL     1       1.268   8.829  19.423  0.00  0.00    +0.000 A 
ENDROOT
BRANCH   5   7
ATOM      7  C   UNL     1       0.015  10.971  19.587  0.00  0.00    +0.000 A 
ATOM      8  C   UNL     1      -1.101  10.664  18.783  0.00  0.00    +0.000 A 
ATOM      9  C   UNL     1      -1.688  11.611  17.920  0.00  0.00    +0.000 A 
ATOM     10  C   UNL     1      -1.169  12.909  17.876  0.00  0.00    +0.000 A 
ATOM     11  C   UNL     1      -0.114  13.267  18.708  0.00  0.00    +0.000 A 
ATOM     12  C   UNL     1       0.455  12.320  19.572  0.00  0.00    +0.000 A 
ATOM     13 CL   UNL     1       1.725  12.921  20.599  0.00  0.00    +0.000 Cl
BRANCH   9  14
ATOM     14  C   UNL     1      -2.815  11.224  16.994  0.00  0.00    +0.000 C 
ATOM     15  F   UNL     1      -2.512  11.367  15.675  0.00  0.00    +0.000 F 
ATOM     16  F   UNL     1      -3.206   9.930  17.154  0.00  0.00    +0.000 F 
ATOM     17  F   UNL     1      -3.929  11.980  17.205  0.00  0.00    +0.000 F 
ENDBRANCH   9  14
ENDBRANCH   5   7
BRANCH   1  19
ATOM     18  O   UNL     1       2.952   6.994  17.945  0.00  0.00    +0.000 OA
ATOM     19  C   UNL     1       2.563   6.707  19.066  0.00  0.00    +0.000 C 
ATOM     20  N   UNL     1       2.602   5.435  19.603  0.00  0.00    +0.000 N 
ATOM     21  H   UNL     1       2.199   5.270  20.517  0.00  0.00    +0.000 HD
BRANCH  20  22
ATOM     22  C   UNL     1       3.226   4.308  18.911  0.00  0.00    +0.000 C 
ATOM     23  C   UNL     1       2.256   3.725  17.869  0.00  0.00    +0.000 C 
ATOM     24  C   UNL     1       1.086   2.968  18.505  0.00  0.00    +0.000 C 
ATOM     25  C   UNL     1       1.542   1.913  19.510  0.00  0.00    +0.000 C 
ATOM     26  C   UNL     1       2.518   2.477  20.543  0.00  0.00    +0.000 C 
ATOM     27  C   UNL     1       3.698   3.215  19.902  0.00  0.00    +0.000 C 
BRANCH  27  28
ATOM     28  O   UNL     1       4.553   2.268  19.252  0.00  0.00    +0.000 OA
ATOM     29  H   UNL     1       5.360   2.717  18.955  0.00  0.00    +0.000 HD
ENDBRANCH  27  28
ENDBRANCH  20  22
ENDBRANCH   1  19
BRANCH   4  30
ATOM     30  O   UNL     1       0.442  10.593  22.537  0.00  0.00    +0.000 OA
BRANCH  30  31
ATOM     31  C   UNL     1      -0.923  10.279  22.879  0.00  0.00    +0.000 C 
BRANCH  31  32
ATOM     32  C   UNL     1      -1.785  11.491  23.114  0.00  0.00    +0.000 C 
ATOM     33  C   UNL     1      -1.299  12.894  22.866  0.00  0.00    +0.000 C 
ATOM     34  C   UNL     1      -2.384  12.309  21.999  0.00  0.00    +0.000 C 
ENDBRANCH  31  32
ENDBRANCH  30  31
ENDBRANCH   4  30
TORSDOF 8
ENDMDL
MODEL 9
REMARK VINA RESULT:      -7.6      4.050      8.528
REMARK  Name = 
REMARK  8 active torsions:
REMARK  status: ('A' for Active; 'I' for Inactive)
REMARK    1  A    between atoms: C_2  and  C_11
REMARK    2  A    between atoms: N_3  and  C_4
REMARK    3  A    between atoms: C_9  and  O_10
REMARK    4  A    between atoms: C_14  and  O_15
REMARK    5  A    between atoms: O_15  and  C_16
REMARK    6  A    between atoms: C_16  and  C_17
REMARK    7  A    between atoms: C_20  and  C_21
REMARK    8  A    between atoms: C_23  and  C_24
REMARK                            x       y       z     vdW  Elec       q    Type
REMARK                         _______ _______ _______ _____ _____    ______ ____
ROOT
ATOM      1  C   UNL     1       2.063   7.576  19.561  0.00  0.00    +0.000 A 
ATOM      2  C   UNL     1       1.472   7.202  20.745  0.00  0.00    +0.000 A 
ATOM      3  N   UNL     1       0.594   7.992  21.405  0.00  0.00    +0.000 NA
ATOM      4  C   UNL     1       0.268   9.203  20.872  0.00  0.00    +0.000 A 
ATOM      5  C   UNL     1       0.799   9.677  19.657  0.00  0.00    +0.000 A 
ATOM      6  C   UNL     1       1.684   8.789  19.003  0.00  0.00    +0.000 A 
ENDROOT
BRANCH   5   7
ATOM      7  C   UNL     1       0.451  10.948  18.959  0.00  0.00    +0.000 A 
ATOM      8  C   UNL     1       1.354  12.029  18.998  0.00  0.00    +0.000 A 
ATOM      9  C   UNL     1       0.984  13.332  18.606  0.00  0.00    +0.000 A 
ATOM     10  C   UNL     1      -0.314  13.561  18.135  0.00  0.00    +0.000 A 
ATOM     11  C   UNL     1      -1.208  12.503  18.015  0.00  0.00    +0.000 A 
ATOM     12  C   UNL     1      -0.826  11.209  18.397  0.00  0.00    +0.000 A 
ATOM     13 CL   UNL     1      -2.023   9.974  18.137  0.00  0.00    +0.000 Cl
BRANCH   9  14
ATOM     14  C   UNL     1       1.940  14.491  18.757  0.00  0.00    +0.000 C 
ATOM     15  F   UNL     1       2.478  14.595  20.002  0.00  0.00    +0.000 F 
ATOM     16  F   UNL     1       2.990  14.420  17.895  0.00  0.00    +0.000 F 
ATOM     17  F   UNL     1       1.333  15.685  18.511  0.00  0.00    +0.000 F 
ENDBRANCH   9  14
ENDBRANCH   5   7
BRANCH   1  19
ATOM     18  O   UNL     1       3.719   7.091  17.975  0.00  0.00    +0.000 OA
ATOM     19  C   UNL     1       3.050   6.683  18.911  0.00  0.00    +0.000 C 
ATOM     20  N   UNL     1       3.120   5.401  19.419  0.00  0.00    +0.000 N 
ATOM     21  H   UNL     1       2.484   5.124  20.155  0.00  0.00    +0.000 HD
BRANCH  20  22
ATOM     22  C   UNL     1       4.098   4.421  18.949  0.00  0.00    +0.000 C 
ATOM     23  C   UNL     1       3.877   4.129  17.454  0.00  0.00    +0.000 C 
ATOM     24  C   UNL     1       2.609   3.313  17.189  0.00  0.00    +0.000 C 
ATOM     25  C   UNL     1       2.537   2.043  18.033  0.00  0.00    +0.000 C 
ATOM     26  C   UNL     1       2.769   2.317  19.519  0.00  0.00    +0.000 C 
ATOM     27  C   UNL     1       4.050   3.116  19.781  0.00  0.00    +0.000 C 
BRANCH  27  28
ATOM     28  O   UNL     1       5.187   2.291  19.507  0.00  0.00    +0.000 OA
ATOM     29  H   UNL     1       5.928   2.850  19.224  0.00  0.00    +0.000 HD
ENDBRANCH  27  28
ENDBRANCH  20  22
ENDBRANCH   1  19
BRANCH   4  30
ATOM     30  O   UNL     1      -0.684   9.954  21.556  0.00  0.00    +0.000 OA
BRANCH  30  31
ATOM     31  C   UNL     1      -0.076  10.944  22.409  0.00  0.00    +0.000 C 
BRANCH  31  32
ATOM     32  C   UNL     1      -0.692  12.312  22.289  0.00  0.00    +0.000 C 
ATOM     33  C   UNL     1      -2.021  12.548  21.623  0.00  0.00    +0.000 C 
ATOM     34  C   UNL     1      -1.876  12.760  23.107  0.00  0.00    +0.000 C 
ENDBRANCH  31  32
ENDBRANCH  30  31
ENDBRANCH   4  30
TORSDOF 8
ENDMDL
