MODEL 1
REMARK VINA RESULT:      -7.5      0.000      0.000
REMARK  Name = 
REMARK  8 active torsions:
REMARK  status: ('A' for Active; 'I' for Inactive)
REMARK    1  A    between atoms: C_2  and  C_3
REMARK    2  A    between atoms: C_3  and  O_4
REMARK    3  A    between atoms: O_4  and  C_5
REMARK    4  A    between atoms: C_8  and  C_9
REMARK    5  A    between atoms: C_16  and  N_17
REMARK    6  A    between atoms: N_17  and  C_18
REMARK    7  A    between atoms: C_18  and  C_19
REMARK    8  A    between atoms: C_19  and  C_20
REMARK                            x       y       z     vdW  Elec       q    Type
REMARK                         _______ _______ _______ _____ _____    ______ ____
ROOT
ATOM      1  C   UNL     1       2.747   6.709  18.293  0.00  0.00    +0.000 C 
ATOM      2  O   UNL     1       2.150   6.141  19.207  0.00  0.00    +0.000 OA
ATOM      3  N   UNL     1       2.548   8.032  17.948  0.00  0.00    +0.000 N 
ATOM      4  C   UNL     1       1.624   8.823  18.649  0.00  0.00    +0.000 A 
ATOM      5  C   UNL     1       1.625   8.855  20.040  0.00  0.00    +0.000 A 
ATOM      6  C   UNL     1       0.697   9.660  20.685  0.00  0.00    +0.000 A 
ATOM      7  C   UNL     1      -0.216  10.372  19.917  0.00  0.00    +0.000 A 
ATOM      8  C   UNL     1      -0.182  10.258  18.528  0.00  0.00    +0.000 A 
ATOM      9  N   UNL     1       0.767   9.539  17.891  0.00  0.00    +0.000 NA
ATOM     10  H   UNL     1       2.645   8.291  16.977  0.00  0.00    +0.000 HD
ENDROOT
BRANCH   1  14
ATOM     11  C   UNL     1       5.512   4.582  15.773  0.00  0.00    +0.000 A 
ATOM     12  C   UNL     1       5.508   5.971  15.841  0.00  0.00    +0.000 A 
ATOM     13  C   UNL     1       4.621   6.625  16.697  0.00  0.00    +0.000 A 
ATOM     14  C   UNL     1       3.699   5.905  17.473  0.00  0.00    +0.000 A 
ATOM     15  C   UNL     1       3.681   4.508  17.379  0.00  0.00    +0.000 A 
ATOM     16  C   UNL     1       4.583   3.851  16.524  0.00  0.00    +0.000 A 
BRANCH  11  17
ATOM     17  O   UNL     1       6.374   3.848  14.999  0.00  0.00    +0.000 OA
BRANCH  17  18
ATOM     18  C   UNL     1       6.730   4.466  13.758  0.00  0.00    +0.000 C 
BRANCH  18  20
ATOM     19  C   UNL     1       5.181   3.370  12.138  0.00  0.00    +0.000 C 
ATOM     20  C   UNL     1       6.408   3.529  12.647  0.00  0.00    +0.000 C 
ENDBRANCH  18  20
ENDBRANCH  17  18
ENDBRANCH  11  17
ENDBRANCH   1  14
BRANCH   8  21
ATOM     21  N   UNL     1      -1.201  10.906  17.813  0.00  0.00    +0.000 N 
ATOM     22  H   UNL     1      -0.822  11.721  17.342  0.00  0.00    +0.000 HD
BRANCH  21  23
ATOM     23  C   UNL     1      -2.034  10.052  16.977  0.00  0.00    +0.000 C 
BRANCH  23  24
ATOM     24  C   UNL     1      -2.704  10.906  15.899  0.00  0.00    +0.000 C 
ATOM     25  C   UNL     1      -3.091  10.076  14.686  0.00  0.00    +0.000 C 
ENDBRANCH  23  24
ENDBRANCH  21  23
ENDBRANCH   8  21
TORSDOF 7
ENDMDL
MODEL 2
REMARK VINA RESULT:      -7.3      4.509      8.298
REMARK  Name = 
REMARK  8 active torsions:
REMARK  status: ('A' for Active; 'I' for Inactive)
REMARK    1  A    between atoms: C_2  and  C_3
REMARK    2  A    between atoms: C_3  and  O_4
REMARK    3  A    between atoms: O_4  and  C_5
REMARK    4  A    between atoms: C_8  and  C_9
REMARK    5  A    between atoms: C_16  and  N_17
REMARK    6  A    between atoms: N_17  and  C_18
REMARK    7  A    between atoms: C_18  and  C_19
REMARK    8  A    between atoms: C_19  and  C_20
REMARK                            x       y       z     vdW  Elec       q    Type
REMARK                         _______ _______ _______ _____ _____    ______ ____
ROOT
ATOM      1  C   UNL     1       5.181   5.523  16.159  0.00  0.00    +0.000 C 
ATOM      2  O   UNL     1       5.329   6.622  15.625  0.00  0.00    +0.000 OA
ATOM      3  N   UNL     1       5.577   4.330  15.586  0.00  0.00    +0.000 N 
ATOM      4  C   UNL     1       6.192   4.311  14.325  0.00  0.00    +0.000 A 
ATOM      5  C   UNL     1       7.250   5.167  14.035  0.00  0.00    +0.000 A 
ATOM      6  C   UNL     1       7.830   5.103  12.776  0.00  0.00    +0.000 A 
ATOM      7  C   UNL     1       7.308   4.213  11.847  0.00  0.00    +0.000 A 
ATOM      8  C   UNL     1       6.220   3.414  12.196  0.00  0.00    +0.000 A 
ATOM      9  N   UNL     1       5.701   3.415  13.442  0.00  0.00    +0.000 NA
ATOM     10  H   UNL     1       5.030   3.504  15.779  0.00  0.00    +0.000 HD
ENDROOT
BRANCH   1  14
ATOM     11  C   UNL     1       3.194   5.132  19.956  0.00  0.00    +0.000 A 
ATOM     12  C   UNL     1       4.159   4.221  19.541  0.00  0.00    +0.000 A 
ATOM     13  C   UNL     1       4.808   4.400  18.319  0.00  0.00    +0.000 A 
ATOM     14  C   UNL     1       4.480   5.472  17.475  0.00  0.00    +0.000 A 
ATOM     15  C   UNL     1       3.485   6.370  17.877  0.00  0.00    +0.000 A 
ATOM     16  C   UNL     1       2.839   6.194  19.114  0.00  0.00    +0.000 A 
BRANCH  11  17
ATOM     17  O   UNL     1       2.535   5.067  21.157  0.00  0.00    +0.000 OA
BRANCH  17  18
ATOM     18  C   UNL     1       1.973   3.786  21.457  0.00  0.00    +0.000 C 
BRANCH  18  20
ATOM     19  C   UNL     1       0.875   2.697  19.498  0.00  0.00    +0.000 C 
ATOM     20  C   UNL     1       0.828   3.538  20.539  0.00  0.00    +0.000 C 
ENDBRANCH  18  20
ENDBRANCH  17  18
ENDBRANCH  11  17
ENDBRANCH   1  14
BRANCH   8  21
ATOM     21  N   UNL     1       5.662   2.622  11.181  0.00  0.00    +0.000 N 
ATOM     22  H   UNL     1       6.065   1.691  11.215  0.00  0.00    +0.000 HD
BRANCH  21  23
ATOM     23  C   UNL     1       4.210   2.653  11.073  0.00  0.00    +0.000 C 
BRANCH  23  24
ATOM     24  C   UNL     1       3.767   4.059  10.667  0.00  0.00    +0.000 C 
ATOM     25  C   UNL     1       2.830   4.028   9.469  0.00  0.00    +0.000 C 
ENDBRANCH  23  24
ENDBRANCH  21  23
ENDBRANCH   8  21
TORSDOF 7
ENDMDL
MODEL 3
REMARK VINA RESULT:      -7.1      0.561      1.178
REMARK  Name = 
REMARK  8 active torsions:
REMARK  status: ('A' for Active; 'I' for Inactive)
REMARK    1  A    between atoms: C_2  and  C_3
REMARK    2  A    between atoms: C_3  and  O_4
REMARK    3  A    between atoms: O_4  and  C_5
REMARK    4  A    between atoms: C_8  and  C_9
REMARK    5  A    between atoms: C_16  and  N_17
REMARK    6  A    between atoms: N_17  and  C_18
REMARK    7  A    between atoms: C_18  and  C_19
REMARK    8  A    between atoms: C_19  and  C_20
REMARK                            x       y       z     vdW  Elec       q    Type
REMARK                         _______ _______ _______ _____ _____    ______ ____
ROOT
ATOM      1  C   UNL     1       2.817   6.483  18.339  0.00  0.00    +0.000 C 
ATOM      2  O   UNL     1       2.225   5.784  19.161  0.00  0.00    +0.000 OA
ATOM      3  N   UNL     1       2.615   7.843  18.197  0.00  0.00    +0.000 N 
ATOM      4  C   UNL     1       1.695   8.518  19.014  0.00  0.00    +0.000 A 
ATOM      5  C   UNL     1       1.703   8.341  20.394  0.00  0.00    +0.000 A 
ATOM      6  C   UNL     1       0.778   9.039  21.157  0.00  0.00    +0.000 A 
ATOM      7  C   UNL     1      -0.140   9.856  20.510  0.00  0.00    +0.000 A 
ATOM      8  C   UNL     1      -0.113   9.952  19.119  0.00  0.00    +0.000 A 
ATOM      9  N   UNL     1       0.832   9.338  18.377  0.00  0.00    +0.000 NA
ATOM     10  H   UNL     1       2.706   8.244  17.276  0.00  0.00    +0.000 HD
ENDROOT
BRANCH   1  14
ATOM     11  C   UNL     1       5.548   4.353  15.785  0.00  0.00    +0.000 A 
ATOM     12  C   UNL     1       4.646   3.685  16.606  0.00  0.00    +0.000 A 
ATOM     13  C   UNL     1       3.750   4.410  17.394  0.00  0.00    +0.000 A 
ATOM     14  C   UNL     1       3.765   5.813  17.402  0.00  0.00    +0.000 A 
ATOM     15  C   UNL     1       4.695   6.485  16.601  0.00  0.00    +0.000 A 
ATOM     16  C   UNL     1       5.589   5.752  15.800  0.00  0.00    +0.000 A 
BRANCH  11  17
ATOM     17  O   UNL     1       6.433   3.731  14.942  0.00  0.00    +0.000 OA
BRANCH  17  18
ATOM     18  C   UNL     1       6.653   4.413  13.703  0.00  0.00    +0.000 C 
BRANCH  18  20
ATOM     19  C   UNL     1       5.013   3.365  12.143  0.00  0.00    +0.000 C 
ATOM     20  C   UNL     1       6.268   3.511  12.584  0.00  0.00    +0.000 C 
ENDBRANCH  18  20
ENDBRANCH  17  18
ENDBRANCH  11  17
ENDBRANCH   1  14
BRANCH   8  21
ATOM     21  N   UNL     1      -1.137  10.698  18.515  0.00  0.00    +0.000 N 
ATOM     22  H   UNL     1      -0.832  11.657  18.390  0.00  0.00    +0.000 HD
BRANCH  21  23
ATOM     23  C   UNL     1      -1.755  10.097  17.341  0.00  0.00    +0.000 C 
BRANCH  23  24
ATOM     24  C   UNL     1      -3.232  10.491  17.293  0.00  0.00    +0.000 C 
ATOM     25  C   UNL     1      -3.677  10.832  15.880  0.00  0.00    +0.000 C 
ENDBRANCH  23  24
ENDBRANCH  21  23
ENDBRANCH   8  21
TORSDOF 7
ENDMDL
MODEL 4
REMARK VINA RESULT:      -7.0      1.194      1.916
REMARK  Name = 
REMARK  8 active torsions:
REMARK  status: ('A' for Active; 'I' for Inactive)
REMARK    1  A    between atoms: C_2  and  C_3
REMARK    2  A    between atoms: C_3  and  O_4
REMARK    3  A    between atoms: O_4  and  C_5
REMARK    4  A    between atoms: C_8  and  C_9
REMARK    5  A    between atoms: C_16  and  N_17
REMARK    6  A    between atoms: N_17  and  C_18
REMARK    7  A    between atoms: C_18  and  C_19
REMARK    8  A    between atoms: C_19  and  C_20
REMARK                            x       y       z     vdW  Elec       q    Type
REMARK                         _______ _______ _______ _____ _____    ______ ____
ROOT
ATOM      1  C   UNL     1       2.056   8.027  18.757  0.00  0.00    +0.000 C 
ATOM      2  O   UNL     1       1.919   7.939  19.977  0.00  0.00    +0.000 OA
ATOM      3  N   UNL     1       1.428   8.981  17.978  0.00  0.00    +0.000 N 
ATOM      4  C   UNL     1       0.577   9.932  18.561  0.00  0.00    +0.000 A 
ATOM      5  C   UNL     1       0.974  10.651  19.684  0.00  0.00    +0.000 A 
ATOM      6  C   UNL     1       0.099  11.587  20.216  0.00  0.00    +0.000 A 
ATOM      7  C   UNL     1      -1.150  11.741  19.628  0.00  0.00    +0.000 A 
ATOM      8  C   UNL     1      -1.494  10.956  18.529  0.00  0.00    +0.000 A 
ATOM      9  N   UNL     1      -0.620  10.100  17.958  0.00  0.00    +0.000 NA
ATOM     10  H   UNL     1       1.167   8.730  17.036  0.00  0.00    +0.000 HD
ENDROOT
BRANCH   1  14
ATOM     11  C   UNL     1       4.419   4.920  16.946  0.00  0.00    +0.000 A 
ATOM     12  C   UNL     1       3.267   4.631  17.670  0.00  0.00    +0.000 A 
ATOM     13  C   UNL     1       2.505   5.668  18.212  0.00  0.00    +0.000 A 
ATOM     14  C   UNL     1       2.902   7.007  18.072  0.00  0.00    +0.000 A 
ATOM     15  C   UNL     1       4.080   7.295  17.372  0.00  0.00    +0.000 A 
ATOM     16  C   UNL     1       4.839   6.249  16.817  0.00  0.00    +0.000 A 
BRANCH  11  17
ATOM     17  O   UNL     1       5.206   3.975  16.338  0.00  0.00    +0.000 OA
BRANCH  17  18
ATOM     18  C   UNL     1       6.560   4.384  16.117  0.00  0.00    +0.000 C 
BRANCH  18  20
ATOM     19  C   UNL     1       5.962   3.927  13.738  0.00  0.00    +0.000 C 
ATOM     20  C   UNL     1       6.834   4.365  14.654  0.00  0.00    +0.000 C 
ENDBRANCH  18  20
ENDBRANCH  17  18
ENDBRANCH  11  17
ENDBRANCH   1  14
BRANCH   8  21
ATOM     21  N   UNL     1      -2.809  11.072  18.053  0.00  0.00    +0.000 N 
ATOM     22  H   UNL     1      -3.015  12.045  17.855  0.00  0.00    +0.000 HD
BRANCH  21  23
ATOM     23  C   UNL     1      -3.189  10.143  16.997  0.00  0.00    +0.000 C 
BRANCH  23  24
ATOM     24  C   UNL     1      -3.337  10.910  15.683  0.00  0.00    +0.000 C 
ATOM     25  C   UNL     1      -3.039  10.028  14.481  0.00  0.00    +0.000 C 
ENDBRANCH  23  24
ENDBRANCH  21  23
ENDBRANCH   8  21
TORSDOF 7
ENDMDL
MODEL 5
REMARK VINA RESULT:      -7.0      4.524      8.312
REMARK  Name = 
REMARK  8 active torsions:
REMARK  status: ('A' for Active; 'I' for Inactive)
REMARK    1  A    between atoms: C_2  and  C_3
REMARK    2  A    between atoms: C_3  and  O_4
REMARK    3  A    between atoms: O_4  and  C_5
REMARK    4  A    between atoms: C_8  and  C_9
REMARK    5  A    between atoms: C_16  and  N_17
REMARK    6  A    between atoms: N_17  and  C_18
REMARK    7  A    between atoms: C_18  and  C_19
REMARK    8  A    between atoms: C_19  and  C_20
REMARK                            x       y       z     vdW  Elec       q    Type
REMARK                         _______ _______ _______ _____ _____    ______ ____
ROOT
ATOM      1  C   UNL     1       5.124   5.343  16.210  0.00  0.00    +0.000 C 
ATOM      2  O   UNL     1       5.191   6.466  15.711  0.00  0.00    +0.000 OA
ATOM      3  N   UNL     1       5.615   4.201  15.607  0.00  0.00    +0.000 N 
ATOM      4  C   UNL     1       6.239   4.268  14.351  0.00  0.00    +0.000 A 
ATOM      5  C   UNL     1       7.230   5.212  14.097  0.00  0.00    +0.000 A 
ATOM      6  C   UNL     1       7.822   5.230  12.843  0.00  0.00    +0.000 A 
ATOM      7  C   UNL     1       7.377   4.331  11.882  0.00  0.00    +0.000 A 
ATOM      8  C   UNL     1       6.351   3.441  12.197  0.00  0.00    +0.000 A 
ATOM      9  N   UNL     1       5.825   3.365  13.438  0.00  0.00    +0.000 NA
ATOM     10  H   UNL     1       5.131   3.330  15.770  0.00  0.00    +0.000 HD
ENDROOT
BRANCH   1  14
ATOM     11  C   UNL     1       3.041   5.167  19.972  0.00  0.00    +0.000 A 
ATOM     12  C   UNL     1       2.752   6.142  19.024  0.00  0.00    +0.000 A 
ATOM     13  C   UNL     1       3.423   6.146  17.800  0.00  0.00    +0.000 A 
ATOM     14  C   UNL     1       4.419   5.198  17.517  0.00  0.00    +0.000 A 
ATOM     15  C   UNL     1       4.733   4.237  18.485  0.00  0.00    +0.000 A 
ATOM     16  C   UNL     1       4.048   4.229  19.713  0.00  0.00    +0.000 A 
BRANCH  11  17
ATOM     17  O   UNL     1       2.405   5.053  21.182  0.00  0.00    +0.000 OA
BRANCH  17  18
ATOM     18  C   UNL     1       2.114   3.708  21.575  0.00  0.00    +0.000 C 
BRANCH  18  20
ATOM     19  C   UNL     1       0.948   2.678  19.624  0.00  0.00    +0.000 C 
ATOM     20  C   UNL     1       0.908   3.243  20.837  0.00  0.00    +0.000 C 
ENDBRANCH  18  20
ENDBRANCH  17  18
ENDBRANCH  11  17
ENDBRANCH   1  14
BRANCH   8  21
ATOM     21  N   UNL     1       5.864   2.639  11.154  0.00  0.00    +0.000 N 
ATOM     22  H   UNL     1       6.366   1.758  11.138  0.00  0.00    +0.000 HD
BRANCH  21  23
ATOM     23  C   UNL     1       4.415   2.516  11.067  0.00  0.00    +0.000 C 
BRANCH  23  24
ATOM     24  C   UNL     1       3.808   3.898  10.822  0.00  0.00    +0.000 C 
ATOM     25  C   UNL     1       2.911   3.907   9.594  0.00  0.00    +0.000 C 
ENDBRANCH  23  24
ENDBRANCH  21  23
ENDBRANCH   8  21
TORSDOF 7
ENDMDL
MODEL 6
REMARK VINA RESULT:      -6.9      1.433      1.837
REMARK  Name = 
REMARK  8 active torsions:
REMARK  status: ('A' for Active; 'I' for Inactive)
REMARK    1  A    between atoms: C_2  and  C_3
REMARK    2  A    between atoms: C_3  and  O_4
REMARK    3  A    between atoms: O_4  and  C_5
REMARK    4  A    between atoms: C_8  and  C_9
REMARK    5  A    between atoms: C_16  and  N_17
REMARK    6  A    between atoms: N_17  and  C_18
REMARK    7  A    between atoms: C_18  and  C_19
REMARK    8  A    between atoms: C_19  and  C_20
REMARK                            x       y       z     vdW  Elec       q    Type
REMARK                         _______ _______ _______ _____ _____    ______ ____
ROOT
ATOM      1  C   UNL     1       2.195   6.417  19.819  0.00  0.00    +0.000 C 
ATOM      2  O   UNL     1       1.541   5.851  20.693  0.00  0.00    +0.000 OA
ATOM      3  N   UNL     1       2.149   7.777  19.581  0.00  0.00    +0.000 N 
ATOM      4  C   UNL     1       1.327   8.611  20.355  0.00  0.00    +0.000 A 
ATOM      5  C   UNL     1       1.339   8.532  21.745  0.00  0.00    +0.000 A 
ATOM      6  C   UNL     1       0.515   9.384  22.464  0.00  0.00    +0.000 A 
ATOM      7  C   UNL     1      -0.314  10.255  21.768  0.00  0.00    +0.000 A 
ATOM      8  C   UNL     1      -0.300  10.250  20.374  0.00  0.00    +0.000 A 
ATOM      9  N   UNL     1       0.555   9.479  19.669  0.00  0.00    +0.000 NA
ATOM     10  H   UNL     1       2.270   8.099  18.632  0.00  0.00    +0.000 HD
ENDROOT
BRANCH   1  14
ATOM     11  C   UNL     1       4.819   4.159  17.262  0.00  0.00    +0.000 A 
ATOM     12  C   UNL     1       5.314   5.015  18.240  0.00  0.00    +0.000 A 
ATOM     13  C   UNL     1       4.432   5.704  19.075  0.00  0.00    +0.000 A 
ATOM     14  C   UNL     1       3.043   5.576  18.924  0.00  0.00    +0.000 A 
ATOM     15  C   UNL     1       2.545   4.739  17.918  0.00  0.00    +0.000 A 
ATOM     16  C   UNL     1       3.436   4.038  17.085  0.00  0.00    +0.000 A 
BRANCH  11  17
ATOM     17  O   UNL     1       5.604   3.405  16.426  0.00  0.00    +0.000 OA
BRANCH  17  18
ATOM     18  C   UNL     1       6.606   4.147  15.724  0.00  0.00    +0.000 C 
BRANCH  18  20
ATOM     19  C   UNL     1       6.087   3.746  13.317  0.00  0.00    +0.000 C 
ATOM     20  C   UNL     1       6.067   4.540  14.393  0.00  0.00    +0.000 C 
ENDBRANCH  18  20
ENDBRANCH  17  18
ENDBRANCH  11  17
ENDBRANCH   1  14
BRANCH   8  21
ATOM     21  N   UNL     1      -1.242  11.065  19.727  0.00  0.00    +0.000 N 
ATOM     22  H   UNL     1      -1.178  12.011  20.088  0.00  0.00    +0.000 HD
BRANCH  21  23
ATOM     23  C   UNL     1      -1.277  10.969  18.274  0.00  0.00    +0.000 C 
BRANCH  23  24
ATOM     24  C   UNL     1      -2.419  10.040  17.860  0.00  0.00    +0.000 C 
ATOM     25  C   UNL     1      -2.688  10.113  16.365  0.00  0.00    +0.000 C 
ENDBRANCH  23  24
ENDBRANCH  21  23
ENDBRANCH   8  21
TORSDOF 7
ENDMDL
MODEL 7
REMARK VINA RESULT:      -6.9      0.890      1.051
REMARK  Name = 
REMARK  8 active torsions:
REMARK  status: ('A' for Active; 'I' for Inactive)
REMARK    1  A    between atoms: C_2  and  C_3
REMARK    2  A    between atoms: C_3  and  O_4
REMARK    3  A    between atoms: O_4  and  C_5
REMARK    4  A    between atoms: C_8  and  C_9
REMARK    5  A    between atoms: C_16  and  N_17
REMARK    6  A    between atoms: N_17  and  C_18
REMARK    7  A    between atoms: C_18  and  C_19
REMARK    8  A    between atoms: C_19  and  C_20
REMARK                            x       y       z     vdW  Elec       q    Type
REMARK                         _______ _______ _______ _____ _____    ______ ____
ROOT
ATOM      1  C   UNL     1       2.762   6.590  18.769  0.00  0.00    +0.000 C 
ATOM      2  O   UNL     1       2.095   5.784  19.418  0.00  0.00    +0.000 OA
ATOM      3  N   UNL     1       2.580   7.959  18.823  0.00  0.00    +0.000 N 
ATOM      4  C   UNL     1       1.595   8.517  19.652  0.00  0.00    +0.000 A 
ATOM      5  C   UNL     1       1.480   8.130  20.984  0.00  0.00    +0.000 A 
ATOM      6  C   UNL     1       0.496   8.719  21.764  0.00  0.00    +0.000 A 
ATOM      7  C   UNL     1      -0.357   9.643  21.174  0.00  0.00    +0.000 A 
ATOM      8  C   UNL     1      -0.207   9.952  19.823  0.00  0.00    +0.000 A 
ATOM      9  N   UNL     1       0.797   9.442  19.078  0.00  0.00    +0.000 NA
ATOM     10  H   UNL     1       2.754   8.496  17.986  0.00  0.00    +0.000 HD
ENDROOT
BRANCH   1  14
ATOM     11  C   UNL     1       5.669   5.237  15.899  0.00  0.00    +0.000 A 
ATOM     12  C   UNL     1       5.339   6.582  16.024  0.00  0.00    +0.000 A 
ATOM     13  C   UNL     1       4.418   6.988  16.991  0.00  0.00    +0.000 A 
ATOM     14  C   UNL     1       3.784   6.054  17.825  0.00  0.00    +0.000 A 
ATOM     15  C   UNL     1       4.091   4.696  17.676  0.00  0.00    +0.000 A 
ATOM     16  C   UNL     1       5.027   4.291  16.708  0.00  0.00    +0.000 A 
BRANCH  11  17
ATOM     17  O   UNL     1       6.593   4.747  15.013  0.00  0.00    +0.000 OA
BRANCH  17  18
ATOM     18  C   UNL     1       6.183   3.564  14.320  0.00  0.00    +0.000 C 
BRANCH  18  20
ATOM     19  C   UNL     1       5.532   3.095  11.957  0.00  0.00    +0.000 C 
ATOM     20  C   UNL     1       6.183   3.840  12.857  0.00  0.00    +0.000 C 
ENDBRANCH  18  20
ENDBRANCH  17  18
ENDBRANCH  11  17
ENDBRANCH   1  14
BRANCH   8  21
ATOM     21  N   UNL     1      -1.170  10.802  19.256  0.00  0.00    +0.000 N 
ATOM     22  H   UNL     1      -1.017  11.752  19.576  0.00  0.00    +0.000 HD
BRANCH  21  23
ATOM     23  C   UNL     1      -1.370  10.669  17.819  0.00  0.00    +0.000 C 
BRANCH  23  24
ATOM     24  C   UNL     1      -2.641   9.859  17.562  0.00  0.00    +0.000 C 
ATOM     25  C   UNL     1      -3.041   9.892  16.095  0.00  0.00    +0.000 C 
ENDBRANCH  23  24
ENDBRANCH  21  23
ENDBRANCH   8  21
TORSDOF 7
ENDMDL
MODEL 8
REMARK VINA RESULT:      -6.9      1.589      2.125
REMARK  Name = 
REMARK  8 active torsions:
REMARK  status: ('A' for Active; 'I' for Inactive)
REMARK    1  A    between atoms: C_2  and  C_3
REMARK    2  A    between atoms: C_3  and  O_4
REMARK    3  A    between atoms: O_4  and  C_5
REMARK    4  A    between atoms: C_8  and  C_9
REMARK    5  A    between atoms: C_16  and  N_17
REMARK    6  A    between atoms: N_17  and  C_18
REMARK    7  A    between atoms: C_18  and  C_19
REMARK    8  A    between atoms: C_19  and  C_20
REMARK                            x       y       z     vdW  Elec       q    Type
REMARK                         _______ _______ _______ _____ _____    ______ ____
ROOT
ATOM      1  C   UNL     1       2.678   6.569  18.551  0.00  0.00    +0.000 C 
ATOM      2  O   UNL     1       2.066   5.891  19.376  0.00  0.00    +0.000 OA
ATOM      3  N   UNL     1       2.521   7.934  18.407  0.00  0.00    +0.000 N 
ATOM      4  C   UNL     1       1.628   8.641  19.226  0.00  0.00    +0.000 A 
ATOM      5  C   UNL     1       1.636   8.467  20.607  0.00  0.00    +0.000 A 
ATOM      6  C   UNL     1       0.738   9.197  21.373  0.00  0.00    +0.000 A 
ATOM      7  C   UNL     1      -0.154  10.043  20.727  0.00  0.00    +0.000 A 
ATOM      8  C   UNL     1      -0.130  10.136  19.336  0.00  0.00    +0.000 A 
ATOM      9  N   UNL     1       0.791   9.489  18.591  0.00  0.00    +0.000 NA
ATOM     10  H   UNL     1       2.622   8.330  17.485  0.00  0.00    +0.000 HD
ENDROOT
BRANCH   1  14
ATOM     11  C   UNL     1       5.317   4.339  15.985  0.00  0.00    +0.000 A 
ATOM     12  C   UNL     1       4.365   3.707  16.778  0.00  0.00    +0.000 A 
ATOM     13  C   UNL     1       3.502   4.465  17.571  0.00  0.00    +0.000 A 
ATOM     14  C   UNL     1       3.599   5.865  17.612  0.00  0.00    +0.000 A 
ATOM     15  C   UNL     1       4.579   6.499  16.838  0.00  0.00    +0.000 A 
ATOM     16  C   UNL     1       5.440   5.733  16.033  0.00  0.00    +0.000 A 
BRANCH  11  17
ATOM     17  O   UNL     1       6.176   3.685  15.140  0.00  0.00    +0.000 OA
BRANCH  17  18
ATOM     18  C   UNL     1       6.501   4.407  13.947  0.00  0.00    +0.000 C 
BRANCH  18  20
ATOM     19  C   UNL     1       5.123   3.424  12.115  0.00  0.00    +0.000 C 
ATOM     20  C   UNL     1       6.283   3.518  12.774  0.00  0.00    +0.000 C 
ENDBRANCH  18  20
ENDBRANCH  17  18
ENDBRANCH  11  17
ENDBRANCH   1  14
BRANCH   8  21
ATOM     21  N   UNL     1      -1.131  10.915  18.735  0.00  0.00    +0.000 N 
ATOM     22  H   UNL     1      -2.005  10.400  18.727  0.00  0.00    +0.000 HD
BRANCH  21  23
ATOM     23  C   UNL     1      -1.239  12.288  19.207  0.00  0.00    +0.000 C 
BRANCH  23  24
ATOM     24  C   UNL     1      -0.390  13.194  18.313  0.00  0.00    +0.000 C 
ATOM     25  C   UNL     1       0.772  13.808  19.078  0.00  0.00    +0.000 C 
ENDBRANCH  23  24
ENDBRANCH  21  23
ENDBRANCH   8  21
TORSDOF 7
ENDMDL
MODEL 9
REMARK VINA RESULT:      -6.8      1.602      2.188
REMARK  Name = 
REMARK  8 active torsions:
REMARK  status: ('A' for Active; 'I' for Inactive)
REMARK    1  A    between atoms: C_2  and  C_3
REMARK    2  A    between atoms: C_3  and  O_4
REMARK    3  A    between atoms: O_4  and  C_5
REMARK    4  A    between atoms: C_8  and  C_9
REMARK    5  A    between atoms: C_16  and  N_17
REMARK    6  A    between atoms: N_17  and  C_18
REMARK    7  A    between atoms: C_18  and  C_19
REMARK    8  A    between atoms: C_19  and  C_20
REMARK                            x       y       z     vdW  Elec       q    Type
REMARK                         _______ _______ _______ _____ _____    ______ ____
ROOT
ATOM      1  C   UNL     1       2.076   6.576  19.922  0.00  0.00    +0.000 C 
ATOM      2  O   UNL     1       1.387   5.978  20.748  0.00  0.00    +0.000 OA
ATOM      3  N   UNL     1       2.057   7.947  19.750  0.00  0.00    +0.000 N 
ATOM      4  C   UNL     1       1.224   8.755  20.541  0.00  0.00    +0.000 A 
ATOM      5  C   UNL     1       1.194   8.608  21.924  0.00  0.00    +0.000 A 
ATOM      6  C   UNL     1       0.361   9.437  22.661  0.00  0.00    +0.000 A 
ATOM      7  C   UNL     1      -0.434  10.354  21.985  0.00  0.00    +0.000 A 
ATOM      8  C   UNL     1      -0.379  10.417  20.593  0.00  0.00    +0.000 A 
ATOM      9  N   UNL     1       0.485   9.668  19.876  0.00  0.00    +0.000 NA
ATOM     10  H   UNL     1       2.210   8.313  18.822  0.00  0.00    +0.000 HD
ENDROOT
BRANCH   1  14
ATOM     11  C   UNL     1       4.376   4.079  17.278  0.00  0.00    +0.000 A 
ATOM     12  C   UNL     1       2.986   4.081  17.252  0.00  0.00    +0.000 A 
ATOM     13  C   UNL     1       2.274   4.931  18.100  0.00  0.00    +0.000 A 
ATOM     14  C   UNL     1       2.937   5.766  19.012  0.00  0.00    +0.000 A 
ATOM     15  C   UNL     1       4.336   5.739  19.061  0.00  0.00    +0.000 A 
ATOM     16  C   UNL     1       5.051   4.890  18.198  0.00  0.00    +0.000 A 
BRANCH  11  17
ATOM     17  O   UNL     1       5.163   3.315  16.454  0.00  0.00    +0.000 OA
BRANCH  17  18
ATOM     18  C   UNL     1       6.102   4.060  15.671  0.00  0.00    +0.000 C 
BRANCH  18  20
ATOM     19  C   UNL     1       6.327   3.864  13.194  0.00  0.00    +0.000 C 
ATOM     20  C   UNL     1       5.594   4.154  14.275  0.00  0.00    +0.000 C 
ENDBRANCH  18  20
ENDBRANCH  17  18
ENDBRANCH  11  17
ENDBRANCH   1  14
BRANCH   8  21
ATOM     21  N   UNL     1      -1.289  11.278  19.960  0.00  0.00    +0.000 N 
ATOM     22  H   UNL     1      -1.593  11.991  20.613  0.00  0.00    +0.000 HD
BRANCH  21  23
ATOM     23  C   UNL     1      -0.887  11.781  18.654  0.00  0.00    +0.000 C 
BRANCH  23  24
ATOM     24  C   UNL     1      -2.006  11.512  17.646  0.00  0.00    +0.000 C 
ATOM     25  C   UNL     1      -2.170  10.026  17.372  0.00  0.00    +0.000 C 
ENDBRANCH  23  24
ENDBRANCH  21  23
ENDBRANCH   8  21
TORSDOF 7
ENDMDL
