MODEL 1
REMARK VINA RESULT:      -6.1      0.000      0.000
REMARK  Name = 
REMARK  2 active torsions:
REMARK  status: ('A' for Active; 'I' for Inactive)
REMARK    1  A    between atoms: N_6  and  C_7
REMARK    2  A    between atoms: C_7  and  C_8
REMARK                            x       y       z     vdW  Elec       q    Type
REMARK                         _______ _______ _______ _____ _____    ______ ____
ROOT
ATOM      1  C   UNL     1      -1.216  12.016  19.004  0.00  0.00    +0.000 C 
ATOM      2  C   UNL     1       0.226  11.762  19.452  0.00  0.00    +0.000 C 
ATOM      3  N   UNL     1       0.945  13.030  19.664  0.00  0.00    +0.000 N 
ATOM      4  C   UNL     1       2.077  13.226  18.866  0.00  0.00    +0.000 C 
ATOM      5  O   UNL     1       2.474  12.345  18.096  0.00  0.00    +0.000 OA
ATOM      6  N   UNL     1       2.752  14.434  18.913  0.00  0.00    +0.000 N 
ATOM      7  C   UNL     1       2.268  15.713  19.434  0.00  0.00    +0.000 C 
ATOM      8  C   UNL     1       2.612  16.910  18.544  0.00  0.00    +0.000 C 
ATOM      9  O   UNL     1       3.985  16.919  18.150  0.00  0.00    +0.000 OA
ATOM     10  C   UNL     1       4.299  15.707  17.447  0.00  0.00    +0.000 C 
ATOM     11  C   UNL     1       4.118  14.499  18.367  0.00  0.00    +0.000 C 
ATOM     12  C   UNL     1       0.889  13.556  21.031  0.00  0.00    +0.000 C 
ATOM     13  C   UNL     1      -0.347  13.278  21.828  0.00  0.00    +0.000 A 
ATOM     14  N   UNL     1      -0.383  13.394  23.144  0.00  0.00    +0.000 NA
ATOM     15  C   UNL     1      -1.681  13.195  23.514  0.00  0.00    +0.000 A 
ATOM     16  C   UNL     1      -2.457  12.936  22.413  0.00  0.00    +0.000 A 
ATOM     17  N   UNL     1      -1.601  12.983  21.342  0.00  0.00    +0.000 N 
ATOM     18  C   UNL     1      -2.025  12.910  19.961  0.00  0.00    +0.000 C 
ENDROOT
BRANCH   1  19
ATOM     19  C   UNL     1      -1.954  10.692  18.725  0.00  0.00    +0.000 C 
BRANCH  19  25
ATOM     20  O   UNL     1      -4.459  11.936  17.804  0.00  0.00    +0.000 OA
ATOM     21  C   UNL     1      -3.780  11.234  17.080  0.00  0.00    +0.000 C 
ATOM     22  C   UNL     1      -4.142  10.805  15.675  0.00  0.00    +0.000 C 
ATOM     23  C   UNL     1      -2.809  10.322  15.117  0.00  0.00    +0.000 C 
ATOM     24  C   UNL     1      -2.081   9.794  16.338  0.00  0.00    +0.000 C 
ATOM     25  N   UNL     1      -2.569  10.635  17.406  0.00  0.00    +0.000 N 
ENDBRANCH  19  25
ENDBRANCH   1  19
TORSDOF 2
ENDMDL
MODEL 2
REMARK VINA RESULT:      -6.1      9.442     11.573
REMARK  Name = 
REMARK  2 active torsions:
REMARK  status: ('A' for Active; 'I' for Inactive)
REMARK    1  A    between atoms: N_6  and  C_7
REMARK    2  A    between atoms: C_7  and  C_8
REMARK                            x       y       z     vdW  Elec       q    Type
REMARK                         _______ _______ _______ _____ _____    ______ ____
ROOT
ATOM      1  C   UNL     1       8.224  14.683  18.925  0.00  0.00    +0.000 C 
ATOM      2  C   UNL     1       9.112  15.156  20.080  0.00  0.00    +0.000 C 
ATOM      3  N   UNL     1       9.138  14.163  21.167  0.00  0.00    +0.000 N 
ATOM      4  C   UNL     1       8.668  14.608  22.407  0.00  0.00    +0.000 C 
ATOM      5  O   UNL     1       8.331  15.785  22.575  0.00  0.00    +0.000 OA
ATOM      6  N   UNL     1       8.548  13.717  23.460  0.00  0.00    +0.000 N 
ATOM      7  C   UNL     1       8.517  12.254  23.398  0.00  0.00    +0.000 C 
ATOM      8  C   UNL     1       7.451  11.624  24.297  0.00  0.00    +0.000 C 
ATOM      9  O   UNL     1       7.472  12.154  25.622  0.00  0.00    +0.000 OA
ATOM     10  C   UNL     1       7.270  13.575  25.583  0.00  0.00    +0.000 C 
ATOM     11  C   UNL     1       8.412  14.252  24.825  0.00  0.00    +0.000 C 
ATOM     12  C   UNL     1      10.220  13.177  21.084  0.00  0.00    +0.000 C 
ATOM     13  C   UNL     1      10.684  12.775  19.719  0.00  0.00    +0.000 A 
ATOM     14  N   UNL     1      11.844  12.176  19.512  0.00  0.00    +0.000 NA
ATOM     15  C   UNL     1      11.877  11.844  18.189  0.00  0.00    +0.000 A 
ATOM     16  C   UNL     1      10.727  12.257  17.565  0.00  0.00    +0.000 A 
ATOM     17  N   UNL     1       9.974  12.856  18.541  0.00  0.00    +0.000 N 
ATOM     18  C   UNL     1       8.612  13.309  18.354  0.00  0.00    +0.000 C 
ENDROOT
BRANCH   1  19
ATOM     19  C   UNL     1       8.148  15.746  17.811  0.00  0.00    +0.000 C 
BRANCH  19  25
ATOM     20  O   UNL     1       8.537  18.587  18.481  0.00  0.00    +0.000 OA
ATOM     21  C   UNL     1       9.425  17.906  18.007  0.00  0.00    +0.000 C 
ATOM     22  C   UNL     1      10.792  18.403  17.593  0.00  0.00    +0.000 C 
ATOM     23  C   UNL     1      11.598  17.114  17.476  0.00  0.00    +0.000 C 
ATOM     24  C   UNL     1      10.564  16.085  17.060  0.00  0.00    +0.000 C 
ATOM     25  N   UNL     1       9.354  16.554  17.693  0.00  0.00    +0.000 N 
ENDBRANCH  19  25
ENDBRANCH   1  19
TORSDOF 2
ENDMDL
MODEL 3
REMARK VINA RESULT:      -6.0      2.914      3.292
REMARK  Name = 
REMARK  2 active torsions:
REMARK  status: ('A' for Active; 'I' for Inactive)
REMARK    1  A    between atoms: N_6  and  C_7
REMARK    2  A    between atoms: C_7  and  C_8
REMARK                            x       y       z     vdW  Elec       q    Type
REMARK                         _______ _______ _______ _____ _____    ______ ____
ROOT
ATOM      1  C   UNL     1      -0.184  11.961  20.349  0.00  0.00    +0.000 C 
ATOM      2  C   UNL     1       1.170  12.587  20.696  0.00  0.00    +0.000 C 
ATOM      3  N   UNL     1       1.193  14.020  20.355  0.00  0.00    +0.000 N 
ATOM      4  C   UNL     1       2.158  14.406  19.420  0.00  0.00    +0.000 C 
ATOM      5  O   UNL     1       2.980  13.594  18.981  0.00  0.00    +0.000 OA
ATOM      6  N   UNL     1       2.184  15.709  18.953  0.00  0.00    +0.000 N 
ATOM      7  C   UNL     1       1.118  16.710  19.028  0.00  0.00    +0.000 C 
ATOM      8  C   UNL     1       0.930  17.505  17.734  0.00  0.00    +0.000 C 
ATOM      9  O   UNL     1       2.164  18.000  17.214  0.00  0.00    +0.000 OA
ATOM     10  C   UNL     1       3.062  16.909  16.965  0.00  0.00    +0.000 C 
ATOM     11  C   UNL     1       3.398  16.190  18.272  0.00  0.00    +0.000 C 
ATOM     12  C   UNL     1       0.792  14.923  21.438  0.00  0.00    +0.000 C 
ATOM     13  C   UNL     1      -0.227  14.423  22.413  0.00  0.00    +0.000 A 
ATOM     14  N   UNL     1      -0.414  14.986  23.594  0.00  0.00    +0.000 NA
ATOM     15  C   UNL     1      -1.492  14.363  24.152  0.00  0.00    +0.000 A 
ATOM     16  C   UNL     1      -1.969  13.389  23.312  0.00  0.00    +0.000 A 
ATOM     17  N   UNL     1      -1.155  13.426  22.209  0.00  0.00    +0.000 N 
ATOM     18  C   UNL     1      -1.388  12.662  21.002  0.00  0.00    +0.000 C 
ENDROOT
BRANCH   1  19
ATOM     19  C   UNL     1      -0.192  10.449  20.650  0.00  0.00    +0.000 C 
BRANCH  19  25
ATOM     20  O   UNL     1       1.337   7.992  21.196  0.00  0.00    +0.000 OA
ATOM     21  C   UNL     1       1.351   8.536  20.109  0.00  0.00    +0.000 C 
ATOM     22  C   UNL     1       2.205   8.127  18.929  0.00  0.00    +0.000 C 
ATOM     23  C   UNL     1       1.536   8.846  17.763  0.00  0.00    +0.000 C 
ATOM     24  C   UNL     1       0.962  10.097  18.400  0.00  0.00    +0.000 C 
ATOM     25  N   UNL     1       0.639   9.671  19.740  0.00  0.00    +0.000 N 
ENDBRANCH  19  25
ENDBRANCH   1  19
TORSDOF 2
ENDMDL
MODEL 4
REMARK VINA RESULT:      -6.0      2.541      3.496
REMARK  Name = 
REMARK  2 active torsions:
REMARK  status: ('A' for Active; 'I' for Inactive)
REMARK    1  A    between atoms: N_6  and  C_7
REMARK    2  A    between atoms: C_7  and  C_8
REMARK                            x       y       z     vdW  Elec       q    Type
REMARK                         _______ _______ _______ _____ _____    ______ ____
ROOT
ATOM      1  C   UNL     1      -0.773  11.957  19.347  0.00  0.00    +0.000 C 
ATOM      2  C   UNL     1       0.658  12.381  19.696  0.00  0.00    +0.000 C 
ATOM      3  N   UNL     1       0.806  13.844  19.630  0.00  0.00    +0.000 N 
ATOM      4  C   UNL     1       1.748  14.317  18.710  0.00  0.00    +0.000 C 
ATOM      5  O   UNL     1       2.453  13.537  18.062  0.00  0.00    +0.000 OA
ATOM      6  N   UNL     1       1.879  15.679  18.496  0.00  0.00    +0.000 N 
ATOM      7  C   UNL     1       0.928  16.737  18.843  0.00  0.00    +0.000 C 
ATOM      8  C   UNL     1       0.744  17.783  17.740  0.00  0.00    +0.000 C 
ATOM      9  O   UNL     1       1.988  18.257  17.225  0.00  0.00    +0.000 OA
ATOM     10  C   UNL     1       2.751  17.159  16.705  0.00  0.00    +0.000 C 
ATOM     11  C   UNL     1       3.092  16.173  17.823  0.00  0.00    +0.000 C 
ATOM     12  C   UNL     1       0.567  14.552  20.892  0.00  0.00    +0.000 C 
ATOM     13  C   UNL     1      -0.436  13.963  21.834  0.00  0.00    +0.000 A 
ATOM     14  N   UNL     1      -0.492  14.300  23.111  0.00  0.00    +0.000 NA
ATOM     15  C   UNL     1      -1.592  13.679  23.626  0.00  0.00    +0.000 A 
ATOM     16  C   UNL     1      -2.217  12.934  22.658  0.00  0.00    +0.000 A 
ATOM     17  N   UNL     1      -1.473  13.113  21.520  0.00  0.00    +0.000 N 
ATOM     18  C   UNL     1      -1.856  12.622  20.214  0.00  0.00    +0.000 C 
ENDROOT
BRANCH   1  19
ATOM     19  C   UNL     1      -0.917  10.422  19.358  0.00  0.00    +0.000 C 
BRANCH  19  25
ATOM     20  O   UNL     1       1.559   8.865  19.022  0.00  0.00    +0.000 OA
ATOM     21  C   UNL     1       1.036   9.023  20.107  0.00  0.00    +0.000 C 
ATOM     22  C   UNL     1       1.483   8.385  21.404  0.00  0.00    +0.000 C 
ATOM     23  C   UNL     1       0.772   9.227  22.457  0.00  0.00    +0.000 C 
ATOM     24  C   UNL     1      -0.502   9.666  21.761  0.00  0.00    +0.000 C 
ATOM     25  N   UNL     1      -0.106   9.768  20.376  0.00  0.00    +0.000 N 
ENDBRANCH  19  25
ENDBRANCH   1  19
TORSDOF 2
ENDMDL
MODEL 5
REMARK VINA RESULT:      -5.9      3.299      4.733
REMARK  Name = 
REMARK  2 active torsions:
REMARK  status: ('A' for Active; 'I' for Inactive)
REMARK    1  A    between atoms: N_6  and  C_7
REMARK    2  A    between atoms: C_7  and  C_8
REMARK                            x       y       z     vdW  Elec       q    Type
REMARK                         _______ _______ _______ _____ _____    ______ ____
ROOT
ATOM      1  C   UNL     1       1.216  10.098  19.438  0.00  0.00    +0.000 C 
ATOM      2  C   UNL     1       0.936  11.152  20.514  0.00  0.00    +0.000 C 
ATOM      3  N   UNL     1       0.950  12.509  19.941  0.00  0.00    +0.000 N 
ATOM      4  C   UNL     1       1.904  13.382  20.474  0.00  0.00    +0.000 C 
ATOM      5  O   UNL     1       2.625  13.039  21.417  0.00  0.00    +0.000 OA
ATOM      6  N   UNL     1       2.069  14.641  19.923  0.00  0.00    +0.000 N 
ATOM      7  C   UNL     1       1.622  15.113  18.611  0.00  0.00    +0.000 C 
ATOM      8  C   UNL     1       2.667  15.951  17.871  0.00  0.00    +0.000 C 
ATOM      9  O   UNL     1       3.235  16.968  18.697  0.00  0.00    +0.000 OA
ATOM     10  C   UNL     1       3.846  16.373  19.852  0.00  0.00    +0.000 C 
ATOM     11  C   UNL     1       2.792  15.661  20.701  0.00  0.00    +0.000 C 
ATOM     12  C   UNL     1      -0.352  13.005  19.486  0.00  0.00    +0.000 C 
ATOM     13  C   UNL     1      -1.327  12.001  18.956  0.00  0.00    +0.000 A 
ATOM     14  N   UNL     1      -2.618  12.260  18.839  0.00  0.00    +0.000 NA
ATOM     15  C   UNL     1      -3.172  11.184  18.209  0.00  0.00    +0.000 A 
ATOM     16  C   UNL     1      -2.213  10.239  17.947  0.00  0.00    +0.000 A 
ATOM     17  N   UNL     1      -1.042  10.761  18.431  0.00  0.00    +0.000 N 
ATOM     18  C   UNL     1       0.259  10.157  18.235  0.00  0.00    +0.000 C 
ENDROOT
BRANCH   1  19
ATOM     19  C   UNL     1       1.260   8.682  20.044  0.00  0.00    +0.000 C 
BRANCH  19  25
ATOM     20  O   UNL     1       1.938   5.888  20.683  0.00  0.00    +0.000 OA
ATOM     21  C   UNL     1       2.405   6.464  19.720  0.00  0.00    +0.000 C 
ATOM     22  C   UNL     1       3.456   5.909  18.784  0.00  0.00    +0.000 C 
ATOM     23  C   UNL     1       3.356   6.835  17.577  0.00  0.00    +0.000 C 
ATOM     24  C   UNL     1       2.924   8.158  18.180  0.00  0.00    +0.000 C 
ATOM     25  N   UNL     1       2.122   7.762  19.313  0.00  0.00    +0.000 N 
ENDBRANCH  19  25
ENDBRANCH   1  19
TORSDOF 2
ENDMDL
MODEL 6
REMARK VINA RESULT:      -5.8      8.160     10.562
REMARK  Name = 
REMARK  2 active torsions:
REMARK  status: ('A' for Active; 'I' for Inactive)
REMARK    1  A    between atoms: N_6  and  C_7
REMARK    2  A    between atoms: C_7  and  C_8
REMARK                            x       y       z     vdW  Elec       q    Type
REMARK                         _______ _______ _______ _____ _____    ______ ____
ROOT
ATOM      1  C   UNL     1       9.632  14.383  21.589  0.00  0.00    +0.000 C 
ATOM      2  C   UNL     1       8.646  13.221  21.430  0.00  0.00    +0.000 C 
ATOM      3  N   UNL     1       7.509  13.363  22.356  0.00  0.00    +0.000 N 
ATOM      4  C   UNL     1       7.343  12.322  23.276  0.00  0.00    +0.000 C 
ATOM      5  O   UNL     1       8.068  11.322  23.244  0.00  0.00    +0.000 OA
ATOM      6  N   UNL     1       6.372  12.419  24.257  0.00  0.00    +0.000 N 
ATOM      7  C   UNL     1       5.680  13.624  24.720  0.00  0.00    +0.000 C 
ATOM      8  C   UNL     1       5.544  13.708  26.242  0.00  0.00    +0.000 C 
ATOM      9  O   UNL     1       5.054  12.494  26.813  0.00  0.00    +0.000 OA
ATOM     10  C   UNL     1       5.933  11.409  26.483  0.00  0.00    +0.000 C 
ATOM     11  C   UNL     1       5.965  11.195  24.968  0.00  0.00    +0.000 C 
ATOM     12  C   UNL     1       6.351  14.078  21.813  0.00  0.00    +0.000 C 
ATOM     13  C   UNL     1       6.614  15.159  20.812  0.00  0.00    +0.000 A 
ATOM     14  N   UNL     1       5.671  15.631  20.014  0.00  0.00    +0.000 NA
ATOM     15  C   UNL     1       6.225  16.680  19.340  0.00  0.00    +0.000 A 
ATOM     16  C   UNL     1       7.535  16.849  19.713  0.00  0.00    +0.000 A 
ATOM     17  N   UNL     1       7.779  15.874  20.645  0.00  0.00    +0.000 N 
ATOM     18  C   UNL     1       9.000  15.774  21.416  0.00  0.00    +0.000 C 
ENDROOT
BRANCH   1  19
ATOM     19  C   UNL     1      10.853  14.208  20.664  0.00  0.00    +0.000 C 
BRANCH  19  25
ATOM     20  O   UNL     1      11.880  11.504  20.110  0.00  0.00    +0.000 OA
ATOM     21  C   UNL     1      11.159  12.096  19.331  0.00  0.00    +0.000 C 
ATOM     22  C   UNL     1      10.769  11.614  17.951  0.00  0.00    +0.000 C 
ATOM     23  C   UNL     1       9.573  12.496  17.611  0.00  0.00    +0.000 C 
ATOM     24  C   UNL     1       9.866  13.790  18.347  0.00  0.00    +0.000 C 
ATOM     25  N   UNL     1      10.594  13.352  19.514  0.00  0.00    +0.000 N 
ENDBRANCH  19  25
ENDBRANCH   1  19
TORSDOF 2
ENDMDL
MODEL 7
REMARK VINA RESULT:      -5.7      1.070      1.326
REMARK  Name = 
REMARK  2 active torsions:
REMARK  status: ('A' for Active; 'I' for Inactive)
REMARK    1  A    between atoms: N_6  and  C_7
REMARK    2  A    between atoms: C_7  and  C_8
REMARK                            x       y       z     vdW  Elec       q    Type
REMARK                         _______ _______ _______ _____ _____    ______ ____
ROOT
ATOM      1  C   UNL     1      -1.630  12.497  19.489  0.00  0.00    +0.000 C 
ATOM      2  C   UNL     1      -0.206  12.182  19.960  0.00  0.00    +0.000 C 
ATOM      3  N   UNL     1       0.601  13.410  20.058  0.00  0.00    +0.000 N 
ATOM      4  C   UNL     1       1.740  13.452  19.248  0.00  0.00    +0.000 C 
ATOM      5  O   UNL     1       2.070  12.480  18.560  0.00  0.00    +0.000 OA
ATOM      6  N   UNL     1       2.500  14.608  19.187  0.00  0.00    +0.000 N 
ATOM      7  C   UNL     1       2.110  15.960  19.592  0.00  0.00    +0.000 C 
ATOM      8  C   UNL     1       2.534  17.045  18.599  0.00  0.00    +0.000 C 
ATOM      9  O   UNL     1       3.902  16.921  18.207  0.00  0.00    +0.000 OA
ATOM     10  C   UNL     1       4.125  15.633  17.616  0.00  0.00    +0.000 C 
ATOM     11  C   UNL     1       3.864  14.527  18.639  0.00  0.00    +0.000 C 
ATOM     12  C   UNL     1       0.590  14.058  21.373  0.00  0.00    +0.000 C 
ATOM     13  C   UNL     1      -0.659  13.940  22.190  0.00  0.00    +0.000 A 
ATOM     14  N   UNL     1      -0.680  14.175  23.491  0.00  0.00    +0.000 NA
ATOM     15  C   UNL     1      -1.987  14.103  23.875  0.00  0.00    +0.000 A 
ATOM     16  C   UNL     1      -2.784  13.803  22.800  0.00  0.00    +0.000 A 
ATOM     17  N   UNL     1      -1.933  13.693  21.731  0.00  0.00    +0.000 N 
ATOM     18  C   UNL     1      -2.368  13.528  20.361  0.00  0.00    +0.000 C 
ENDROOT
BRANCH   1  19
ATOM     19  C   UNL     1      -2.461  11.209  19.328  0.00  0.00    +0.000 C 
BRANCH  19  25
ATOM     20  O   UNL     1      -0.972   9.632  17.336  0.00  0.00    +0.000 OA
ATOM     21  C   UNL     1      -2.023  10.183  17.072  0.00  0.00    +0.000 C 
ATOM     22  C   UNL     1      -2.667  10.245  15.705  0.00  0.00    +0.000 C 
ATOM     23  C   UNL     1      -4.097  10.662  16.025  0.00  0.00    +0.000 C 
ATOM     24  C   UNL     1      -3.950  11.508  17.276  0.00  0.00    +0.000 C 
ATOM     25  N   UNL     1      -2.817  10.914  17.946  0.00  0.00    +0.000 N 
ENDBRANCH  19  25
ENDBRANCH   1  19
TORSDOF 2
ENDMDL
MODEL 8
REMARK VINA RESULT:      -5.7      2.676      3.596
REMARK  Name = 
REMARK  2 active torsions:
REMARK  status: ('A' for Active; 'I' for Inactive)
REMARK    1  A    between atoms: N_6  and  C_7
REMARK    2  A    between atoms: C_7  and  C_8
REMARK                            x       y       z     vdW  Elec       q    Type
REMARK                         _______ _______ _______ _____ _____    ______ ____
ROOT
ATOM      1  C   UNL     1      -3.707  13.486  21.515  0.00  0.00    +0.000 C 
ATOM      2  C   UNL     1      -2.511  12.570  21.793  0.00  0.00    +0.000 C 
ATOM      3  N   UNL     1      -1.241  13.254  21.494  0.00  0.00    +0.000 N 
ATOM      4  C   UNL     1      -0.446  12.655  20.511  0.00  0.00    +0.000 C 
ATOM      5  O   UNL     1      -0.772  11.581  19.996  0.00  0.00    +0.000 OA
ATOM      6  N   UNL     1       0.711  13.284  20.083  0.00  0.00    +0.000 N 
ATOM      7  C   UNL     1       1.085  14.689  20.257  0.00  0.00    +0.000 C 
ATOM      8  C   UNL     1       1.691  15.322  19.002  0.00  0.00    +0.000 C 
ATOM      9  O   UNL     1       2.711  14.511  18.419  0.00  0.00    +0.000 OA
ATOM     10  C   UNL     1       2.175  13.223  18.080  0.00  0.00    +0.000 C 
ATOM     11  C   UNL     1       1.708  12.495  19.341  0.00  0.00    +0.000 C 
ATOM     12  C   UNL     1      -0.632  13.958  22.627  0.00  0.00    +0.000 C 
ATOM     13  C   UNL     1      -1.553  14.545  23.650  0.00  0.00    +0.000 A 
ATOM     14  N   UNL     1      -1.142  14.893  24.858  0.00  0.00    +0.000 NA
ATOM     15  C   UNL     1      -2.200  15.505  25.465  0.00  0.00    +0.000 A 
ATOM     16  C   UNL     1      -3.287  15.521  24.627  0.00  0.00    +0.000 A 
ATOM     17  N   UNL     1      -2.872  14.902  23.476  0.00  0.00    +0.000 N 
ATOM     18  C   UNL     1      -3.659  14.829  22.264  0.00  0.00    +0.000 C 
ENDROOT
BRANCH   1  19
ATOM     19  C   UNL     1      -5.040  12.754  21.770  0.00  0.00    +0.000 C 
BRANCH  19  25
ATOM     20  O   UNL     1      -7.333  10.927  21.499  0.00  0.00    +0.000 OA
ATOM     21  C   UNL     1      -6.739  11.368  20.535  0.00  0.00    +0.000 C 
ATOM     22  C   UNL     1      -6.991  10.986  19.093  0.00  0.00    +0.000 C 
ATOM     23  C   UNL     1      -6.295  12.101  18.322  0.00  0.00    +0.000 C 
ATOM     24  C   UNL     1      -5.148  12.501  19.231  0.00  0.00    +0.000 C 
ATOM     25  N   UNL     1      -5.674  12.261  20.555  0.00  0.00    +0.000 N 
ENDBRANCH  19  25
ENDBRANCH   1  19
TORSDOF 2
ENDMDL
MODEL 9
REMARK VINA RESULT:      -5.7      2.860      4.040
REMARK  Name = 
REMARK  2 active torsions:
REMARK  status: ('A' for Active; 'I' for Inactive)
REMARK    1  A    between atoms: N_6  and  C_7
REMARK    2  A    between atoms: C_7  and  C_8
REMARK                            x       y       z     vdW  Elec       q    Type
REMARK                         _______ _______ _______ _____ _____    ______ ____
ROOT
ATOM      1  C   UNL     1       0.670  10.936  19.685  0.00  0.00    +0.000 C 
ATOM      2  C   UNL     1       0.896  11.866  20.882  0.00  0.00    +0.000 C 
ATOM      3  N   UNL     1       0.961  13.273  20.453  0.00  0.00    +0.000 N 
ATOM      4  C   UNL     1       2.158  13.938  20.736  0.00  0.00    +0.000 C 
ATOM      5  O   UNL     1       3.059  13.384  21.374  0.00  0.00    +0.000 OA
ATOM      6  N   UNL     1       2.357  15.227  20.273  0.00  0.00    +0.000 N 
ATOM      7  C   UNL     1       1.626  15.922  19.211  0.00  0.00    +0.000 C 
ATOM      8  C   UNL     1       2.528  16.710  18.258  0.00  0.00    +0.000 C 
ATOM      9  O   UNL     1       3.472  17.526  18.952  0.00  0.00    +0.000 OA
ATOM     10  C   UNL     1       4.291  16.711  19.803  0.00  0.00    +0.000 C 
ATOM     11  C   UNL     1       3.433  16.034  20.873  0.00  0.00    +0.000 C 
ATOM     12  C   UNL     1      -0.319  13.989  20.471  0.00  0.00    +0.000 C 
ATOM     13  C   UNL     1      -1.556  13.197  20.186  0.00  0.00    +0.000 A 
ATOM     14  N   UNL     1      -2.764  13.633  20.499  0.00  0.00    +0.000 NA
ATOM     15  C   UNL     1      -3.647  12.730  19.982  0.00  0.00    +0.000 A 
ATOM     16  C   UNL     1      -2.975  11.713  19.353  0.00  0.00    +0.000 A 
ATOM     17  N   UNL     1      -1.644  12.011  19.492  0.00  0.00    +0.000 N 
ATOM     18  C   UNL     1      -0.576  11.276  18.850  0.00  0.00    +0.000 C 
ENDROOT
BRANCH   1  19
ATOM     19  C   UNL     1       0.660   9.458  20.122  0.00  0.00    +0.000 C 
BRANCH  19  25
ATOM     20  O   UNL     1       1.650   6.756  20.748  0.00  0.00    +0.000 OA
ATOM     21  C   UNL     1       2.000   7.360  19.753  0.00  0.00    +0.000 C 
ATOM     22  C   UNL     1       3.044   6.896  18.761  0.00  0.00    +0.000 C 
ATOM     23  C   UNL     1       2.781   7.788  17.553  0.00  0.00    +0.000 C 
ATOM     24  C   UNL     1       2.256   9.072  18.167  0.00  0.00    +0.000 C 
ATOM     25  N   UNL     1       1.565   8.616  19.350  0.00  0.00    +0.000 N 
ENDBRANCH  19  25
ENDBRANCH   1  19
TORSDOF 2
ENDMDL
