MODEL 1
REMARK VINA RESULT:      -7.0      0.000      0.000
REMARK  Name = 
REMARK  0 active torsions:
REMARK  status: ('A' for Active; 'I' for Inactive)
REMARK                            x       y       z     vdW  Elec       q    Type
REMARK                         _______ _______ _______ _____ _____    ______ ____
ROOT
ATOM      1  O   UNL     1       7.456   4.375  18.151  0.00  0.00    +0.000 OA
ATOM      2  C   UNL     1       6.453   5.022  17.904  0.00  0.00    +0.000 C 
ATOM      3  C   UNL     1       5.149   4.738  18.493  0.00  0.00    +0.000 A 
ATOM      4  C   UNL     1       4.816   3.742  19.395  0.00  0.00    +0.000 A 
ATOM      5  C   UNL     1       3.485   3.695  19.778  0.00  0.00    +0.000 A 
ATOM      6  C   UNL     1       2.544   4.621  19.282  0.00  0.00    +0.000 A 
ATOM      7  C   UNL     1       2.900   5.622  18.388  0.00  0.00    +0.000 A 
ATOM      8  C   UNL     1       4.229   5.663  17.990  0.00  0.00    +0.000 A 
ATOM      9  C   UNL     1       4.853   6.631  17.030  0.00  0.00    +0.000 C 
ATOM     10  C   UNL     1       6.321   6.192  16.957  0.00  0.00    +0.000 C 
ATOM     11 BR   UNL     1       7.506   7.600  17.567  0.00  0.00    +0.000 Br
ATOM     12  C   UNL     1       1.196   4.385  19.893  0.00  0.00    +0.000 C 
ATOM     13  C   UNL     1       1.355   2.961  20.445  0.00  0.00    +0.000 C 
ATOM     14  C   UNL     1       2.846   2.764  20.760  0.00  0.00    +0.000 C 
ENDROOT
TORSDOF 0
ENDMDL
MODEL 2
REMARK VINA RESULT:      -7.0      3.257      5.305
REMARK  Name = 
REMARK  0 active torsions:
REMARK  status: ('A' for Active; 'I' for Inactive)
REMARK                            x       y       z     vdW  Elec       q    Type
REMARK                         _______ _______ _______ _____ _____    ______ ____
ROOT
ATOM      1  O   UNL     1       1.513   5.696  20.652  0.00  0.00    +0.000 OA
ATOM      2  C   UNL     1       1.757   4.738  19.939  0.00  0.00    +0.000 C 
ATOM      3  C   UNL     1       2.700   4.784  18.827  0.00  0.00    +0.000 A 
ATOM      4  C   UNL     1       3.459   5.857  18.391  0.00  0.00    +0.000 A 
ATOM      5  C   UNL     1       4.266   5.619  17.291  0.00  0.00    +0.000 A 
ATOM      6  C   UNL     1       4.312   4.353  16.673  0.00  0.00    +0.000 A 
ATOM      7  C   UNL     1       3.553   3.283  17.132  0.00  0.00    +0.000 A 
ATOM      8  C   UNL     1       2.732   3.522  18.226  0.00  0.00    +0.000 A 
ATOM      9  C   UNL     1       1.814   2.543  18.893  0.00  0.00    +0.000 C 
ATOM     10  C   UNL     1       1.152   3.356  20.015  0.00  0.00    +0.000 C 
ATOM     11 BR   UNL     1       1.562   2.611  21.757  0.00  0.00    +0.000 Br
ATOM     12  C   UNL     1       5.299   4.349  15.545  0.00  0.00    +0.000 C 
ATOM     13  C   UNL     1       5.484   5.852  15.296  0.00  0.00    +0.000 C 
ATOM     14  C   UNL     1       5.217   6.566  16.628  0.00  0.00    +0.000 C 
ENDROOT
TORSDOF 0
ENDMDL
MODEL 3
REMARK VINA RESULT:      -7.0      1.471      1.500
REMARK  Name = 
REMARK  0 active torsions:
REMARK  status: ('A' for Active; 'I' for Inactive)
REMARK                            x       y       z     vdW  Elec       q    Type
REMARK                         _______ _______ _______ _____ _____    ______ ____
ROOT
ATOM      1  O   UNL     1       6.438   4.339  15.936  0.00  0.00    +0.000 OA
ATOM      2  C   UNL     1       5.642   5.078  16.488  0.00  0.00    +0.000 C 
ATOM      3  C   UNL     1       4.467   4.599  17.208  0.00  0.00    +0.000 A 
ATOM      4  C   UNL     1       4.052   3.292  17.397  0.00  0.00    +0.000 A 
ATOM      5  C   UNL     1       2.879   3.128  18.115  0.00  0.00    +0.000 A 
ATOM      6  C   UNL     1       2.170   4.234  18.628  0.00  0.00    +0.000 A 
ATOM      7  C   UNL     1       2.609   5.539  18.440  0.00  0.00    +0.000 A 
ATOM      8  C   UNL     1       3.776   5.708  17.708  0.00  0.00    +0.000 A 
ATOM      9  C   UNL     1       4.441   7.005  17.359  0.00  0.00    +0.000 C 
ATOM     10  C   UNL     1       5.664   6.588  16.532  0.00  0.00    +0.000 C 
ATOM     11 BR   UNL     1       7.313   7.143  17.389  0.00  0.00    +0.000 Br
ATOM     12  C   UNL     1       0.973   3.782  19.407  0.00  0.00    +0.000 C 
ATOM     13  C   UNL     1       0.818   2.335  18.917  0.00  0.00    +0.000 C 
ATOM     14  C   UNL     1       2.215   1.846  18.508  0.00  0.00    +0.000 C 
ENDROOT
TORSDOF 0
ENDMDL
MODEL 4
REMARK VINA RESULT:      -6.9      1.205      1.320
REMARK  Name = 
REMARK  0 active torsions:
REMARK  status: ('A' for Active; 'I' for Inactive)
REMARK                            x       y       z     vdW  Elec       q    Type
REMARK                         _______ _______ _______ _____ _____    ______ ____
ROOT
ATOM      1  O   UNL     1       7.351   5.488  20.011  0.00  0.00    +0.000 OA
ATOM      2  C   UNL     1       6.733   5.501  18.961  0.00  0.00    +0.000 C 
ATOM      3  C   UNL     1       5.351   5.053  18.837  0.00  0.00    +0.000 A 
ATOM      4  C   UNL     1       4.519   4.559  19.827  0.00  0.00    +0.000 A 
ATOM      5  C   UNL     1       3.247   4.192  19.420  0.00  0.00    +0.000 A 
ATOM      6  C   UNL     1       2.835   4.332  18.079  0.00  0.00    +0.000 A 
ATOM      7  C   UNL     1       3.679   4.842  17.101  0.00  0.00    +0.000 A 
ATOM      8  C   UNL     1       4.959   5.197  17.502  0.00  0.00    +0.000 A 
ATOM      9  C   UNL     1       6.052   5.753  16.640  0.00  0.00    +0.000 C 
ATOM     10  C   UNL     1       7.234   5.933  17.602  0.00  0.00    +0.000 C 
ATOM     11 BR   UNL     1       7.767   7.793  17.718  0.00  0.00    +0.000 Br
ATOM     12  C   UNL     1       1.405   3.915  17.917  0.00  0.00    +0.000 C 
ATOM     13  C   UNL     1       1.175   3.106  19.201  0.00  0.00    +0.000 C 
ATOM     14  C   UNL     1       2.127   3.670  20.266  0.00  0.00    +0.000 C 
ENDROOT
TORSDOF 0
ENDMDL
MODEL 5
REMARK VINA RESULT:      -6.7      3.027      5.276
REMARK  Name = 
REMARK  0 active torsions:
REMARK  status: ('A' for Active; 'I' for Inactive)
REMARK                            x       y       z     vdW  Elec       q    Type
REMARK                         _______ _______ _______ _____ _____    ______ ____
ROOT
ATOM      1  O   UNL     1       1.407   4.272  17.444  0.00  0.00    +0.000 OA
ATOM      2  C   UNL     1       2.348   3.895  18.119  0.00  0.00    +0.000 C 
ATOM      3  C   UNL     1       3.644   4.564  18.134  0.00  0.00    +0.000 A 
ATOM      4  C   UNL     1       4.035   5.692  17.432  0.00  0.00    +0.000 A 
ATOM      5  C   UNL     1       5.343   6.103  17.629  0.00  0.00    +0.000 A 
ATOM      6  C   UNL     1       6.206   5.414  18.505  0.00  0.00    +0.000 A 
ATOM      7  C   UNL     1       5.793   4.292  19.212  0.00  0.00    +0.000 A 
ATOM      8  C   UNL     1       4.488   3.868  19.007  0.00  0.00    +0.000 A 
ATOM      9  C   UNL     1       3.815   2.686  19.636  0.00  0.00    +0.000 C 
ATOM     10  C   UNL     1       2.405   2.691  19.030  0.00  0.00    +0.000 C 
ATOM     11 BR   UNL     1       1.052   2.909  20.403  0.00  0.00    +0.000 Br
ATOM     12  C   UNL     1       7.540   6.093  18.577  0.00  0.00    +0.000 C 
ATOM     13  C   UNL     1       7.502   6.977  17.322  0.00  0.00    +0.000 C 
ATOM     14  C   UNL     1       6.027   7.298  17.042  0.00  0.00    +0.000 C 
ENDROOT
TORSDOF 0
ENDMDL
MODEL 6
REMARK VINA RESULT:      -6.6      2.842      4.888
REMARK  Name = 
REMARK  0 active torsions:
REMARK  status: ('A' for Active; 'I' for Inactive)
REMARK                            x       y       z     vdW  Elec       q    Type
REMARK                         _______ _______ _______ _____ _____    ______ ____
ROOT
ATOM      1  O   UNL     1       3.224   3.053  20.889  0.00  0.00    +0.000 OA
ATOM      2  C   UNL     1       2.990   3.784  19.943  0.00  0.00    +0.000 C 
ATOM      3  C   UNL     1       4.014   4.569  19.263  0.00  0.00    +0.000 A 
ATOM      4  C   UNL     1       5.369   4.633  19.539  0.00  0.00    +0.000 A 
ATOM      5  C   UNL     1       6.111   5.482  18.734  0.00  0.00    +0.000 A 
ATOM      6  C   UNL     1       5.511   6.217  17.692  0.00  0.00    +0.000 A 
ATOM      7  C   UNL     1       4.151   6.130  17.420  0.00  0.00    +0.000 A 
ATOM      8  C   UNL     1       3.402   5.292  18.234  0.00  0.00    +0.000 A 
ATOM      9  C   UNL     1       1.927   5.041  18.153  0.00  0.00    +0.000 C 
ATOM     10  C   UNL     1       1.651   4.058  19.299  0.00  0.00    +0.000 C 
ATOM     11 BR   UNL     1       0.946   2.380  18.631  0.00  0.00    +0.000 Br
ATOM     12  C   UNL     1       6.538   7.011  16.944  0.00  0.00    +0.000 C 
ATOM     13  C   UNL     1       7.710   7.005  17.935  0.00  0.00    +0.000 C 
ATOM     14  C   UNL     1       7.588   5.723  18.770  0.00  0.00    +0.000 C 
ENDROOT
TORSDOF 0
ENDMDL
MODEL 7
REMARK VINA RESULT:      -6.4      1.501      1.659
REMARK  Name = 
REMARK  0 active torsions:
REMARK  status: ('A' for Active; 'I' for Inactive)
REMARK                            x       y       z     vdW  Elec       q    Type
REMARK                         _______ _______ _______ _____ _____    ______ ____
ROOT
ATOM      1  O   UNL     1       6.787   5.198  19.551  0.00  0.00    +0.000 OA
ATOM      2  C   UNL     1       6.123   4.764  18.626  0.00  0.00    +0.000 C 
ATOM      3  C   UNL     1       4.733   4.344  18.763  0.00  0.00    +0.000 A 
ATOM      4  C   UNL     1       3.942   4.357  19.899  0.00  0.00    +0.000 A 
ATOM      5  C   UNL     1       2.651   3.881  19.742  0.00  0.00    +0.000 A 
ATOM      6  C   UNL     1       2.181   3.429  18.491  0.00  0.00    +0.000 A 
ATOM      7  C   UNL     1       2.985   3.436  17.359  0.00  0.00    +0.000 A 
ATOM      8  C   UNL     1       4.284   3.898  17.516  0.00  0.00    +0.000 A 
ATOM      9  C   UNL     1       5.342   3.990  16.457  0.00  0.00    +0.000 C 
ATOM     10  C   UNL     1       6.566   4.543  17.199  0.00  0.00    +0.000 C 
ATOM     11 BR   UNL     1       7.118   6.251  16.466  0.00  0.00    +0.000 Br
ATOM     12  C   UNL     1       0.742   3.021  18.582  0.00  0.00    +0.000 C 
ATOM     13  C   UNL     1       0.563   2.864  20.098  0.00  0.00    +0.000 C 
ATOM     14  C   UNL     1       1.566   3.813  20.771  0.00  0.00    +0.000 C 
ENDROOT
TORSDOF 0
ENDMDL
MODEL 8
REMARK VINA RESULT:      -6.4      3.189      5.361
REMARK  Name = 
REMARK  0 active torsions:
REMARK  status: ('A' for Active; 'I' for Inactive)
REMARK                            x       y       z     vdW  Elec       q    Type
REMARK                         _______ _______ _______ _____ _____    ______ ____
ROOT
ATOM      1  O   UNL     1       1.517   2.302  17.811  0.00  0.00    +0.000 OA
ATOM      2  C   UNL     1       2.480   2.679  18.455  0.00  0.00    +0.000 C 
ATOM      3  C   UNL     1       3.633   3.346  17.860  0.00  0.00    +0.000 A 
ATOM      4  C   UNL     1       3.845   3.666  16.529  0.00  0.00    +0.000 A 
ATOM      5  C   UNL     1       5.048   4.290  16.243  0.00  0.00    +0.000 A 
ATOM      6  C   UNL     1       5.981   4.589  17.256  0.00  0.00    +0.000 A 
ATOM      7  C   UNL     1       5.745   4.274  18.588  0.00  0.00    +0.000 A 
ATOM      8  C   UNL     1       4.548   3.634  18.878  0.00  0.00    +0.000 A 
ATOM      9  C   UNL     1       4.071   3.181  20.224  0.00  0.00    +0.000 C 
ATOM     10  C   UNL     1       2.712   2.528  19.940  0.00  0.00    +0.000 C 
ATOM     11 BR   UNL     1       1.282   3.451  20.871  0.00  0.00    +0.000 Br
ATOM     12  C   UNL     1       7.167   5.309  16.689  0.00  0.00    +0.000 C 
ATOM     13  C   UNL     1       7.026   4.999  15.193  0.00  0.00    +0.000 C 
ATOM     14  C   UNL     1       5.531   4.785  14.915  0.00  0.00    +0.000 C 
ENDROOT
TORSDOF 0
ENDMDL
MODEL 9
REMARK VINA RESULT:      -6.3      1.635      2.474
REMARK  Name = 
REMARK  0 active torsions:
REMARK  status: ('A' for Active; 'I' for Inactive)
REMARK                            x       y       z     vdW  Elec       q    Type
REMARK                         _______ _______ _______ _____ _____    ______ ____
ROOT
ATOM      1  O   UNL     1       4.138   7.026  16.589  0.00  0.00    +0.000 OA
ATOM      2  C   UNL     1       4.688   6.090  17.142  0.00  0.00    +0.000 C 
ATOM      3  C   UNL     1       4.028   5.237  18.124  0.00  0.00    +0.000 A 
ATOM      4  C   UNL     1       2.727   5.316  18.590  0.00  0.00    +0.000 A 
ATOM      5  C   UNL     1       2.368   4.376  19.542  0.00  0.00    +0.000 A 
ATOM      6  C   UNL     1       3.279   3.397  19.989  0.00  0.00    +0.000 A 
ATOM      7  C   UNL     1       4.577   3.325  19.500  0.00  0.00    +0.000 A 
ATOM      8  C   UNL     1       4.945   4.274  18.556  0.00  0.00    +0.000 A 
ATOM      9  C   UNL     1       6.282   4.414  17.894  0.00  0.00    +0.000 C 
ATOM     10  C   UNL     1       6.118   5.631  16.973  0.00  0.00    +0.000 C 
ATOM     11 BR   UNL     1       6.382   5.146  15.115  0.00  0.00    +0.000 Br
ATOM     12  C   UNL     1       2.627   2.476  20.975  0.00  0.00    +0.000 C 
ATOM     13  C   UNL     1       1.391   3.290  21.382  0.00  0.00    +0.000 C 
ATOM     14  C   UNL     1       1.032   4.192  20.192  0.00  0.00    +0.000 C 
ENDROOT
TORSDOF 0
ENDMDL
