MODEL 1
REMARK VINA RESULT:      -8.1      0.000      0.000
REMARK  Name = 
REMARK  8 active torsions:
REMARK  status: ('A' for Active; 'I' for Inactive)
REMARK    1  A    between atoms: C_1  and  C_2
REMARK    2  A    between atoms: C_2  and  C_3
REMARK    3  A    between atoms: C_6  and  O_7
REMARK    4  A    between atoms: O_7  and  C_8
REMARK    5  A    between atoms: C_8  and  C_9
REMARK    6  A    between atoms: C_21  and  N_22
REMARK    7  A    between atoms: N_22  and  C_23
REMARK    8  A    between atoms: C_24  and  C_26
REMARK                            x       y       z     vdW  Elec       q    Type
REMARK                         _______ _______ _______ _____ _____    ______ ____
ROOT
ATOM      1  C   UNL     1       0.361   9.822  21.781  0.00  0.00    +0.000 A 
ATOM      2  N   UNL     1       0.747   8.523  21.657  0.00  0.00    +0.000 NA
ATOM      3  C   UNL     1       1.292   8.402  20.476  0.00  0.00    +0.000 A 
ATOM      4  C   UNL     1       1.953   7.268  19.898  0.00  0.00    +0.000 A 
ATOM      5  C   UNL     1       2.377   7.335  18.623  0.00  0.00    +0.000 A 
ATOM      6  C   UNL     1       2.254   8.557  17.857  0.00  0.00    +0.000 A 
ATOM      7  C   UNL     1       1.731   9.652  18.439  0.00  0.00    +0.000 A 
ATOM      8  N   UNL     1       1.212   9.597  19.741  0.00  0.00    +0.000 N 
ATOM      9  C   UNL     1       0.640  10.560  20.617  0.00  0.00    +0.000 A 
ENDROOT
BRANCH   9  10
ATOM     10  N   UNL     1       0.478  11.971  20.406  0.00  0.00    +0.000 N 
ATOM     11  C   UNL     1       1.519  12.882  20.892  0.00  0.00    +0.000 C 
ATOM     12  C   UNL     1      -0.707  12.488  19.831  0.00  0.00    +0.000 C 
ATOM     13  O   UNL     1      -1.682  11.829  19.466  0.00  0.00    +0.000 OA
BRANCH  12  14
ATOM     14  C   UNL     1      -0.892  13.967  19.661  0.00  0.00    +0.000 A 
ATOM     15  C   UNL     1      -1.659  14.669  20.596  0.00  0.00    +0.000 A 
ATOM     16  C   UNL     1      -1.736  16.050  20.491  0.00  0.00    +0.000 A 
ATOM     17  N   UNL     1      -1.108  16.759  19.520  0.00  0.00    +0.000 NA
ATOM     18  C   UNL     1      -0.344  16.067  18.654  0.00  0.00    +0.000 A 
ATOM     19  C   UNL     1      -0.183  14.687  18.702  0.00  0.00    +0.000 A 
ENDBRANCH  12  14
ENDBRANCH   9  10
BRANCH   1  21
ATOM     20  C   UNL     1      -1.434  11.114  22.987  0.00  0.00    +0.000 C 
ATOM     21  C   UNL     1      -0.280  10.139  23.094  0.00  0.00    +0.000 C 
ENDBRANCH   1  21
BRANCH   4  22
ATOM     22  O   UNL     1       2.188   6.117  20.642  0.00  0.00    +0.000 OA
BRANCH  22  23
ATOM     23  C   UNL     1       1.278   5.033  20.423  0.00  0.00    +0.000 C 
BRANCH  23  24
ATOM     24  C   UNL     1       1.945   3.854  19.741  0.00  0.00    +0.000 A 
ATOM     25  C   UNL     1       1.513   3.371  18.498  0.00  0.00    +0.000 A 
ATOM     26  C   UNL     1       2.202   2.335  17.863  0.00  0.00    +0.000 A 
ATOM     27  C   UNL     1       3.333   1.789  18.469  0.00  0.00    +0.000 A 
ATOM     28  F   UNL     1       3.992   0.798  17.851  0.00  0.00    +0.000 F 
ATOM     29  C   UNL     1       3.777   2.268  19.691  0.00  0.00    +0.000 A 
ATOM     30  F   UNL     1       4.868   1.746  20.268  0.00  0.00    +0.000 F 
ATOM     31  C   UNL     1       3.093   3.295  20.332  0.00  0.00    +0.000 A 
ENDBRANCH  23  24
ENDBRANCH  22  23
ENDBRANCH   4  22
TORSDOF 6
ENDMDL
MODEL 2
REMARK VINA RESULT:      -8.1      1.408      1.657
REMARK  Name = 
REMARK  8 active torsions:
REMARK  status: ('A' for Active; 'I' for Inactive)
REMARK    1  A    between atoms: C_1  and  C_2
REMARK    2  A    between atoms: C_2  and  C_3
REMARK    3  A    between atoms: C_6  and  O_7
REMARK    4  A    between atoms: O_7  and  C_8
REMARK    5  A    between atoms: C_8  and  C_9
REMARK    6  A    between atoms: C_21  and  N_22
REMARK    7  A    between atoms: N_22  and  C_23
REMARK    8  A    between atoms: C_24  and  C_26
REMARK                            x       y       z     vdW  Elec       q    Type
REMARK                         _______ _______ _______ _____ _____    ______ ____
ROOT
ATOM      1  C   UNL     1       0.307  10.385  21.114  0.00  0.00    +0.000 A 
ATOM      2  N   UNL     1       0.650   9.072  21.208  0.00  0.00    +0.000 NA
ATOM      3  C   UNL     1       1.294   8.770  20.112  0.00  0.00    +0.000 A 
ATOM      4  C   UNL     1       1.958   7.547  19.762  0.00  0.00    +0.000 A 
ATOM      5  C   UNL     1       2.498   7.421  18.537  0.00  0.00    +0.000 A 
ATOM      6  C   UNL     1       2.494   8.526  17.601  0.00  0.00    +0.000 A 
ATOM      7  C   UNL     1       1.966   9.706  17.973  0.00  0.00    +0.000 A 
ATOM      8  N   UNL     1       1.329   9.850  19.215  0.00  0.00    +0.000 N 
ATOM      9  C   UNL     1       0.720  10.944  19.890  0.00  0.00    +0.000 A 
ENDROOT
BRANCH   9  10
ATOM     10  N   UNL     1       0.636  12.313  19.472  0.00  0.00    +0.000 N 
ATOM     11  C   UNL     1      -0.302  12.670  18.404  0.00  0.00    +0.000 C 
ATOM     12  C   UNL     1       1.510  13.291  20.006  0.00  0.00    +0.000 C 
ATOM     13  O   UNL     1       2.393  13.093  20.841  0.00  0.00    +0.000 OA
BRANCH  12  14
ATOM     14  C   UNL     1       1.451  14.711  19.526  0.00  0.00    +0.000 A 
ATOM     15  C   UNL     1       0.636  15.625  20.201  0.00  0.00    +0.000 A 
ATOM     16  C   UNL     1       0.669  16.958  19.816  0.00  0.00    +0.000 A 
ATOM     17  N   UNL     1       1.450  17.422  18.811  0.00  0.00    +0.000 NA
ATOM     18  C   UNL     1       2.255  16.532  18.200  0.00  0.00    +0.000 A 
ATOM     19  C   UNL     1       2.312  15.186  18.538  0.00  0.00    +0.000 A 
ENDBRANCH  12  14
ENDBRANCH   9  10
BRANCH   1  21
ATOM     20  C   UNL     1      -0.704   9.850  23.358  0.00  0.00    +0.000 C 
ATOM     21  C   UNL     1      -0.437  10.903  22.303  0.00  0.00    +0.000 C 
ENDBRANCH   1  21
BRANCH   4  22
ATOM     22  O   UNL     1       2.078   6.508  20.677  0.00  0.00    +0.000 OA
BRANCH  22  23
ATOM     23  C   UNL     1       1.162   5.418  20.512  0.00  0.00    +0.000 C 
BRANCH  23  24
ATOM     24  C   UNL     1       1.807   4.226  19.832  0.00  0.00    +0.000 A 
ATOM     25  C   UNL     1       1.407   3.788  18.562  0.00  0.00    +0.000 A 
ATOM     26  C   UNL     1       2.078   2.736  17.933  0.00  0.00    +0.000 A 
ATOM     27  C   UNL     1       3.158   2.130  18.572  0.00  0.00    +0.000 A 
ATOM     28  F   UNL     1       3.800   1.124  17.960  0.00  0.00    +0.000 F 
ATOM     29  C   UNL     1       3.571   2.564  19.822  0.00  0.00    +0.000 A 
ATOM     30  F   UNL     1       4.614   1.984  20.431  0.00  0.00    +0.000 F 
ATOM     31  C   UNL     1       2.905   3.607  20.457  0.00  0.00    +0.000 A 
ENDBRANCH  23  24
ENDBRANCH  22  23
ENDBRANCH   4  22
TORSDOF 6
ENDMDL
MODEL 3
REMARK VINA RESULT:      -8.0      2.252      2.519
REMARK  Name = 
REMARK  8 active torsions:
REMARK  status: ('A' for Active; 'I' for Inactive)
REMARK    1  A    between atoms: C_1  and  C_2
REMARK    2  A    between atoms: C_2  and  C_3
REMARK    3  A    between atoms: C_6  and  O_7
REMARK    4  A    between atoms: O_7  and  C_8
REMARK    5  A    between atoms: C_8  and  C_9
REMARK    6  A    between atoms: C_21  and  N_22
REMARK    7  A    between atoms: N_22  and  C_23
REMARK    8  A    between atoms: C_24  and  C_26
REMARK                            x       y       z     vdW  Elec       q    Type
REMARK                         _______ _______ _______ _____ _____    ______ ____
ROOT
ATOM      1  C   UNL     1       0.483   9.484  21.670  0.00  0.00    +0.000 A 
ATOM      2  N   UNL     1       1.096   8.296  21.416  0.00  0.00    +0.000 NA
ATOM      3  C   UNL     1       1.500   8.336  20.175  0.00  0.00    +0.000 A 
ATOM      4  C   UNL     1       2.290   7.382  19.450  0.00  0.00    +0.000 A 
ATOM      5  C   UNL     1       2.527   7.586  18.142  0.00  0.00    +0.000 A 
ATOM      6  C   UNL     1       2.072   8.789  17.478  0.00  0.00    +0.000 A 
ATOM      7  C   UNL     1       1.424   9.731  18.187  0.00  0.00    +0.000 A 
ATOM      8  N   UNL     1       1.095   9.519  19.534  0.00  0.00    +0.000 N 
ATOM      9  C   UNL     1       0.463  10.311  20.532  0.00  0.00    +0.000 A 
ENDROOT
BRANCH   9  10
ATOM     10  N   UNL     1       0.005  11.667  20.434  0.00  0.00    +0.000 N 
ATOM     11  C   UNL     1      -1.299  11.930  19.818  0.00  0.00    +0.000 C 
ATOM     12  C   UNL     1       0.833  12.744  20.833  0.00  0.00    +0.000 C 
ATOM     13  O   UNL     1       1.976  12.650  21.281  0.00  0.00    +0.000 OA
BRANCH  12  14
ATOM     14  C   UNL     1       0.368  14.162  20.680  0.00  0.00    +0.000 A 
ATOM     15  C   UNL     1       0.616  14.834  19.480  0.00  0.00    +0.000 A 
ATOM     16  C   UNL     1       0.091  16.107  19.309  0.00  0.00    +0.000 A 
ATOM     17  N   UNL     1      -0.651  16.739  20.252  0.00  0.00    +0.000 NA
ATOM     18  C   UNL     1      -0.910  16.058  21.384  0.00  0.00    +0.000 A 
ATOM     19  C   UNL     1      -0.452  14.769  21.629  0.00  0.00    +0.000 A 
ENDBRANCH  12  14
ENDBRANCH   9  10
BRANCH   1  21
ATOM     20  C   UNL     1      -1.151  10.625  23.211  0.00  0.00    +0.000 C 
ATOM     21  C   UNL     1      -0.035   9.611  23.067  0.00  0.00    +0.000 C 
ENDBRANCH   1  21
BRANCH   4  22
ATOM     22  O   UNL     1       2.838   6.273  20.084  0.00  0.00    +0.000 OA
BRANCH  22  23
ATOM     23  C   UNL     1       2.812   5.049  19.339  0.00  0.00    +0.000 C 
BRANCH  23  24
ATOM     24  C   UNL     1       4.115   4.798  18.607  0.00  0.00    +0.000 A 
ATOM     25  C   UNL     1       4.151   4.254  17.316  0.00  0.00    +0.000 A 
ATOM     26  C   UNL     1       5.366   4.110  16.641  0.00  0.00    +0.000 A 
ATOM     27  C   UNL     1       6.547   4.523  17.256  0.00  0.00    +0.000 A 
ATOM     28  F   UNL     1       7.708   4.387  16.601  0.00  0.00    +0.000 F 
ATOM     29  C   UNL     1       6.522   5.076  18.527  0.00  0.00    +0.000 A 
ATOM     30  F   UNL     1       7.657   5.478  19.114  0.00  0.00    +0.000 F 
ATOM     31  C   UNL     1       5.317   5.216  19.208  0.00  0.00    +0.000 A 
ENDBRANCH  23  24
ENDBRANCH  22  23
ENDBRANCH   4  22
TORSDOF 6
ENDMDL
MODEL 4
REMARK VINA RESULT:      -7.8      2.290      2.620
REMARK  Name = 
REMARK  8 active torsions:
REMARK  status: ('A' for Active; 'I' for Inactive)
REMARK    1  A    between atoms: C_1  and  C_2
REMARK    2  A    between atoms: C_2  and  C_3
REMARK    3  A    between atoms: C_6  and  O_7
REMARK    4  A    between atoms: O_7  and  C_8
REMARK    5  A    between atoms: C_8  and  C_9
REMARK    6  A    between atoms: C_21  and  N_22
REMARK    7  A    between atoms: N_22  and  C_23
REMARK    8  A    between atoms: C_24  and  C_26
REMARK                            x       y       z     vdW  Elec       q    Type
REMARK                         _______ _______ _______ _____ _____    ______ ____
ROOT
ATOM      1  C   UNL     1       0.470   9.614  21.715  0.00  0.00    +0.000 A 
ATOM      2  N   UNL     1       1.036   8.409  21.434  0.00  0.00    +0.000 NA
ATOM      3  C   UNL     1       1.433   8.459  20.190  0.00  0.00    +0.000 A 
ATOM      4  C   UNL     1       2.181   7.492  19.441  0.00  0.00    +0.000 A 
ATOM      5  C   UNL     1       2.417   7.712  18.136  0.00  0.00    +0.000 A 
ATOM      6  C   UNL     1       2.003   8.944  17.498  0.00  0.00    +0.000 A 
ATOM      7  C   UNL     1       1.395   9.896  18.230  0.00  0.00    +0.000 A 
ATOM      8  N   UNL     1       1.068   9.669  19.576  0.00  0.00    +0.000 N 
ATOM      9  C   UNL     1       0.473  10.464  20.593  0.00  0.00    +0.000 A 
ENDROOT
BRANCH   9  10
ATOM     10  N   UNL     1       0.064  11.838  20.526  0.00  0.00    +0.000 N 
ATOM     11  C   UNL     1      -1.251  12.158  19.966  0.00  0.00    +0.000 C 
ATOM     12  C   UNL     1       0.950  12.878  20.900  0.00  0.00    +0.000 C 
ATOM     13  O   UNL     1       2.105  12.735  21.301  0.00  0.00    +0.000 OA
BRANCH  12  14
ATOM     14  C   UNL     1       0.535  14.314  20.778  0.00  0.00    +0.000 A 
ATOM     15  C   UNL     1       0.008  14.968  21.896  0.00  0.00    +0.000 A 
ATOM     16  C   UNL     1      -0.274  16.323  21.803  0.00  0.00    +0.000 A 
ATOM     17  N   UNL     1      -0.070  17.050  20.677  0.00  0.00    +0.000 NA
ATOM     18  C   UNL     1       0.474  16.409  19.625  0.00  0.00    +0.000 A 
ATOM     19  C   UNL     1       0.817  15.063  19.637  0.00  0.00    +0.000 A 
ENDBRANCH  12  14
ENDBRANCH   9  10
BRANCH   1  21
ATOM     20  C   UNL     1      -1.247  10.629  23.254  0.00  0.00    +0.000 C 
ATOM     21  C   UNL     1      -0.034   9.733  23.118  0.00  0.00    +0.000 C 
ENDBRANCH   1  21
BRANCH   4  22
ATOM     22  O   UNL     1       2.692   6.351  20.049  0.00  0.00    +0.000 OA
BRANCH  22  23
ATOM     23  C   UNL     1       2.752   5.177  19.229  0.00  0.00    +0.000 C 
BRANCH  23  24
ATOM     24  C   UNL     1       4.100   5.021  18.552  0.00  0.00    +0.000 A 
ATOM     25  C   UNL     1       5.304   5.262  19.228  0.00  0.00    +0.000 A 
ATOM     26  C   UNL     1       6.529   5.031  18.596  0.00  0.00    +0.000 A 
ATOM     27  C   UNL     1       6.548   4.546  17.289  0.00  0.00    +0.000 A 
ATOM     28  F   UNL     1       7.727   4.323  16.692  0.00  0.00    +0.000 F 
ATOM     29  C   UNL     1       5.363   4.291  16.616  0.00  0.00    +0.000 A 
ATOM     30  F   UNL     1       5.384   3.819  15.363  0.00  0.00    +0.000 F 
ATOM     31  C   UNL     1       4.140   4.524  17.236  0.00  0.00    +0.000 A 
ENDBRANCH  23  24
ENDBRANCH  22  23
ENDBRANCH   4  22
TORSDOF 6
ENDMDL
MODEL 5
REMARK VINA RESULT:      -7.8      1.998      2.059
REMARK  Name = 
REMARK  8 active torsions:
REMARK  status: ('A' for Active; 'I' for Inactive)
REMARK    1  A    between atoms: C_1  and  C_2
REMARK    2  A    between atoms: C_2  and  C_3
REMARK    3  A    between atoms: C_6  and  O_7
REMARK    4  A    between atoms: O_7  and  C_8
REMARK    5  A    between atoms: C_8  and  C_9
REMARK    6  A    between atoms: C_21  and  N_22
REMARK    7  A    between atoms: N_22  and  C_23
REMARK    8  A    between atoms: C_24  and  C_26
REMARK                            x       y       z     vdW  Elec       q    Type
REMARK                         _______ _______ _______ _____ _____    ______ ____
ROOT
ATOM      1  C   UNL     1       0.644   9.563  21.646  0.00  0.00    +0.000 A 
ATOM      2  N   UNL     1       1.099   8.311  21.369  0.00  0.00    +0.000 NA
ATOM      3  C   UNL     1       1.527   8.328  20.135  0.00  0.00    +0.000 A 
ATOM      4  C   UNL     1       2.198   7.297  19.397  0.00  0.00    +0.000 A 
ATOM      5  C   UNL     1       2.484   7.500  18.099  0.00  0.00    +0.000 A 
ATOM      6  C   UNL     1       2.204   8.768  17.461  0.00  0.00    +0.000 A 
ATOM      7  C   UNL     1       1.674   9.771  18.185  0.00  0.00    +0.000 A 
ATOM      8  N   UNL     1       1.295   9.570  19.521  0.00  0.00    +0.000 N 
ATOM      9  C   UNL     1       0.754  10.413  20.530  0.00  0.00    +0.000 A 
ENDROOT
BRANCH   9  10
ATOM     10  N   UNL     1       0.481  11.820  20.463  0.00  0.00    +0.000 N 
ATOM     11  C   UNL     1       1.419  12.754  21.094  0.00  0.00    +0.000 C 
ATOM     12  C   UNL     1      -0.721  12.300  19.888  0.00  0.00    +0.000 C 
ATOM     13  O   UNL     1      -1.620  11.609  19.408  0.00  0.00    +0.000 OA
BRANCH  12  14
ATOM     14  C   UNL     1      -1.024  13.769  19.868  0.00  0.00    +0.000 A 
ATOM     15  C   UNL     1      -1.892  14.298  20.829  0.00  0.00    +0.000 A 
ATOM     16  C   UNL     1      -2.084  15.672  20.867  0.00  0.00    +0.000 A 
ATOM     17  N   UNL     1      -1.475  16.532  20.015  0.00  0.00    +0.000 NA
ATOM     18  C   UNL     1      -0.614  16.005  19.124  0.00  0.00    +0.000 A 
ATOM     19  C   UNL     1      -0.336  14.647  19.033  0.00  0.00    +0.000 A 
ENDBRANCH  12  14
ENDBRANCH   9  10
BRANCH   1  21
ATOM     20  C   UNL     1      -1.127  10.575  23.124  0.00  0.00    +0.000 C 
ATOM     21  C   UNL     1       0.122   9.723  23.038  0.00  0.00    +0.000 C 
ENDBRANCH   1  21
BRANCH   4  22
ATOM     22  O   UNL     1       2.582   6.109  20.009  0.00  0.00    +0.000 OA
BRANCH  22  23
ATOM     23  C   UNL     1       2.624   4.953  19.163  0.00  0.00    +0.000 C 
BRANCH  23  24
ATOM     24  C   UNL     1       3.995   4.740  18.552  0.00  0.00    +0.000 A 
ATOM     25  C   UNL     1       4.162   4.253  17.249  0.00  0.00    +0.000 A 
ATOM     26  C   UNL     1       5.439   4.145  16.691  0.00  0.00    +0.000 A 
ATOM     27  C   UNL     1       6.550   4.537  17.436  0.00  0.00    +0.000 A 
ATOM     28  F   UNL     1       7.771   4.435  16.892  0.00  0.00    +0.000 F 
ATOM     29  C   UNL     1       6.395   5.034  18.721  0.00  0.00    +0.000 A 
ATOM     30  F   UNL     1       7.464   5.418  19.432  0.00  0.00    +0.000 F 
ATOM     31  C   UNL     1       5.128   5.139  19.285  0.00  0.00    +0.000 A 
ENDBRANCH  23  24
ENDBRANCH  22  23
ENDBRANCH   4  22
TORSDOF 6
ENDMDL
MODEL 6
REMARK VINA RESULT:      -7.8      1.258      1.649
REMARK  Name = 
REMARK  8 active torsions:
REMARK  status: ('A' for Active; 'I' for Inactive)
REMARK    1  A    between atoms: C_1  and  C_2
REMARK    2  A    between atoms: C_2  and  C_3
REMARK    3  A    between atoms: C_6  and  O_7
REMARK    4  A    between atoms: O_7  and  C_8
REMARK    5  A    between atoms: C_8  and  C_9
REMARK    6  A    between atoms: C_21  and  N_22
REMARK    7  A    between atoms: N_22  and  C_23
REMARK    8  A    between atoms: C_24  and  C_26
REMARK                            x       y       z     vdW  Elec       q    Type
REMARK                         _______ _______ _______ _____ _____    ______ ____
ROOT
ATOM      1  C   UNL     1       0.111  10.090  21.715  0.00  0.00    +0.000 A 
ATOM      2  N   UNL     1       0.640   8.844  21.582  0.00  0.00    +0.000 NA
ATOM      3  C   UNL     1       1.160   8.779  20.385  0.00  0.00    +0.000 A 
ATOM      4  C   UNL     1       1.929   7.725  19.789  0.00  0.00    +0.000 A 
ATOM      5  C   UNL     1       2.304   7.833  18.502  0.00  0.00    +0.000 A 
ATOM      6  C   UNL     1       2.018   9.029  17.738  0.00  0.00    +0.000 A 
ATOM      7  C   UNL     1       1.390  10.060  18.332  0.00  0.00    +0.000 A 
ATOM      8  N   UNL     1       0.920   9.952  19.650  0.00  0.00    +0.000 N 
ATOM      9  C   UNL     1       0.268  10.849  20.540  0.00  0.00    +0.000 A 
ENDROOT
BRANCH   9  10
ATOM     10  N   UNL     1      -0.062  12.230  20.332  0.00  0.00    +0.000 N 
ATOM     11  C   UNL     1      -1.300  12.562  19.622  0.00  0.00    +0.000 C 
ATOM     12  C   UNL     1       0.836  13.256  20.713  0.00  0.00    +0.000 C 
ATOM     13  O   UNL     1       1.939  13.095  21.235  0.00  0.00    +0.000 OA
BRANCH  12  14
ATOM     14  C   UNL     1       0.508  14.695  20.444  0.00  0.00    +0.000 A 
ATOM     15  C   UNL     1       0.839  15.249  19.204  0.00  0.00    +0.000 A 
ATOM     16  C   UNL     1       0.439  16.549  18.927  0.00  0.00    +0.000 A 
ATOM     17  N   UNL     1      -0.256  17.315  19.803  0.00  0.00    +0.000 NA
ATOM     18  C   UNL     1      -0.597  16.749  20.975  0.00  0.00    +0.000 A 
ATOM     19  C   UNL     1      -0.267  15.446  21.326  0.00  0.00    +0.000 A 
ENDBRANCH  12  14
ENDBRANCH   9  10
BRANCH   1  21
ATOM     20  C   UNL     1      -1.636  11.364  23.007  0.00  0.00    +0.000 C 
ATOM     21  C   UNL     1      -0.523  10.339  23.046  0.00  0.00    +0.000 C 
ENDBRANCH   1  21
BRANCH   4  22
ATOM     22  O   UNL     1       2.318   6.614  20.528  0.00  0.00    +0.000 OA
BRANCH  22  23
ATOM     23  C   UNL     1       1.397   5.516  20.540  0.00  0.00    +0.000 C 
BRANCH  23  24
ATOM     24  C   UNL     1       2.010   4.250  19.973  0.00  0.00    +0.000 A 
ATOM     25  C   UNL     1       1.328   3.026  19.979  0.00  0.00    +0.000 A 
ATOM     26  C   UNL     1       1.892   1.898  19.376  0.00  0.00    +0.000 A 
ATOM     27  C   UNL     1       3.136   2.000  18.755  0.00  0.00    +0.000 A 
ATOM     28  F   UNL     1       3.668   0.915  18.175  0.00  0.00    +0.000 F 
ATOM     29  C   UNL     1       3.813   3.209  18.731  0.00  0.00    +0.000 A 
ATOM     30  F   UNL     1       5.006   3.306  18.129  0.00  0.00    +0.000 F 
ATOM     31  C   UNL     1       3.261   4.335  19.334  0.00  0.00    +0.000 A 
ENDBRANCH  23  24
ENDBRANCH  22  23
ENDBRANCH   4  22
TORSDOF 6
ENDMDL
MODEL 7
REMARK VINA RESULT:      -7.7      1.945      2.392
REMARK  Name = 
REMARK  8 active torsions:
REMARK  status: ('A' for Active; 'I' for Inactive)
REMARK    1  A    between atoms: C_1  and  C_2
REMARK    2  A    between atoms: C_2  and  C_3
REMARK    3  A    between atoms: C_6  and  O_7
REMARK    4  A    between atoms: O_7  and  C_8
REMARK    5  A    between atoms: C_8  and  C_9
REMARK    6  A    between atoms: C_21  and  N_22
REMARK    7  A    between atoms: N_22  and  C_23
REMARK    8  A    between atoms: C_24  and  C_26
REMARK                            x       y       z     vdW  Elec       q    Type
REMARK                         _______ _______ _______ _____ _____    ______ ____
ROOT
ATOM      1  C   UNL     1       0.589   9.688  21.653  0.00  0.00    +0.000 A 
ATOM      2  N   UNL     1       1.003   8.423  21.367  0.00  0.00    +0.000 NA
ATOM      3  C   UNL     1       1.462   8.443  20.145  0.00  0.00    +0.000 A 
ATOM      4  C   UNL     1       2.111   7.398  19.406  0.00  0.00    +0.000 A 
ATOM      5  C   UNL     1       2.438   7.610  18.119  0.00  0.00    +0.000 A 
ATOM      6  C   UNL     1       2.222   8.898  17.495  0.00  0.00    +0.000 A 
ATOM      7  C   UNL     1       1.712   9.909  18.222  0.00  0.00    +0.000 A 
ATOM      8  N   UNL     1       1.292   9.702  19.545  0.00  0.00    +0.000 N 
ATOM      9  C   UNL     1       0.759  10.551  20.554  0.00  0.00    +0.000 A 
ENDROOT
BRANCH   9  10
ATOM     10  N   UNL     1       0.541  11.968  20.503  0.00  0.00    +0.000 N 
ATOM     11  C   UNL     1       1.495  12.855  21.175  0.00  0.00    +0.000 C 
ATOM     12  C   UNL     1      -0.625  12.502  19.903  0.00  0.00    +0.000 C 
ATOM     13  O   UNL     1      -1.535  11.853  19.386  0.00  0.00    +0.000 OA
BRANCH  12  14
ATOM     14  C   UNL     1      -0.872  13.982  19.899  0.00  0.00    +0.000 A 
ATOM     15  C   UNL     1      -0.269  14.770  18.915  0.00  0.00    +0.000 A 
ATOM     16  C   UNL     1      -0.587  16.120  18.856  0.00  0.00    +0.000 A 
ATOM     17  N   UNL     1      -1.452  16.718  19.711  0.00  0.00    +0.000 NA
ATOM     18  C   UNL     1      -2.049  15.933  20.627  0.00  0.00    +0.000 A 
ATOM     19  C   UNL     1      -1.816  14.568  20.740  0.00  0.00    +0.000 A 
ENDBRANCH  12  14
ENDBRANCH   9  10
BRANCH   1  21
ATOM     20  C   UNL     1      -1.185  10.737  23.102  0.00  0.00    +0.000 C 
ATOM     21  C   UNL     1       0.038   9.846  23.034  0.00  0.00    +0.000 C 
ENDBRANCH   1  21
BRANCH   4  22
ATOM     22  O   UNL     1       2.435   6.188  20.008  0.00  0.00    +0.000 OA
BRANCH  22  23
ATOM     23  C   UNL     1       2.550   5.062  19.129  0.00  0.00    +0.000 C 
BRANCH  23  24
ATOM     24  C   UNL     1       3.942   4.938  18.538  0.00  0.00    +0.000 A 
ATOM     25  C   UNL     1       5.094   5.213  19.285  0.00  0.00    +0.000 A 
ATOM     26  C   UNL     1       6.362   5.012  18.732  0.00  0.00    +0.000 A 
ATOM     27  C   UNL     1       6.474   4.522  17.432  0.00  0.00    +0.000 A 
ATOM     28  F   UNL     1       7.693   4.327  16.909  0.00  0.00    +0.000 F 
ATOM     29  C   UNL     1       5.340   4.233  16.688  0.00  0.00    +0.000 A 
ATOM     30  F   UNL     1       5.451   3.757  15.441  0.00  0.00    +0.000 F 
ATOM     31  C   UNL     1       4.075   4.437  17.230  0.00  0.00    +0.000 A 
ENDBRANCH  23  24
ENDBRANCH  22  23
ENDBRANCH   4  22
TORSDOF 6
ENDMDL
MODEL 8
REMARK VINA RESULT:      -7.6      1.457      2.168
REMARK  Name = 
REMARK  8 active torsions:
REMARK  status: ('A' for Active; 'I' for Inactive)
REMARK    1  A    between atoms: C_1  and  C_2
REMARK    2  A    between atoms: C_2  and  C_3
REMARK    3  A    between atoms: C_6  and  O_7
REMARK    4  A    between atoms: O_7  and  C_8
REMARK    5  A    between atoms: C_8  and  C_9
REMARK    6  A    between atoms: C_21  and  N_22
REMARK    7  A    between atoms: N_22  and  C_23
REMARK    8  A    between atoms: C_24  and  C_26
REMARK                            x       y       z     vdW  Elec       q    Type
REMARK                         _______ _______ _______ _____ _____    ______ ____
ROOT
ATOM      1  C   UNL     1       0.154  10.421  21.063  0.00  0.00    +0.000 A 
ATOM      2  N   UNL     1       0.488   9.105  21.153  0.00  0.00    +0.000 NA
ATOM      3  C   UNL     1       1.194   8.820  20.091  0.00  0.00    +0.000 A 
ATOM      4  C   UNL     1       1.874   7.602  19.759  0.00  0.00    +0.000 A 
ATOM      5  C   UNL     1       2.483   7.495  18.565  0.00  0.00    +0.000 A 
ATOM      6  C   UNL     1       2.536   8.616  17.649  0.00  0.00    +0.000 A 
ATOM      7  C   UNL     1       1.989   9.791  18.010  0.00  0.00    +0.000 A 
ATOM      8  N   UNL     1       1.282   9.915  19.216  0.00  0.00    +0.000 N 
ATOM      9  C   UNL     1       0.638  10.999  19.874  0.00  0.00    +0.000 A 
ENDROOT
BRANCH   9  10
ATOM     10  N   UNL     1       0.580  12.376  19.476  0.00  0.00    +0.000 N 
ATOM     11  C   UNL     1      -0.319  12.760  18.384  0.00  0.00    +0.000 C 
ATOM     12  C   UNL     1       1.446  13.336  20.054  0.00  0.00    +0.000 C 
ATOM     13  O   UNL     1       2.300  13.116  20.913  0.00  0.00    +0.000 OA
BRANCH  12  14
ATOM     14  C   UNL     1       1.417  14.764  19.596  0.00  0.00    +0.000 A 
ATOM     15  C   UNL     1       2.349  15.194  18.646  0.00  0.00    +0.000 A 
ATOM     16  C   UNL     1       2.247  16.486  18.151  0.00  0.00    +0.000 A 
ATOM     17  N   UNL     1       1.290  17.361  18.546  0.00  0.00    +0.000 NA
ATOM     18  C   UNL     1       0.380  16.914  19.432  0.00  0.00    +0.000 A 
ATOM     19  C   UNL     1       0.385  15.628  19.958  0.00  0.00    +0.000 A 
ENDBRANCH  12  14
ENDBRANCH   9  10
BRANCH   1  21
ATOM     20  C   UNL     1      -0.696   9.964  23.390  0.00  0.00    +0.000 C 
ATOM     21  C   UNL     1      -0.656  10.920  22.216  0.00  0.00    +0.000 C 
ENDBRANCH   1  21
BRANCH   4  22
ATOM     22  O   UNL     1       1.939   6.546  20.661  0.00  0.00    +0.000 OA
BRANCH  22  23
ATOM     23  C   UNL     1       1.117   5.412  20.359  0.00  0.00    +0.000 C 
BRANCH  23  24
ATOM     24  C   UNL     1       1.933   4.224  19.886  0.00  0.00    +0.000 A 
ATOM     25  C   UNL     1       2.744   3.485  20.757  0.00  0.00    +0.000 A 
ATOM     26  C   UNL     1       3.419   2.348  20.303  0.00  0.00    +0.000 A 
ATOM     27  C   UNL     1       3.272   1.946  18.977  0.00  0.00    +0.000 A 
ATOM     28  F   UNL     1       3.920   0.852  18.550  0.00  0.00    +0.000 F 
ATOM     29  C   UNL     1       2.462   2.662  18.110  0.00  0.00    +0.000 A 
ATOM     30  F   UNL     1       2.317   2.269  16.837  0.00  0.00    +0.000 F 
ATOM     31  C   UNL     1       1.791   3.797  18.553  0.00  0.00    +0.000 A 
ENDBRANCH  23  24
ENDBRANCH  22  23
ENDBRANCH   4  22
TORSDOF 6
ENDMDL
MODEL 9
REMARK VINA RESULT:      -7.6      1.266      1.670
REMARK  Name = 
REMARK  8 active torsions:
REMARK  status: ('A' for Active; 'I' for Inactive)
REMARK    1  A    between atoms: C_1  and  C_2
REMARK    2  A    between atoms: C_2  and  C_3
REMARK    3  A    between atoms: C_6  and  O_7
REMARK    4  A    between atoms: O_7  and  C_8
REMARK    5  A    between atoms: C_8  and  C_9
REMARK    6  A    between atoms: C_21  and  N_22
REMARK    7  A    between atoms: N_22  and  C_23
REMARK    8  A    between atoms: C_24  and  C_26
REMARK                            x       y       z     vdW  Elec       q    Type
REMARK                         _______ _______ _______ _____ _____    ______ ____
ROOT
ATOM      1  C   UNL     1      -0.130  10.135  21.757  0.00  0.00    +0.000 A 
ATOM      2  N   UNL     1       0.526   8.949  21.643  0.00  0.00    +0.000 NA
ATOM      3  C   UNL     1       1.035   8.912  20.440  0.00  0.00    +0.000 A 
ATOM      4  C   UNL     1       1.904   7.931  19.856  0.00  0.00    +0.000 A 
ATOM      5  C   UNL     1       2.249   8.049  18.562  0.00  0.00    +0.000 A 
ATOM      6  C   UNL     1       1.828   9.189  17.775  0.00  0.00    +0.000 A 
ATOM      7  C   UNL     1       1.102  10.162  18.357  0.00  0.00    +0.000 A 
ATOM      8  N   UNL     1       0.663  10.036  19.684  0.00  0.00    +0.000 N 
ATOM      9  C   UNL     1      -0.069  10.879  20.564  0.00  0.00    +0.000 A 
ENDROOT
BRANCH   9  10
ATOM     10  N   UNL     1      -0.545  12.212  20.330  0.00  0.00    +0.000 N 
ATOM     11  C   UNL     1      -1.794  12.397  19.585  0.00  0.00    +0.000 C 
ATOM     12  C   UNL     1       0.222  13.337  20.722  0.00  0.00    +0.000 C 
ATOM     13  O   UNL     1       1.322  13.305  21.274  0.00  0.00    +0.000 OA
BRANCH  12  14
ATOM     14  C   UNL     1      -0.258  14.727  20.428  0.00  0.00    +0.000 A 
ATOM     15  C   UNL     1      -0.969  15.424  21.409  0.00  0.00    +0.000 A 
ATOM     16  C   UNL     1      -1.316  16.746  21.168  0.00  0.00    +0.000 A 
ATOM     17  N   UNL     1      -1.005  17.399  20.021  0.00  0.00    +0.000 NA
ATOM     18  C   UNL     1      -0.287  16.721  19.106  0.00  0.00    +0.000 A 
ATOM     19  C   UNL     1       0.131  15.407  19.275  0.00  0.00    +0.000 A 
ENDBRANCH  12  14
ENDBRANCH   9  10
BRANCH   1  21
ATOM     20  C   UNL     1      -1.772  11.482  23.112  0.00  0.00    +0.000 C 
ATOM     21  C   UNL     1      -0.769  10.347  23.092  0.00  0.00    +0.000 C 
ENDBRANCH   1  21
BRANCH   4  22
ATOM     22  O   UNL     1       2.417   6.885  20.613  0.00  0.00    +0.000 OA
BRANCH  22  23
ATOM     23  C   UNL     1       1.571   5.736  20.749  0.00  0.00    +0.000 C 
BRANCH  23  24
ATOM     24  C   UNL     1       2.073   4.557  19.938  0.00  0.00    +0.000 A 
ATOM     25  C   UNL     1       3.432   4.374  19.653  0.00  0.00    +0.000 A 
ATOM     26  C   UNL     1       3.866   3.234  18.971  0.00  0.00    +0.000 A 
ATOM     27  C   UNL     1       2.937   2.270  18.583  0.00  0.00    +0.000 A 
ATOM     28  F   UNL     1       3.361   1.178  17.933  0.00  0.00    +0.000 F 
ATOM     29  C   UNL     1       1.591   2.435  18.871  0.00  0.00    +0.000 A 
ATOM     30  F   UNL     1       0.701   1.503  18.503  0.00  0.00    +0.000 F 
ATOM     31  C   UNL     1       1.151   3.569  19.545  0.00  0.00    +0.000 A 
ENDBRANCH  23  24
ENDBRANCH  22  23
ENDBRANCH   4  22
TORSDOF 6
ENDMDL
