MODEL 1
REMARK VINA RESULT:      -7.6      0.000      0.000
REMARK  Name = 
REMARK  11 active torsions:
REMARK  status: ('A' for Active; 'I' for Inactive)
REMARK    1  A    between atoms: C_2  and  C_3
REMARK    2  A    between atoms: C_3  and  C_4
REMARK    3  A    between atoms: C_6  and  C_7
REMARK    4  A    between atoms: C_7  and  C_8
REMARK    5  A    between atoms: C_8  and  C_9
REMARK    6  A    between atoms: C_9  and  O_11
REMARK    7  A    between atoms: O_11  and  C_12
REMARK    8  A    between atoms: C_12  and  C_13
REMARK    9  A    between atoms: C_16  and  C_17
REMARK   10  A    between atoms: C_18  and  C_19
REMARK   11  A    between atoms: C_19  and  O_20
REMARK                            x       y       z     vdW  Elec       q    Type
REMARK                         _______ _______ _______ _____ _____    ______ ____
ROOT
ATOM      1  C   UNL     1       2.557   5.708  19.259  0.00  0.00    +0.000 A 
ATOM      2  C   UNL     1       3.345   4.715  18.643  0.00  0.00    +0.000 A 
ATOM      3  C   UNL     1       4.179   5.007  17.555  0.00  0.00    +0.000 A 
ATOM      4  C   UNL     1       4.196   6.314  17.055  0.00  0.00    +0.000 A 
ATOM      5  C   UNL     1       3.414   7.312  17.647  0.00  0.00    +0.000 A 
ATOM      6  C   UNL     1       2.605   7.023  18.755  0.00  0.00    +0.000 A 
ENDROOT
BRANCH   6   7
ATOM      7  C   UNL     1       1.878   8.096  19.358  0.00  0.00    +0.000 C 
ATOM      8  C   UNL     1       1.157   9.040  19.898  0.00  0.00    +0.000 C 
BRANCH   8   9
ATOM      9  C   UNL     1       0.318  10.139  20.527  0.00  0.00    +0.000 C 
ATOM     10  C   UNL     1      -0.845  10.442  19.511  0.00  0.00    +0.000 C 
ATOM     11  N   UNL     1      -1.050  11.898  19.290  0.00  0.00    +0.000 NA
ATOM     12  C   UNL     1      -1.346  12.513  20.598  0.00  0.00    +0.000 C 
ATOM     13  C   UNL     1      -0.180  12.332  21.590  0.00  0.00    +0.000 C 
ATOM     14  C   UNL     1       0.947  11.474  20.938  0.00  0.00    +0.000 C 
ATOM     15  C   UNL     1       1.401  12.255  19.698  0.00  0.00    +0.000 C 
ATOM     16  C   UNL     1       0.206  12.469  18.753  0.00  0.00    +0.000 C 
BRANCH   9  17
ATOM     17  O   UNL     1      -0.248   9.561  21.719  0.00  0.00    +0.000 OA
ATOM     18  H   UNL     1      -1.212   9.522  21.594  0.00  0.00    +0.000 HD
ENDBRANCH   9  17
ENDBRANCH   8   9
ENDBRANCH   6   7
BRANCH   1  19
ATOM     19  C   UNL     1       1.732   5.335  20.473  0.00  0.00    +0.000 C 
BRANCH  19  21
ATOM     20  C   UNL     1       1.294   2.960  21.201  0.00  0.00    +0.000 C 
ATOM     21  C   UNL     1       1.087   3.980  20.352  0.00  0.00    +0.000 C 
ENDBRANCH  19  21
ENDBRANCH   1  19
BRANCH   3  22
ATOM     22  C   UNL     1       5.117   3.967  16.993  0.00  0.00    +0.000 C 
BRANCH  22  23
ATOM     23  C   UNL     1       6.344   4.542  16.284  0.00  0.00    +0.000 C 
BRANCH  23  24
ATOM     24  C   UNL     1       7.380   4.995  17.285  0.00  0.00    +0.000 C 
ATOM     25  O   UNL     1       7.779   4.343  18.239  0.00  0.00    +0.000 OA
BRANCH  24  26
ATOM     26  O   UNL     1       7.719   6.288  17.017  0.00  0.00    +0.000 OA
BRANCH  26  27
ATOM     27  C   UNL     1       7.848   7.131  18.170  0.00  0.00    +0.000 C 
ATOM     28  C   UNL     1       7.817   8.571  17.686  0.00  0.00    +0.000 C 
ENDBRANCH  26  27
ENDBRANCH  24  26
ENDBRANCH  23  24
ENDBRANCH  22  23
ENDBRANCH   3  22
TORSDOF 10
ENDMDL
MODEL 2
REMARK VINA RESULT:      -7.5      0.874      1.173
REMARK  Name = 
REMARK  11 active torsions:
REMARK  status: ('A' for Active; 'I' for Inactive)
REMARK    1  A    between atoms: C_2  and  C_3
REMARK    2  A    between atoms: C_3  and  C_4
REMARK    3  A    between atoms: C_6  and  C_7
REMARK    4  A    between atoms: C_7  and  C_8
REMARK    5  A    between atoms: C_8  and  C_9
REMARK    6  A    between atoms: C_9  and  O_11
REMARK    7  A    between atoms: O_11  and  C_12
REMARK    8  A    between atoms: C_12  and  C_13
REMARK    9  A    between atoms: C_16  and  C_17
REMARK   10  A    between atoms: C_18  and  C_19
REMARK   11  A    between atoms: C_19  and  O_20
REMARK                            x       y       z     vdW  Elec       q    Type
REMARK                         _______ _______ _______ _____ _____    ______ ____
ROOT
ATOM      1  C   UNL     1       2.503   5.911  19.263  0.00  0.00    +0.000 A 
ATOM      2  C   UNL     1       3.257   4.927  18.590  0.00  0.00    +0.000 A 
ATOM      3  C   UNL     1       4.056   5.243  17.482  0.00  0.00    +0.000 A 
ATOM      4  C   UNL     1       4.072   6.564  17.021  0.00  0.00    +0.000 A 
ATOM      5  C   UNL     1       3.323   7.552  17.668  0.00  0.00    +0.000 A 
ATOM      6  C   UNL     1       2.550   7.239  18.795  0.00  0.00    +0.000 A 
ENDROOT
BRANCH   6   7
ATOM      7  C   UNL     1       1.857   8.302  19.455  0.00  0.00    +0.000 C 
ATOM      8  C   UNL     1       1.276   9.314  20.036  0.00  0.00    +0.000 C 
BRANCH   8   9
ATOM      9  C   UNL     1       0.597  10.493  20.713  0.00  0.00    +0.000 C 
ATOM     10  C   UNL     1      -0.917  10.436  20.285  0.00  0.00    +0.000 C 
ATOM     11  N   UNL     1      -1.446  11.760  19.862  0.00  0.00    +0.000 NA
ATOM     12  C   UNL     1      -1.272  12.693  20.993  0.00  0.00    +0.000 C 
ATOM     13  C   UNL     1       0.212  12.862  21.371  0.00  0.00    +0.000 C 
ATOM     14  C   UNL     1       1.097  11.924  20.492  0.00  0.00    +0.000 C 
ATOM     15  C   UNL     1       0.851  12.358  19.042  0.00  0.00    +0.000 C 
ATOM     16  C   UNL     1      -0.647  12.233  18.710  0.00  0.00    +0.000 C 
BRANCH   9  17
ATOM     17  O   UNL     1       0.687  10.233  22.127  0.00  0.00    +0.000 OA
ATOM     18  H   UNL     1      -0.112  10.602  22.543  0.00  0.00    +0.000 HD
ENDBRANCH   9  17
ENDBRANCH   8   9
ENDBRANCH   6   7
BRANCH   1  19
ATOM     19  C   UNL     1       1.717   5.511  20.493  0.00  0.00    +0.000 C 
BRANCH  19  21
ATOM     20  C   UNL     1       1.362   3.116  21.204  0.00  0.00    +0.000 C 
ATOM     21  C   UNL     1       1.099   4.142  20.377  0.00  0.00    +0.000 C 
ENDBRANCH  19  21
ENDBRANCH   1  19
BRANCH   3  22
ATOM     22  C   UNL     1       4.962   4.210  16.858  0.00  0.00    +0.000 C 
BRANCH  22  23
ATOM     23  C   UNL     1       5.536   4.614  15.499  0.00  0.00    +0.000 C 
BRANCH  23  24
ATOM     24  C   UNL     1       6.978   5.044  15.632  0.00  0.00    +0.000 C 
ATOM     25  O   UNL     1       7.706   5.381  14.710  0.00  0.00    +0.000 OA
BRANCH  24  26
ATOM     26  O   UNL     1       7.367   4.892  16.930  0.00  0.00    +0.000 OA
BRANCH  26  27
ATOM     27  C   UNL     1       7.619   6.116  17.632  0.00  0.00    +0.000 C 
ATOM     28  C   UNL     1       7.697   5.783  19.113  0.00  0.00    +0.000 C 
ENDBRANCH  26  27
ENDBRANCH  24  26
ENDBRANCH  23  24
ENDBRANCH  22  23
ENDBRANCH   3  22
TORSDOF 10
ENDMDL
MODEL 3
REMARK VINA RESULT:      -7.3      2.021      2.995
REMARK  Name = 
REMARK  11 active torsions:
REMARK  status: ('A' for Active; 'I' for Inactive)
REMARK    1  A    between atoms: C_2  and  C_3
REMARK    2  A    between atoms: C_3  and  C_4
REMARK    3  A    between atoms: C_6  and  C_7
REMARK    4  A    between atoms: C_7  and  C_8
REMARK    5  A    between atoms: C_8  and  C_9
REMARK    6  A    between atoms: C_9  and  O_11
REMARK    7  A    between atoms: O_11  and  C_12
REMARK    8  A    between atoms: C_12  and  C_13
REMARK    9  A    between atoms: C_16  and  C_17
REMARK   10  A    between atoms: C_18  and  C_19
REMARK   11  A    between atoms: C_19  and  O_20
REMARK                            x       y       z     vdW  Elec       q    Type
REMARK                         _______ _______ _______ _____ _____    ______ ____
ROOT
ATOM      1  C   UNL     1       2.998   5.753  18.413  0.00  0.00    +0.000 A 
ATOM      2  C   UNL     1       3.876   4.760  17.933  0.00  0.00    +0.000 A 
ATOM      3  C   UNL     1       4.830   5.037  16.943  0.00  0.00    +0.000 A 
ATOM      4  C   UNL     1       4.880   6.327  16.403  0.00  0.00    +0.000 A 
ATOM      5  C   UNL     1       4.011   7.324  16.859  0.00  0.00    +0.000 A 
ATOM      6  C   UNL     1       3.080   7.050  17.871  0.00  0.00    +0.000 A 
ENDROOT
BRANCH   6   7
ATOM      7  C   UNL     1       2.262   8.125  18.343  0.00  0.00    +0.000 C 
ATOM      8  C   UNL     1       1.521   9.133  18.711  0.00  0.00    +0.000 C 
BRANCH   8   9
ATOM      9  C   UNL     1       0.657  10.307  19.141  0.00  0.00    +0.000 C 
ATOM     10  C   UNL     1       1.558  11.199  20.073  0.00  0.00    +0.000 C 
ATOM     11  N   UNL     1       0.859  11.622  21.316  0.00  0.00    +0.000 NA
ATOM     12  C   UNL     1      -0.353  12.365  20.917  0.00  0.00    +0.000 C 
ATOM     13  C   UNL     1      -1.315  11.487  20.093  0.00  0.00    +0.000 C 
ATOM     14  C   UNL     1      -0.682  10.083  19.851  0.00  0.00    +0.000 C 
ATOM     15  C   UNL     1      -0.454   9.483  21.244  0.00  0.00    +0.000 C 
ATOM     16  C   UNL     1       0.464  10.407  22.064  0.00  0.00    +0.000 C 
BRANCH   9  17
ATOM     17  O   UNL     1       0.372  11.040  17.934  0.00  0.00    +0.000 OA
ATOM     18  H   UNL     1       1.222  11.329  17.561  0.00  0.00    +0.000 HD
ENDBRANCH   9  17
ENDBRANCH   8   9
ENDBRANCH   6   7
BRANCH   1  19
ATOM     19  C   UNL     1       2.039   5.399  19.530  0.00  0.00    +0.000 C 
BRANCH  19  21
ATOM     20  C   UNL     1       1.484   3.031  20.202  0.00  0.00    +0.000 C 
ATOM     21  C   UNL     1       1.384   4.057  19.340  0.00  0.00    +0.000 C 
ENDBRANCH  19  21
ENDBRANCH   1  19
BRANCH   3  22
ATOM     22  C   UNL     1       5.851   4.003  16.537  0.00  0.00    +0.000 C 
BRANCH  22  23
ATOM     23  C   UNL     1       7.187   4.586  16.072  0.00  0.00    +0.000 C 
BRANCH  23  24
ATOM     24  C   UNL     1       7.200   4.770  14.573  0.00  0.00    +0.000 C 
ATOM     25  O   UNL     1       7.867   5.593  13.964  0.00  0.00    +0.000 OA
BRANCH  24  26
ATOM     26  O   UNL     1       6.268   3.943  14.018  0.00  0.00    +0.000 OA
BRANCH  26  27
ATOM     27  C   UNL     1       6.496   3.613  12.641  0.00  0.00    +0.000 C 
ATOM     28  C   UNL     1       5.152   3.247  12.033  0.00  0.00    +0.000 C 
ENDBRANCH  26  27
ENDBRANCH  24  26
ENDBRANCH  23  24
ENDBRANCH  22  23
ENDBRANCH   3  22
TORSDOF 10
ENDMDL
MODEL 4
REMARK VINA RESULT:      -7.3      1.432      2.285
REMARK  Name = 
REMARK  11 active torsions:
REMARK  status: ('A' for Active; 'I' for Inactive)
REMARK    1  A    between atoms: C_2  and  C_3
REMARK    2  A    between atoms: C_3  and  C_4
REMARK    3  A    between atoms: C_6  and  C_7
REMARK    4  A    between atoms: C_7  and  C_8
REMARK    5  A    between atoms: C_8  and  C_9
REMARK    6  A    between atoms: C_9  and  O_11
REMARK    7  A    between atoms: O_11  and  C_12
REMARK    8  A    between atoms: C_12  and  C_13
REMARK    9  A    between atoms: C_16  and  C_17
REMARK   10  A    between atoms: C_18  and  C_19
REMARK   11  A    between atoms: C_19  and  O_20
REMARK                            x       y       z     vdW  Elec       q    Type
REMARK                         _______ _______ _______ _____ _____    ______ ____
ROOT
ATOM      1  C   UNL     1       2.641   5.880  19.294  0.00  0.00    +0.000 A 
ATOM      2  C   UNL     1       3.542   4.961  18.717  0.00  0.00    +0.000 A 
ATOM      3  C   UNL     1       4.399   5.329  17.670  0.00  0.00    +0.000 A 
ATOM      4  C   UNL     1       4.325   6.635  17.171  0.00  0.00    +0.000 A 
ATOM      5  C   UNL     1       3.430   7.558  17.723  0.00  0.00    +0.000 A 
ATOM      6  C   UNL     1       2.598   7.195  18.791  0.00  0.00    +0.000 A 
ENDROOT
BRANCH   6   7
ATOM      7  C   UNL     1       1.751   8.198  19.358  0.00  0.00    +0.000 C 
ATOM      8  C   UNL     1       1.033   9.138  19.908  0.00  0.00    +0.000 C 
BRANCH   8   9
ATOM      9  C   UNL     1       0.197  10.232  20.549  0.00  0.00    +0.000 C 
ATOM     10  C   UNL     1      -0.941  10.579  19.517  0.00  0.00    +0.000 C 
ATOM     11  N   UNL     1      -1.121  12.043  19.330  0.00  0.00    +0.000 NA
ATOM     12  C   UNL     1      -1.435  12.627  20.648  0.00  0.00    +0.000 C 
ATOM     13  C   UNL     1      -0.294  12.404  21.659  0.00  0.00    +0.000 C 
ATOM     14  C   UNL     1       0.835  11.547  21.008  0.00  0.00    +0.000 C 
ATOM     15  C   UNL     1       1.326  12.353  19.799  0.00  0.00    +0.000 C 
ATOM     16  C   UNL     1       0.154  12.609  18.835  0.00  0.00    +0.000 C 
BRANCH   9  17
ATOM     17  O   UNL     1      -0.404   9.631  21.713  0.00  0.00    +0.000 OA
ATOM     18  H   UNL     1      -1.352   9.521  21.527  0.00  0.00    +0.000 HD
ENDBRANCH   9  17
ENDBRANCH   8   9
ENDBRANCH   6   7
BRANCH   1  19
ATOM     19  C   UNL     1       1.795   5.431  20.467  0.00  0.00    +0.000 C 
BRANCH  19  21
ATOM     20  C   UNL     1       1.381   3.061  21.224  0.00  0.00    +0.000 C 
ATOM     21  C   UNL     1       2.214   4.093  21.017  0.00  0.00    +0.000 C 
ENDBRANCH  19  21
ENDBRANCH   1  19
BRANCH   3  22
ATOM     22  C   UNL     1       5.451   4.378  17.155  0.00  0.00    +0.000 C 
BRANCH  22  23
ATOM     23  C   UNL     1       5.467   4.219  15.634  0.00  0.00    +0.000 C 
BRANCH  23  24
ATOM     24  C   UNL     1       6.743   4.774  15.049  0.00  0.00    +0.000 C 
ATOM     25  O   UNL     1       7.484   5.579  15.595  0.00  0.00    +0.000 OA
BRANCH  24  26
ATOM     26  O   UNL     1       6.881   4.316  13.772  0.00  0.00    +0.000 OA
BRANCH  26  27
ATOM     27  C   UNL     1       5.675   3.822  13.174  0.00  0.00    +0.000 C 
ATOM     28  C   UNL     1       6.075   2.982  11.972  0.00  0.00    +0.000 C 
ENDBRANCH  26  27
ENDBRANCH  24  26
ENDBRANCH  23  24
ENDBRANCH  22  23
ENDBRANCH   3  22
TORSDOF 10
ENDMDL
MODEL 5
REMARK VINA RESULT:      -7.2      3.492      9.386
REMARK  Name = 
REMARK  11 active torsions:
REMARK  status: ('A' for Active; 'I' for Inactive)
REMARK    1  A    between atoms: C_2  and  C_3
REMARK    2  A    between atoms: C_3  and  C_4
REMARK    3  A    between atoms: C_6  and  C_7
REMARK    4  A    between atoms: C_7  and  C_8
REMARK    5  A    between atoms: C_8  and  C_9
REMARK    6  A    between atoms: C_9  and  O_11
REMARK    7  A    between atoms: O_11  and  C_12
REMARK    8  A    between atoms: C_12  and  C_13
REMARK    9  A    between atoms: C_16  and  C_17
REMARK   10  A    between atoms: C_18  and  C_19
REMARK   11  A    between atoms: C_19  and  O_20
REMARK                            x       y       z     vdW  Elec       q    Type
REMARK                         _______ _______ _______ _____ _____    ______ ____
ROOT
ATOM      1  C   UNL     1       0.550   9.960  20.476  0.00  0.00    +0.000 A 
ATOM      2  C   UNL     1      -0.126  11.102  20.953  0.00  0.00    +0.000 A 
ATOM      3  C   UNL     1      -0.761  11.113  22.203  0.00  0.00    +0.000 A 
ATOM      4  C   UNL     1      -0.745   9.944  22.974  0.00  0.00    +0.000 A 
ATOM      5  C   UNL     1      -0.088   8.798  22.513  0.00  0.00    +0.000 A 
ATOM      6  C   UNL     1       0.573   8.801  21.277  0.00  0.00    +0.000 A 
ENDROOT
BRANCH   6   7
ATOM      7  C   UNL     1       1.283   7.622  20.888  0.00  0.00    +0.000 C 
ATOM      8  C   UNL     1       1.908   6.557  20.469  0.00  0.00    +0.000 C 
BRANCH   8   9
ATOM      9  C   UNL     1       2.637   5.316  19.982  0.00  0.00    +0.000 C 
ATOM     10  C   UNL     1       2.061   5.000  18.551  0.00  0.00    +0.000 C 
ATOM     11  N   UNL     1       1.732   3.562  18.368  0.00  0.00    +0.000 NA
ATOM     12  C   UNL     1       2.966   2.787  18.602  0.00  0.00    +0.000 C 
ATOM     13  C   UNL     1       3.501   2.984  20.034  0.00  0.00    +0.000 C 
ATOM     14  C   UNL     1       2.617   4.019  20.796  0.00  0.00    +0.000 C 
ATOM     15  C   UNL     1       1.204   3.424  20.819  0.00  0.00    +0.000 C 
ATOM     16  C   UNL     1       0.718   3.185  19.379  0.00  0.00    +0.000 C 
BRANCH   9  17
ATOM     17  O   UNL     1       4.018   5.705  19.848  0.00  0.00    +0.000 OA
ATOM     18  H   UNL     1       4.207   6.353  20.549  0.00  0.00    +0.000 HD
ENDBRANCH   9  17
ENDBRANCH   8   9
ENDBRANCH   6   7
BRANCH   1  19
ATOM     19  C   UNL     1       1.271  10.042  19.147  0.00  0.00    +0.000 C 
BRANCH  19  21
ATOM     20  C   UNL     1      -0.891   9.956  17.850  0.00  0.00    +0.000 C 
ATOM     21  C   UNL     1       0.406   9.635  17.983  0.00  0.00    +0.000 C 
ENDBRANCH  19  21
ENDBRANCH   1  19
BRANCH   3  22
ATOM     22  C   UNL     1      -1.362  12.380  22.759  0.00  0.00    +0.000 C 
BRANCH  22  23
ATOM     23  C   UNL     1      -2.650  12.171  23.555  0.00  0.00    +0.000 C 
BRANCH  23  24
ATOM     24  C   UNL     1      -3.849  12.658  22.775  0.00  0.00    +0.000 C 
ATOM     25  O   UNL     1      -5.017  12.525  23.111  0.00  0.00    +0.000 OA
BRANCH  24  26
ATOM     26  O   UNL     1      -3.424  13.173  21.586  0.00  0.00    +0.000 OA
BRANCH  26  27
ATOM     27  C   UNL     1      -4.240  12.838  20.456  0.00  0.00    +0.000 C 
ATOM     28  C   UNL     1      -3.331  12.227  19.403  0.00  0.00    +0.000 C 
ENDBRANCH  26  27
ENDBRANCH  24  26
ENDBRANCH  23  24
ENDBRANCH  22  23
ENDBRANCH   3  22
TORSDOF 10
ENDMDL
MODEL 6
REMARK VINA RESULT:      -7.2      3.474      9.736
REMARK  Name = 
REMARK  11 active torsions:
REMARK  status: ('A' for Active; 'I' for Inactive)
REMARK    1  A    between atoms: C_2  and  C_3
REMARK    2  A    between atoms: C_3  and  C_4
REMARK    3  A    between atoms: C_6  and  C_7
REMARK    4  A    between atoms: C_7  and  C_8
REMARK    5  A    between atoms: C_8  and  C_9
REMARK    6  A    between atoms: C_9  and  O_11
REMARK    7  A    between atoms: O_11  and  C_12
REMARK    8  A    between atoms: C_12  and  C_13
REMARK    9  A    between atoms: C_16  and  C_17
REMARK   10  A    between atoms: C_18  and  C_19
REMARK   11  A    between atoms: C_19  and  O_20
REMARK                            x       y       z     vdW  Elec       q    Type
REMARK                         _______ _______ _______ _____ _____    ______ ____
ROOT
ATOM      1  C   UNL     1       0.062   9.898  20.481  0.00  0.00    +0.000 A 
ATOM      2  C   UNL     1      -0.622  10.994  21.046  0.00  0.00    +0.000 A 
ATOM      3  C   UNL     1      -0.867  11.078  22.424  0.00  0.00    +0.000 A 
ATOM      4  C   UNL     1      -0.446  10.024  23.245  0.00  0.00    +0.000 A 
ATOM      5  C   UNL     1       0.225   8.924  22.701  0.00  0.00    +0.000 A 
ATOM      6  C   UNL     1       0.496   8.859  21.327  0.00  0.00    +0.000 A 
ENDROOT
BRANCH   6   7
ATOM      7  C   UNL     1       1.242   7.742  20.838  0.00  0.00    +0.000 C 
ATOM      8  C   UNL     1       1.878   6.681  20.424  0.00  0.00    +0.000 C 
BRANCH   8   9
ATOM      9  C   UNL     1       2.618   5.446  19.939  0.00  0.00    +0.000 C 
ATOM     10  C   UNL     1       2.074   5.144  18.493  0.00  0.00    +0.000 C 
ATOM     11  N   UNL     1       1.750   3.708  18.289  0.00  0.00    +0.000 NA
ATOM     12  C   UNL     1       2.979   2.931  18.541  0.00  0.00    +0.000 C 
ATOM     13  C   UNL     1       3.483   3.114  19.986  0.00  0.00    +0.000 C 
ATOM     14  C   UNL     1       2.582   4.140  20.740  0.00  0.00    +0.000 C 
ATOM     15  C   UNL     1       1.169   3.544  20.726  0.00  0.00    +0.000 C 
ATOM     16  C   UNL     1       0.714   3.320  19.273  0.00  0.00    +0.000 C 
BRANCH   9  17
ATOM     17  O   UNL     1       4.001   5.837  19.840  0.00  0.00    +0.000 OA
ATOM     18  H   UNL     1       4.087   6.407  19.056  0.00  0.00    +0.000 HD
ENDBRANCH   9  17
ENDBRANCH   8   9
ENDBRANCH   6   7
BRANCH   1  19
ATOM     19  C   UNL     1       0.351   9.908  18.995  0.00  0.00    +0.000 C 
BRANCH  19  21
ATOM     20  C   UNL     1      -1.642   9.908  17.448  0.00  0.00    +0.000 C 
ATOM     21  C   UNL     1      -0.737  10.568  18.189  0.00  0.00    +0.000 C 
ENDBRANCH  19  21
ENDBRANCH   1  19
BRANCH   3  22
ATOM     22  C   UNL     1      -1.476  12.317  23.032  0.00  0.00    +0.000 C 
BRANCH  22  23
ATOM     23  C   UNL     1      -2.739  12.810  22.324  0.00  0.00    +0.000 C 
BRANCH  23  24
ATOM     24  C   UNL     1      -3.933  12.740  23.246  0.00  0.00    +0.000 C 
ATOM     25  O   UNL     1      -4.085  11.935  24.153  0.00  0.00    +0.000 OA
BRANCH  24  26
ATOM     26  O   UNL     1      -4.863  13.650  22.835  0.00  0.00    +0.000 OA
BRANCH  26  27
ATOM     27  C   UNL     1      -5.286  13.508  21.472  0.00  0.00    +0.000 C 
ATOM     28  C   UNL     1      -6.353  12.426  21.438  0.00  0.00    +0.000 C 
ENDBRANCH  26  27
ENDBRANCH  24  26
ENDBRANCH  23  24
ENDBRANCH  22  23
ENDBRANCH   3  22
TORSDOF 10
ENDMDL
MODEL 7
REMARK VINA RESULT:      -7.2      1.933      2.746
REMARK  Name = 
REMARK  11 active torsions:
REMARK  status: ('A' for Active; 'I' for Inactive)
REMARK    1  A    between atoms: C_2  and  C_3
REMARK    2  A    between atoms: C_3  and  C_4
REMARK    3  A    between atoms: C_6  and  C_7
REMARK    4  A    between atoms: C_7  and  C_8
REMARK    5  A    between atoms: C_8  and  C_9
REMARK    6  A    between atoms: C_9  and  O_11
REMARK    7  A    between atoms: O_11  and  C_12
REMARK    8  A    between atoms: C_12  and  C_13
REMARK    9  A    between atoms: C_16  and  C_17
REMARK   10  A    between atoms: C_18  and  C_19
REMARK   11  A    between atoms: C_19  and  O_20
REMARK                            x       y       z     vdW  Elec       q    Type
REMARK                         _______ _______ _______ _____ _____    ______ ____
ROOT
ATOM      1  C   UNL     1       2.934   5.559  18.260  0.00  0.00    +0.000 A 
ATOM      2  C   UNL     1       3.885   4.744  17.612  0.00  0.00    +0.000 A 
ATOM      3  C   UNL     1       4.947   5.294  16.879  0.00  0.00    +0.000 A 
ATOM      4  C   UNL     1       5.035   6.686  16.767  0.00  0.00    +0.000 A 
ATOM      5  C   UNL     1       4.094   7.511  17.394  0.00  0.00    +0.000 A 
ATOM      6  C   UNL     1       3.053   6.958  18.152  0.00  0.00    +0.000 A 
ENDROOT
BRANCH   6   7
ATOM      7  C   UNL     1       2.160   7.852  18.824  0.00  0.00    +0.000 C 
ATOM      8  C   UNL     1       1.357   8.711  19.386  0.00  0.00    +0.000 C 
BRANCH   8   9
ATOM      9  C   UNL     1       0.420   9.712  20.041  0.00  0.00    +0.000 C 
ATOM     10  C   UNL     1      -0.605  10.150  18.929  0.00  0.00    +0.000 C 
ATOM     11  N   UNL     1      -0.808  11.622  18.882  0.00  0.00    +0.000 NA
ATOM     12  C   UNL     1      -1.287  12.051  20.211  0.00  0.00    +0.000 C 
ATOM     13  C   UNL     1      -0.259  11.738  21.316  0.00  0.00    +0.000 C 
ATOM     14  C   UNL     1       0.962  10.979  20.710  0.00  0.00    +0.000 C 
ATOM     15  C   UNL     1       1.560  11.924  19.661  0.00  0.00    +0.000 C 
ATOM     16  C   UNL     1       0.496  12.264  18.602  0.00  0.00    +0.000 C 
BRANCH   9  17
ATOM     17  O   UNL     1      -0.288   8.974  21.056  0.00  0.00    +0.000 OA
ATOM     18  H   UNL     1       0.377   8.590  21.654  0.00  0.00    +0.000 HD
ENDBRANCH   9  17
ENDBRANCH   8   9
ENDBRANCH   6   7
BRANCH   1  19
ATOM     19  C   UNL     1       1.854   4.898  19.090  0.00  0.00    +0.000 C 
BRANCH  19  21
ATOM     20  C   UNL     1       0.813   2.600  19.117  0.00  0.00    +0.000 C 
ATOM     21  C   UNL     1       1.290   3.660  18.444  0.00  0.00    +0.000 C 
ENDBRANCH  19  21
ENDBRANCH   1  19
BRANCH   3  22
ATOM     22  C   UNL     1       6.032   4.416  16.307  0.00  0.00    +0.000 C 
BRANCH  22  23
ATOM     23  C   UNL     1       5.818   4.020  14.846  0.00  0.00    +0.000 C 
BRANCH  23  24
ATOM     24  C   UNL     1       6.870   4.643  13.960  0.00  0.00    +0.000 C 
ATOM     25  O   UNL     1       7.799   5.340  14.342  0.00  0.00    +0.000 OA
BRANCH  24  26
ATOM     26  O   UNL     1       6.557   4.393  12.656  0.00  0.00    +0.000 OA
BRANCH  26  27
ATOM     27  C   UNL     1       5.994   3.097  12.408  0.00  0.00    +0.000 C 
ATOM     28  C   UNL     1       4.728   3.301  11.591  0.00  0.00    +0.000 C 
ENDBRANCH  26  27
ENDBRANCH  24  26
ENDBRANCH  23  24
ENDBRANCH  22  23
ENDBRANCH   3  22
TORSDOF 10
ENDMDL
MODEL 8
REMARK VINA RESULT:      -7.2      3.486      9.774
REMARK  Name = 
REMARK  11 active torsions:
REMARK  status: ('A' for Active; 'I' for Inactive)
REMARK    1  A    between atoms: C_2  and  C_3
REMARK    2  A    between atoms: C_3  and  C_4
REMARK    3  A    between atoms: C_6  and  C_7
REMARK    4  A    between atoms: C_7  and  C_8
REMARK    5  A    between atoms: C_8  and  C_9
REMARK    6  A    between atoms: C_9  and  O_11
REMARK    7  A    between atoms: O_11  and  C_12
REMARK    8  A    between atoms: C_12  and  C_13
REMARK    9  A    between atoms: C_16  and  C_17
REMARK   10  A    between atoms: C_18  and  C_19
REMARK   11  A    between atoms: C_19  and  O_20
REMARK                            x       y       z     vdW  Elec       q    Type
REMARK                         _______ _______ _______ _____ _____    ______ ____
ROOT
ATOM      1  C   UNL     1       0.029   9.825  20.427  0.00  0.00    +0.000 A 
ATOM      2  C   UNL     1      -0.646  10.930  20.985  0.00  0.00    +0.000 A 
ATOM      3  C   UNL     1      -0.864  11.037  22.366  0.00  0.00    +0.000 A 
ATOM      4  C   UNL     1      -0.425   9.999  23.197  0.00  0.00    +0.000 A 
ATOM      5  C   UNL     1       0.237   8.890  22.660  0.00  0.00    +0.000 A 
ATOM      6  C   UNL     1       0.481   8.802  21.283  0.00  0.00    +0.000 A 
ENDROOT
BRANCH   6   7
ATOM      7  C   UNL     1       1.220   7.677  20.799  0.00  0.00    +0.000 C 
ATOM      8  C   UNL     1       1.865   6.613  20.408  0.00  0.00    +0.000 C 
BRANCH   8   9
ATOM      9  C   UNL     1       2.616   5.374  19.951  0.00  0.00    +0.000 C 
ATOM     10  C   UNL     1       2.096   5.052  18.501  0.00  0.00    +0.000 C 
ATOM     11  N   UNL     1       1.778   3.613  18.309  0.00  0.00    +0.000 NA
ATOM     12  C   UNL     1       3.005   2.842  18.591  0.00  0.00    +0.000 C 
ATOM     13  C   UNL     1       3.486   3.044  20.041  0.00  0.00    +0.000 C 
ATOM     14  C   UNL     1       2.571   4.078  20.767  0.00  0.00    +0.000 C 
ATOM     15  C   UNL     1       1.160   3.478  20.739  0.00  0.00    +0.000 C 
ATOM     16  C   UNL     1       0.729   3.234  19.281  0.00  0.00    +0.000 C 
BRANCH   9  17
ATOM     17  O   UNL     1       4.000   5.767  19.869  0.00  0.00    +0.000 OA
ATOM     18  H   UNL     1       4.537   4.960  19.955  0.00  0.00    +0.000 HD
ENDBRANCH   9  17
ENDBRANCH   8   9
ENDBRANCH   6   7
BRANCH   1  19
ATOM     19  C   UNL     1       0.289   9.808  18.935  0.00  0.00    +0.000 C 
BRANCH  19  21
ATOM     20  C   UNL     1      -1.626   9.888  17.295  0.00  0.00    +0.000 C 
ATOM     21  C   UNL     1      -0.787  10.504  18.143  0.00  0.00    +0.000 C 
ENDBRANCH  19  21
ENDBRANCH   1  19
BRANCH   3  22
ATOM     22  C   UNL     1      -1.464  12.286  22.964  0.00  0.00    +0.000 C 
BRANCH  22  23
ATOM     23  C   UNL     1      -2.972  12.207  23.205  0.00  0.00    +0.000 C 
BRANCH  23  24
ATOM     24  C   UNL     1      -3.727  12.942  22.122  0.00  0.00    +0.000 C 
ATOM     25  O   UNL     1      -3.283  13.242  21.024  0.00  0.00    +0.000 OA
BRANCH  24  26
ATOM     26  O   UNL     1      -4.948  13.310  22.607  0.00  0.00    +0.000 OA
BRANCH  26  27
ATOM     27  C   UNL     1      -5.201  12.924  23.965  0.00  0.00    +0.000 C 
ATOM     28  C   UNL     1      -6.700  12.718  24.107  0.00  0.00    +0.000 C 
ENDBRANCH  26  27
ENDBRANCH  24  26
ENDBRANCH  23  24
ENDBRANCH  22  23
ENDBRANCH   3  22
TORSDOF 10
ENDMDL
MODEL 9
REMARK VINA RESULT:      -7.1      3.498      9.874
REMARK  Name = 
REMARK  11 active torsions:
REMARK  status: ('A' for Active; 'I' for Inactive)
REMARK    1  A    between atoms: C_2  and  C_3
REMARK    2  A    between atoms: C_3  and  C_4
REMARK    3  A    between atoms: C_6  and  C_7
REMARK    4  A    between atoms: C_7  and  C_8
REMARK    5  A    between atoms: C_8  and  C_9
REMARK    6  A    between atoms: C_9  and  O_11
REMARK    7  A    between atoms: O_11  and  C_12
REMARK    8  A    between atoms: C_12  and  C_13
REMARK    9  A    between atoms: C_16  and  C_17
REMARK   10  A    between atoms: C_18  and  C_19
REMARK   11  A    between atoms: C_19  and  O_20
REMARK                            x       y       z     vdW  Elec       q    Type
REMARK                         _______ _______ _______ _____ _____    ______ ____
ROOT
ATOM      1  C   UNL     1      -0.070   9.741  20.374  0.00  0.00    +0.000 A 
ATOM      2  C   UNL     1      -0.730  10.866  20.909  0.00  0.00    +0.000 A 
ATOM      3  C   UNL     1      -0.890  11.038  22.291  0.00  0.00    +0.000 A 
ATOM      4  C   UNL     1      -0.406  10.044  23.150  0.00  0.00    +0.000 A 
ATOM      5  C   UNL     1       0.243   8.915  22.638  0.00  0.00    +0.000 A 
ATOM      6  C   UNL     1       0.428   8.763  21.256  0.00  0.00    +0.000 A 
ENDROOT
BRANCH   6   7
ATOM      7  C   UNL     1       1.156   7.622  20.795  0.00  0.00    +0.000 C 
ATOM      8  C   UNL     1       1.812   6.554  20.436  0.00  0.00    +0.000 C 
BRANCH   8   9
ATOM      9  C   UNL     1       2.577   5.309  20.018  0.00  0.00    +0.000 C 
ATOM     10  C   UNL     1       2.063   4.940  18.576  0.00  0.00    +0.000 C 
ATOM     11  N   UNL     1       1.760   3.492  18.426  0.00  0.00    +0.000 NA
ATOM     12  C   UNL     1       2.994   2.743  18.733  0.00  0.00    +0.000 C 
ATOM     13  C   UNL     1       3.469   2.992  20.178  0.00  0.00    +0.000 C 
ATOM     14  C   UNL     1       2.542   4.038  20.871  0.00  0.00    +0.000 C 
ATOM     15  C   UNL     1       1.137   3.423  20.857  0.00  0.00    +0.000 C 
ATOM     16  C   UNL     1       0.711   3.132  19.407  0.00  0.00    +0.000 C 
BRANCH   9  17
ATOM     17  O   UNL     1       3.957   5.713  19.927  0.00  0.00    +0.000 OA
ATOM     18  H   UNL     1       4.502   4.925  20.095  0.00  0.00    +0.000 HD
ENDBRANCH   9  17
ENDBRANCH   8   9
ENDBRANCH   6   7
BRANCH   1  19
ATOM     19  C   UNL     1       0.125   9.656  18.874  0.00  0.00    +0.000 C 
BRANCH  19  21
ATOM     20  C   UNL     1       2.325   9.128  17.759  0.00  0.00    +0.000 C 
ATOM     21  C   UNL     1       1.534   9.968  18.446  0.00  0.00    +0.000 C 
ENDBRANCH  19  21
ENDBRANCH   1  19
BRANCH   3  22
ATOM     22  C   UNL     1      -1.475  12.309  22.855  0.00  0.00    +0.000 C 
BRANCH  22  23
ATOM     23  C   UNL     1      -2.775  12.112  23.636  0.00  0.00    +0.000 C 
BRANCH  23  24
ATOM     24  C   UNL     1      -3.924  12.815  22.952  0.00  0.00    +0.000 C 
ATOM     25  O   UNL     1      -3.819  13.714  22.131  0.00  0.00    +0.000 OA
BRANCH  24  26
ATOM     26  O   UNL     1      -5.097  12.361  23.478  0.00  0.00    +0.000 OA
BRANCH  26  27
ATOM     27  C   UNL     1      -6.280  12.902  22.875  0.00  0.00    +0.000 C 
ATOM     28  C   UNL     1      -7.319  13.059  23.973  0.00  0.00    +0.000 C 
ENDBRANCH  26  27
ENDBRANCH  24  26
ENDBRANCH  23  24
ENDBRANCH  22  23
ENDBRANCH   3  22
TORSDOF 10
ENDMDL
