MODEL 1
REMARK VINA RESULT:      -7.6      0.000      0.000
REMARK  Name = 
REMARK  8 active torsions:
REMARK  status: ('A' for Active; 'I' for Inactive)
REMARK    1  A    between atoms: C_1  and  O_2
REMARK    2  A    between atoms: O_2  and  C_3
REMARK    3  A    between atoms: C_3  and  C_4
REMARK    4  A    between atoms: C_4  and  C_5
REMARK    5  A    between atoms: N_7  and  C_8
REMARK    6  A    between atoms: N_11  and  C_12
REMARK    7  A    between atoms: C_12  and  C_13
REMARK    8  A    between atoms: C_13  and  C_14
REMARK                            x       y       z     vdW  Elec       q    Type
REMARK                         _______ _______ _______ _____ _____    ______ ____
ROOT
ATOM      1  C   UNL     1       7.347   5.393  15.905  0.00  0.00    +0.000 C 
ATOM      2  C   UNL     1       7.140   4.410  17.048  0.00  0.00    +0.000 C 
ATOM      3  C   UNL     1       5.664   4.048  17.185  0.00  0.00    +0.000 C 
ATOM      4  N   UNL     1       4.795   5.210  17.408  0.00  0.00    +0.000 NA
ATOM      5  C   UNL     1       5.005   6.254  16.384  0.00  0.00    +0.000 C 
ATOM      6  C   UNL     1       6.478   6.623  16.193  0.00  0.00    +0.000 C 
ENDROOT
BRANCH   1   9
ATOM      7  C   UNL     1       7.636   5.032  13.436  0.00  0.00    +0.000 C 
ATOM      8  O   UNL     1       8.487   5.902  13.292  0.00  0.00    +0.000 OA
ATOM      9  N   UNL     1       7.045   4.726  14.640  0.00  0.00    +0.000 N 
ATOM     10  H   UNL     1       6.595   3.820  14.697  0.00  0.00    +0.000 HD
BRANCH   7  11
ATOM     11  C   UNL     1       7.114   4.202  12.284  0.00  0.00    +0.000 C 
BRANCH  11  12
ATOM     12  C   UNL     1       5.993   3.290  12.758  0.00  0.00    +0.000 C 
BRANCH  12  14
ATOM     13  C   UNL     1       4.193   3.172  11.255  0.00  0.00    +0.000 C 
ATOM     14  O   UNL     1       4.730   3.843  12.390  0.00  0.00    +0.000 OA
ENDBRANCH  12  14
ENDBRANCH  11  12
ENDBRANCH   7  11
ENDBRANCH   1   9
BRANCH   4  15
ATOM     15  C   UNL     1       3.355   4.846  17.468  0.00  0.00    +0.000 C 
BRANCH  15  16
ATOM     16  C   UNL     1       2.555   4.909  18.835  0.00  0.00    +0.000 C 
ATOM     17  C   UNL     1       1.331   3.954  18.676  0.00  0.00    +0.000 C 
ATOM     18  C   UNL     1       0.948   3.522  20.086  0.00  0.00    +0.000 C 
ATOM     19  C   UNL     1       2.259   3.439  20.839  0.00  0.00    +0.000 C 
ATOM     20  C   UNL     1       3.282   4.230  20.026  0.00  0.00    +0.000 C 
BRANCH  16  21
ATOM     21  C   UNL     1       2.195   6.371  19.178  0.00  0.00    +0.000 A 
ATOM     22  C   UNL     1       1.879   6.809  20.478  0.00  0.00    +0.000 A 
ATOM     23  C   UNL     1       1.503   8.133  20.738  0.00  0.00    +0.000 A 
ATOM     24  C   UNL     1       1.429   9.060  19.703  0.00  0.00    +0.000 A 
ATOM     25  C   UNL     1       1.749   8.655  18.419  0.00  0.00    +0.000 A 
ATOM     26  F   UNL     1       1.678   9.533  17.412  0.00  0.00    +0.000 F 
ATOM     27  C   UNL     1       2.142   7.346  18.161  0.00  0.00    +0.000 A 
ENDBRANCH  16  21
ENDBRANCH  15  16
ENDBRANCH   4  15
TORSDOF 7
ENDMDL
MODEL 2
REMARK VINA RESULT:      -7.4      1.011      1.378
REMARK  Name = 
REMARK  8 active torsions:
REMARK  status: ('A' for Active; 'I' for Inactive)
REMARK    1  A    between atoms: C_1  and  O_2
REMARK    2  A    between atoms: O_2  and  C_3
REMARK    3  A    between atoms: C_3  and  C_4
REMARK    4  A    between atoms: C_4  and  C_5
REMARK    5  A    between atoms: N_7  and  C_8
REMARK    6  A    between atoms: N_11  and  C_12
REMARK    7  A    between atoms: C_12  and  C_13
REMARK    8  A    between atoms: C_13  and  C_14
REMARK                            x       y       z     vdW  Elec       q    Type
REMARK                         _______ _______ _______ _____ _____    ______ ____
ROOT
ATOM      1  C   UNL     1       7.259   5.282  16.107  0.00  0.00    +0.000 C 
ATOM      2  C   UNL     1       7.056   4.358  17.299  0.00  0.00    +0.000 C 
ATOM      3  C   UNL     1       5.581   4.000  17.455  0.00  0.00    +0.000 C 
ATOM      4  N   UNL     1       4.709   5.169  17.619  0.00  0.00    +0.000 NA
ATOM      5  C   UNL     1       4.915   6.160  16.543  0.00  0.00    +0.000 C 
ATOM      6  C   UNL     1       6.388   6.522  16.332  0.00  0.00    +0.000 C 
ENDROOT
BRANCH   1   9
ATOM      7  C   UNL     1       7.466   4.863  13.638  0.00  0.00    +0.000 C 
ATOM      8  O   UNL     1       8.234   5.795  13.429  0.00  0.00    +0.000 OA
ATOM      9  N   UNL     1       6.958   4.550  14.877  0.00  0.00    +0.000 N 
ATOM     10  H   UNL     1       6.589   3.612  14.982  0.00  0.00    +0.000 HD
BRANCH   7  11
ATOM     11  C   UNL     1       6.965   3.955  12.537  0.00  0.00    +0.000 C 
BRANCH  11  12
ATOM     12  C   UNL     1       5.494   3.635  12.749  0.00  0.00    +0.000 C 
BRANCH  12  14
ATOM     13  C   UNL     1       3.826   3.225  11.148  0.00  0.00    +0.000 C 
ATOM     14  O   UNL     1       5.038   2.752  11.725  0.00  0.00    +0.000 OA
ENDBRANCH  12  14
ENDBRANCH  11  12
ENDBRANCH   7  11
ENDBRANCH   1   9
BRANCH   4  15
ATOM     15  C   UNL     1       3.270   4.805  17.699  0.00  0.00    +0.000 C 
BRANCH  15  16
ATOM     16  C   UNL     1       2.465   4.957  19.057  0.00  0.00    +0.000 C 
ATOM     17  C   UNL     1       1.276   3.950  18.982  0.00  0.00    +0.000 C 
ATOM     18  C   UNL     1       0.905   3.627  20.423  0.00  0.00    +0.000 C 
ATOM     19  C   UNL     1       2.217   3.656  21.180  0.00  0.00    +0.000 C 
ATOM     20  C   UNL     1       3.213   4.410  20.301  0.00  0.00    +0.000 C 
BRANCH  16  21
ATOM     21  C   UNL     1       2.053   6.430  19.273  0.00  0.00    +0.000 A 
ATOM     22  C   UNL     1       2.076   7.400  18.254  0.00  0.00    +0.000 A 
ATOM     23  C   UNL     1       1.749   8.739  18.504  0.00  0.00    +0.000 A 
ATOM     24  C   UNL     1       1.391   9.149  19.784  0.00  0.00    +0.000 A 
ATOM     25  C   UNL     1       1.348   8.209  20.799  0.00  0.00    +0.000 A 
ATOM     26  F   UNL     1       1.011   8.588  22.037  0.00  0.00    +0.000 F 
ATOM     27  C   UNL     1       1.653   6.875  20.549  0.00  0.00    +0.000 A 
ENDBRANCH  16  21
ENDBRANCH  15  16
ENDBRANCH   4  15
TORSDOF 7
ENDMDL
MODEL 3
REMARK VINA RESULT:      -7.3      4.528      7.607
REMARK  Name = 
REMARK  8 active torsions:
REMARK  status: ('A' for Active; 'I' for Inactive)
REMARK    1  A    between atoms: C_1  and  O_2
REMARK    2  A    between atoms: O_2  and  C_3
REMARK    3  A    between atoms: C_3  and  C_4
REMARK    4  A    between atoms: C_4  and  C_5
REMARK    5  A    between atoms: N_7  and  C_8
REMARK    6  A    between atoms: N_11  and  C_12
REMARK    7  A    between atoms: C_12  and  C_13
REMARK    8  A    between atoms: C_13  and  C_14
REMARK                            x       y       z     vdW  Elec       q    Type
REMARK                         _______ _______ _______ _____ _____    ______ ____
ROOT
ATOM      1  C   UNL     1       0.721  10.428  19.613  0.00  0.00    +0.000 C 
ATOM      2  C   UNL     1       1.784  10.595  18.537  0.00  0.00    +0.000 C 
ATOM      3  C   UNL     1       1.983   9.290  17.771  0.00  0.00    +0.000 C 
ATOM      4  N   UNL     1       2.361   8.160  18.628  0.00  0.00    +0.000 NA
ATOM      5  C   UNL     1       1.422   7.990  19.755  0.00  0.00    +0.000 C 
ATOM      6  C   UNL     1       1.170   9.286  20.531  0.00  0.00    +0.000 C 
ENDROOT
BRANCH   1   9
ATOM      7  C   UNL     1      -1.494  11.204  18.717  0.00  0.00    +0.000 C 
ATOM      8  O   UNL     1      -1.321  12.385  18.995  0.00  0.00    +0.000 OA
ATOM      9  N   UNL     1      -0.576  10.212  18.974  0.00  0.00    +0.000 N 
ATOM     10  H   UNL     1      -0.689   9.354  18.447  0.00  0.00    +0.000 HD
BRANCH   7  11
ATOM     11  C   UNL     1      -2.764  10.694  18.072  0.00  0.00    +0.000 C 
BRANCH  11  12
ATOM     12  C   UNL     1      -2.765  11.014  16.586  0.00  0.00    +0.000 C 
BRANCH  12  14
ATOM     13  C   UNL     1      -3.010  10.070  14.450  0.00  0.00    +0.000 C 
ATOM     14  O   UNL     1      -2.782   9.804  15.830  0.00  0.00    +0.000 OA
ENDBRANCH  12  14
ENDBRANCH  11  12
ENDBRANCH   7  11
ENDBRANCH   1   9
BRANCH   4  15
ATOM     15  C   UNL     1       2.481   6.884  17.875  0.00  0.00    +0.000 C 
BRANCH  15  16
ATOM     16  C   UNL     1       3.388   5.701  18.415  0.00  0.00    +0.000 C 
ATOM     17  C   UNL     1       4.104   5.089  17.171  0.00  0.00    +0.000 C 
ATOM     18  C   UNL     1       5.379   4.440  17.695  0.00  0.00    +0.000 C 
ATOM     19  C   UNL     1       5.825   5.326  18.840  0.00  0.00    +0.000 C 
ATOM     20  C   UNL     1       4.617   6.170  19.238  0.00  0.00    +0.000 C 
BRANCH  16  21
ATOM     21  C   UNL     1       2.536   4.701  19.228  0.00  0.00    +0.000 A 
ATOM     22  C   UNL     1       2.590   4.597  20.630  0.00  0.00    +0.000 A 
ATOM     23  C   UNL     1       1.843   3.638  21.326  0.00  0.00    +0.000 A 
ATOM     24  C   UNL     1       1.019   2.752  20.639  0.00  0.00    +0.000 A 
ATOM     25  C   UNL     1       0.940   2.846  19.261  0.00  0.00    +0.000 A 
ATOM     26  F   UNL     1       0.157   1.998  18.584  0.00  0.00    +0.000 F 
ATOM     27  C   UNL     1       1.665   3.810  18.568  0.00  0.00    +0.000 A 
ENDBRANCH  16  21
ENDBRANCH  15  16
ENDBRANCH   4  15
TORSDOF 7
ENDMDL
MODEL 4
REMARK VINA RESULT:      -7.3      4.522      7.599
REMARK  Name = 
REMARK  8 active torsions:
REMARK  status: ('A' for Active; 'I' for Inactive)
REMARK    1  A    between atoms: C_1  and  O_2
REMARK    2  A    between atoms: O_2  and  C_3
REMARK    3  A    between atoms: C_3  and  C_4
REMARK    4  A    between atoms: C_4  and  C_5
REMARK    5  A    between atoms: N_7  and  C_8
REMARK    6  A    between atoms: N_11  and  C_12
REMARK    7  A    between atoms: C_12  and  C_13
REMARK    8  A    between atoms: C_13  and  C_14
REMARK                            x       y       z     vdW  Elec       q    Type
REMARK                         _______ _______ _______ _____ _____    ______ ____
ROOT
ATOM      1  C   UNL     1       0.796  10.275  19.683  0.00  0.00    +0.000 C 
ATOM      2  C   UNL     1       1.864  10.488  18.619  0.00  0.00    +0.000 C 
ATOM      3  C   UNL     1       2.062   9.220  17.795  0.00  0.00    +0.000 C 
ATOM      4  N   UNL     1       2.436   8.051  18.601  0.00  0.00    +0.000 NA
ATOM      5  C   UNL     1       1.492   7.831  19.716  0.00  0.00    +0.000 C 
ATOM      6  C   UNL     1       1.240   9.091  20.549  0.00  0.00    +0.000 C 
ENDROOT
BRANCH   1   9
ATOM      7  C   UNL     1      -1.311  11.116  18.604  0.00  0.00    +0.000 C 
ATOM      8  O   UNL     1      -1.033  12.304  18.723  0.00  0.00    +0.000 OA
ATOM      9  N   UNL     1      -0.499  10.091  19.030  0.00  0.00    +0.000 N 
ATOM     10  H   UNL     1      -0.681   9.181  18.623  0.00  0.00    +0.000 HD
BRANCH   7  11
ATOM     11  C   UNL     1      -2.607  10.639  17.988  0.00  0.00    +0.000 C 
BRANCH  11  12
ATOM     12  C   UNL     1      -2.328   9.863  16.711  0.00  0.00    +0.000 C 
BRANCH  12  14
ATOM     13  C   UNL     1      -3.607  10.294  14.789  0.00  0.00    +0.000 C 
ATOM     14  O   UNL     1      -2.500  10.715  15.579  0.00  0.00    +0.000 OA
ENDBRANCH  12  14
ENDBRANCH  11  12
ENDBRANCH   7  11
ENDBRANCH   1   9
BRANCH   4  15
ATOM     15  C   UNL     1       2.556   6.810  17.791  0.00  0.00    +0.000 C 
BRANCH  15  16
ATOM     16  C   UNL     1       3.449   5.597  18.285  0.00  0.00    +0.000 C 
ATOM     17  C   UNL     1       4.307   5.151  17.060  0.00  0.00    +0.000 C 
ATOM     18  C   UNL     1       5.547   4.480  17.635  0.00  0.00    +0.000 C 
ATOM     19  C   UNL     1       5.846   5.240  18.911  0.00  0.00    +0.000 C 
ATOM     20  C   UNL     1       4.573   6.001  19.276  0.00  0.00    +0.000 C 
BRANCH  16  21
ATOM     21  C   UNL     1       2.560   4.489  18.891  0.00  0.00    +0.000 A 
ATOM     22  C   UNL     1       1.723   3.659  18.123  0.00  0.00    +0.000 A 
ATOM     23  C   UNL     1       0.889   2.704  18.717  0.00  0.00    +0.000 A 
ATOM     24  C   UNL     1       0.865   2.551  20.100  0.00  0.00    +0.000 A 
ATOM     25  C   UNL     1       1.691   3.347  20.873  0.00  0.00    +0.000 A 
ATOM     26  F   UNL     1       1.677   3.217  22.205  0.00  0.00    +0.000 F 
ATOM     27  C   UNL     1       2.535   4.283  20.286  0.00  0.00    +0.000 A 
ENDBRANCH  16  21
ENDBRANCH  15  16
ENDBRANCH   4  15
TORSDOF 7
ENDMDL
MODEL 5
REMARK VINA RESULT:      -7.1      4.365      7.171
REMARK  Name = 
REMARK  8 active torsions:
REMARK  status: ('A' for Active; 'I' for Inactive)
REMARK    1  A    between atoms: C_1  and  O_2
REMARK    2  A    between atoms: O_2  and  C_3
REMARK    3  A    between atoms: C_3  and  C_4
REMARK    4  A    between atoms: C_4  and  C_5
REMARK    5  A    between atoms: N_7  and  C_8
REMARK    6  A    between atoms: N_11  and  C_12
REMARK    7  A    between atoms: C_12  and  C_13
REMARK    8  A    between atoms: C_13  and  C_14
REMARK                            x       y       z     vdW  Elec       q    Type
REMARK                         _______ _______ _______ _____ _____    ______ ____
ROOT
ATOM      1  C   UNL     1       1.233   9.952  18.495  0.00  0.00    +0.000 C 
ATOM      2  C   UNL     1       2.201   9.062  17.729  0.00  0.00    +0.000 C 
ATOM      3  C   UNL     1       2.040   7.605  18.152  0.00  0.00    +0.000 C 
ATOM      4  N   UNL     1       2.244   7.387  19.590  0.00  0.00    +0.000 NA
ATOM      5  C   UNL     1       1.401   8.285  20.404  0.00  0.00    +0.000 C 
ATOM      6  C   UNL     1       1.510   9.755  19.989  0.00  0.00    +0.000 C 
ENDROOT
BRANCH   1   9
ATOM      7  C   UNL     1      -1.175  10.533  18.075  0.00  0.00    +0.000 C 
ATOM      8  O   UNL     1      -1.067  11.708  18.404  0.00  0.00    +0.000 OA
ATOM      9  N   UNL     1      -0.134   9.633  18.088  0.00  0.00    +0.000 N 
ATOM     10  H   UNL     1      -0.261   8.798  17.528  0.00  0.00    +0.000 HD
BRANCH   7  11
ATOM     11  C   UNL     1      -2.488   9.924  17.636  0.00  0.00    +0.000 C 
BRANCH  11  12
ATOM     12  C   UNL     1      -3.298  10.937  16.843  0.00  0.00    +0.000 C 
BRANCH  12  14
ATOM     13  C   UNL     1      -3.133  10.059  14.672  0.00  0.00    +0.000 C 
ATOM     14  O   UNL     1      -2.727  11.106  15.546  0.00  0.00    +0.000 OA
ENDBRANCH  12  14
ENDBRANCH  11  12
ENDBRANCH   7  11
ENDBRANCH   1   9
BRANCH   4  15
ATOM     15  C   UNL     1       2.014   5.975  19.994  0.00  0.00    +0.000 C 
BRANCH  15  16
ATOM     16  C   UNL     1       2.635   4.777  19.162  0.00  0.00    +0.000 C 
ATOM     17  C   UNL     1       2.661   3.542  20.116  0.00  0.00    +0.000 C 
ATOM     18  C   UNL     1       2.639   2.314  19.216  0.00  0.00    +0.000 C 
ATOM     19  C   UNL     1       1.784   2.714  18.031  0.00  0.00    +0.000 C 
ATOM     20  C   UNL     1       1.710   4.239  18.039  0.00  0.00    +0.000 C 
BRANCH  16  21
ATOM     21  C   UNL     1       4.011   5.181  18.588  0.00  0.00    +0.000 A 
ATOM     22  C   UNL     1       5.180   5.275  19.366  0.00  0.00    +0.000 A 
ATOM     23  C   UNL     1       6.396   5.701  18.818  0.00  0.00    +0.000 A 
ATOM     24  C   UNL     1       6.480   6.047  17.473  0.00  0.00    +0.000 A 
ATOM     25  C   UNL     1       5.347   5.949  16.686  0.00  0.00    +0.000 A 
ATOM     26  F   UNL     1       5.409   6.284  15.392  0.00  0.00    +0.000 F 
ATOM     27  C   UNL     1       4.142   5.508  17.222  0.00  0.00    +0.000 A 
ENDBRANCH  16  21
ENDBRANCH  15  16
ENDBRANCH   4  15
TORSDOF 7
ENDMDL
MODEL 6
REMARK VINA RESULT:      -7.1      4.760      8.352
REMARK  Name = 
REMARK  8 active torsions:
REMARK  status: ('A' for Active; 'I' for Inactive)
REMARK    1  A    between atoms: C_1  and  O_2
REMARK    2  A    between atoms: O_2  and  C_3
REMARK    3  A    between atoms: C_3  and  C_4
REMARK    4  A    between atoms: C_4  and  C_5
REMARK    5  A    between atoms: N_7  and  C_8
REMARK    6  A    between atoms: N_11  and  C_12
REMARK    7  A    between atoms: C_12  and  C_13
REMARK    8  A    between atoms: C_13  and  C_14
REMARK                            x       y       z     vdW  Elec       q    Type
REMARK                         _______ _______ _______ _____ _____    ______ ____
ROOT
ATOM      1  C   UNL     1       0.239  10.353  19.443  0.00  0.00    +0.000 C 
ATOM      2  C   UNL     1       0.295   9.220  20.457  0.00  0.00    +0.000 C 
ATOM      3  C   UNL     1       1.603   8.445  20.326  0.00  0.00    +0.000 C 
ATOM      4  N   UNL     1       1.818   7.882  18.987  0.00  0.00    +0.000 NA
ATOM      5  C   UNL     1       1.688   8.911  17.934  0.00  0.00    +0.000 C 
ATOM      6  C   UNL     1       0.402   9.733  18.051  0.00  0.00    +0.000 C 
ENDROOT
BRANCH   1   9
ATOM      7  C   UNL     1       1.280  12.635  19.294  0.00  0.00    +0.000 C 
ATOM      8  O   UNL     1       0.445  13.090  18.521  0.00  0.00    +0.000 OA
ATOM      9  N   UNL     1       1.255  11.348  19.781  0.00  0.00    +0.000 N 
ATOM     10  H   UNL     1       1.801  11.179  20.618  0.00  0.00    +0.000 HD
BRANCH   7  11
ATOM     11  C   UNL     1       2.461  13.440  19.788  0.00  0.00    +0.000 C 
BRANCH  11  12
ATOM     12  C   UNL     1       2.046  14.321  20.956  0.00  0.00    +0.000 C 
BRANCH  12  14
ATOM     13  C   UNL     1       0.089  14.493  22.241  0.00  0.00    +0.000 C 
ATOM     14  O   UNL     1       1.118  13.622  21.784  0.00  0.00    +0.000 OA
ENDBRANCH  12  14
ENDBRANCH  11  12
ENDBRANCH   7  11
ENDBRANCH   1   9
BRANCH   4  15
ATOM     15  C   UNL     1       3.128   7.193  18.858  0.00  0.00    +0.000 C 
BRANCH  15  16
ATOM     16  C   UNL     1       3.206   5.623  18.651  0.00  0.00    +0.000 C 
ATOM     17  C   UNL     1       2.963   4.978  20.051  0.00  0.00    +0.000 C 
ATOM     18  C   UNL     1       2.418   3.581  19.783  0.00  0.00    +0.000 C 
ATOM     19  C   UNL     1       1.584   3.722  18.527  0.00  0.00    +0.000 C 
ATOM     20  C   UNL     1       2.010   5.028  17.861  0.00  0.00    +0.000 C 
BRANCH  16  21
ATOM     21  C   UNL     1       4.545   5.237  17.984  0.00  0.00    +0.000 A 
ATOM     22  C   UNL     1       4.637   4.652  16.708  0.00  0.00    +0.000 A 
ATOM     23  C   UNL     1       5.868   4.265  16.162  0.00  0.00    +0.000 A 
ATOM     24  C   UNL     1       7.045   4.448  16.880  0.00  0.00    +0.000 A 
ATOM     25  C   UNL     1       6.980   5.034  18.132  0.00  0.00    +0.000 A 
ATOM     26  F   UNL     1       8.103   5.212  18.837  0.00  0.00    +0.000 F 
ATOM     27  C   UNL     1       5.762   5.438  18.668  0.00  0.00    +0.000 A 
ENDBRANCH  16  21
ENDBRANCH  15  16
ENDBRANCH   4  15
TORSDOF 7
ENDMDL
MODEL 7
REMARK VINA RESULT:      -7.1      2.654      4.248
REMARK  Name = 
REMARK  8 active torsions:
REMARK  status: ('A' for Active; 'I' for Inactive)
REMARK    1  A    between atoms: C_1  and  O_2
REMARK    2  A    between atoms: O_2  and  C_3
REMARK    3  A    between atoms: C_3  and  C_4
REMARK    4  A    between atoms: C_4  and  C_5
REMARK    5  A    between atoms: N_7  and  C_8
REMARK    6  A    between atoms: N_11  and  C_12
REMARK    7  A    between atoms: C_12  and  C_13
REMARK    8  A    between atoms: C_13  and  C_14
REMARK                            x       y       z     vdW  Elec       q    Type
REMARK                         _______ _______ _______ _____ _____    ______ ____
ROOT
ATOM      1  C   UNL     1       7.562   5.118  17.082  0.00  0.00    +0.000 C 
ATOM      2  C   UNL     1       6.803   4.518  15.907  0.00  0.00    +0.000 C 
ATOM      3  C   UNL     1       5.314   4.832  16.013  0.00  0.00    +0.000 C 
ATOM      4  N   UNL     1       4.701   4.350  17.257  0.00  0.00    +0.000 NA
ATOM      5  C   UNL     1       5.441   4.819  18.447  0.00  0.00    +0.000 C 
ATOM      6  C   UNL     1       6.946   4.551  18.365  0.00  0.00    +0.000 C 
ENDROOT
BRANCH   1   9
ATOM      7  C   UNL     1       7.986   7.437  17.951  0.00  0.00    +0.000 C 
ATOM      8  O   UNL     1       8.496   7.072  19.003  0.00  0.00    +0.000 OA
ATOM      9  N   UNL     1       7.518   6.576  16.985  0.00  0.00    +0.000 N 
ATOM     10  H   UNL     1       7.398   6.969  16.059  0.00  0.00    +0.000 HD
BRANCH   7  11
ATOM     11  C   UNL     1       7.787   8.895  17.601  0.00  0.00    +0.000 C 
BRANCH  11  12
ATOM     12  C   UNL     1       8.604   9.775  18.533  0.00  0.00    +0.000 C 
BRANCH  12  14
ATOM     13  C   UNL     1       9.080  11.998  17.942  0.00  0.00    +0.000 C 
ATOM     14  O   UNL     1       9.451  10.634  17.770  0.00  0.00    +0.000 OA
ENDBRANCH  12  14
ENDBRANCH  11  12
ENDBRANCH   7  11
ENDBRANCH   1   9
BRANCH   4  15
ATOM     15  C   UNL     1       3.268   4.727  17.374  0.00  0.00    +0.000 C 
BRANCH  15  16
ATOM     16  C   UNL     1       2.532   4.706  18.778  0.00  0.00    +0.000 C 
ATOM     17  C   UNL     1       1.296   3.767  18.616  0.00  0.00    +0.000 C 
ATOM     18  C   UNL     1       0.975   3.248  20.012  0.00  0.00    +0.000 C 
ATOM     19  C   UNL     1       2.319   3.114  20.697  0.00  0.00    +0.000 C 
ATOM     20  C   UNL     1       3.309   3.951  19.890  0.00  0.00    +0.000 C 
BRANCH  16  21
ATOM     21  C   UNL     1       2.196   6.145  19.228  0.00  0.00    +0.000 A 
ATOM     22  C   UNL     1       1.720   6.466  20.513  0.00  0.00    +0.000 A 
ATOM     23  C   UNL     1       1.374   7.777  20.863  0.00  0.00    +0.000 A 
ATOM     24  C   UNL     1       1.492   8.808  19.937  0.00  0.00    +0.000 A 
ATOM     25  C   UNL     1       1.971   8.518  18.672  0.00  0.00    +0.000 A 
ATOM     26  F   UNL     1       2.086   9.497  17.768  0.00  0.00    +0.000 F 
ATOM     27  C   UNL     1       2.335   7.221  18.327  0.00  0.00    +0.000 A 
ENDBRANCH  16  21
ENDBRANCH  15  16
ENDBRANCH   4  15
TORSDOF 7
ENDMDL
MODEL 8
REMARK VINA RESULT:      -7.0      1.021      1.409
REMARK  Name = 
REMARK  8 active torsions:
REMARK  status: ('A' for Active; 'I' for Inactive)
REMARK    1  A    between atoms: C_1  and  O_2
REMARK    2  A    between atoms: O_2  and  C_3
REMARK    3  A    between atoms: C_3  and  C_4
REMARK    4  A    between atoms: C_4  and  C_5
REMARK    5  A    between atoms: N_7  and  C_8
REMARK    6  A    between atoms: N_11  and  C_12
REMARK    7  A    between atoms: C_12  and  C_13
REMARK    8  A    between atoms: C_13  and  C_14
REMARK                            x       y       z     vdW  Elec       q    Type
REMARK                         _______ _______ _______ _____ _____    ______ ____
ROOT
ATOM      1  C   UNL     1       6.985   5.739  16.506  0.00  0.00    +0.000 C 
ATOM      2  C   UNL     1       7.494   4.936  17.695  0.00  0.00    +0.000 C 
ATOM      3  C   UNL     1       6.331   4.468  18.564  0.00  0.00    +0.000 C 
ATOM      4  N   UNL     1       5.497   5.567  19.068  0.00  0.00    +0.000 NA
ATOM      5  C   UNL     1       5.038   6.449  17.976  0.00  0.00    +0.000 C 
ATOM      6  C   UNL     1       6.173   6.915  17.059  0.00  0.00    +0.000 C 
ENDROOT
BRANCH   1   9
ATOM      7  C   UNL     1       6.496   4.690  14.276  0.00  0.00    +0.000 C 
ATOM      8  O   UNL     1       7.395   5.270  13.679  0.00  0.00    +0.000 OA
ATOM      9  N   UNL     1       6.235   4.854  15.617  0.00  0.00    +0.000 N 
ATOM     10  H   UNL     1       5.685   4.124  16.055  0.00  0.00    +0.000 HD
BRANCH   7  11
ATOM     11  C   UNL     1       5.545   3.733  13.593  0.00  0.00    +0.000 C 
BRANCH  11  12
ATOM     12  C   UNL     1       6.041   3.409  12.192  0.00  0.00    +0.000 C 
BRANCH  12  14
ATOM     13  C   UNL     1       4.012   3.050  11.066  0.00  0.00    +0.000 C 
ATOM     14  O   UNL     1       5.187   2.439  11.588  0.00  0.00    +0.000 OA
ENDBRANCH  12  14
ENDBRANCH  11  12
ENDBRANCH   7  11
ENDBRANCH   1   9
BRANCH   4  15
ATOM     15  C   UNL     1       4.330   5.088  19.854  0.00  0.00    +0.000 C 
BRANCH  15  16
ATOM     16  C   UNL     1       2.860   5.179  19.267  0.00  0.00    +0.000 C 
ATOM     17  C   UNL     1       2.943   4.698  17.785  0.00  0.00    +0.000 C 
ATOM     18  C   UNL     1       1.553   4.188  17.428  0.00  0.00    +0.000 C 
ATOM     19  C   UNL     1       1.022   3.576  18.708  0.00  0.00    +0.000 C 
ATOM     20  C   UNL     1       1.881   4.123  19.846  0.00  0.00    +0.000 C 
BRANCH  16  21
ATOM     21  C   UNL     1       2.297   6.605  19.454  0.00  0.00    +0.000 A 
ATOM     22  C   UNL     1       1.718   7.061  20.653  0.00  0.00    +0.000 A 
ATOM     23  C   UNL     1       1.168   8.343  20.764  0.00  0.00    +0.000 A 
ATOM     24  C   UNL     1       1.177   9.210  19.677  0.00  0.00    +0.000 A 
ATOM     25  C   UNL     1       1.753   8.789  18.492  0.00  0.00    +0.000 A 
ATOM     26  F   UNL     1       1.766   9.609  17.434  0.00  0.00    +0.000 F 
ATOM     27  C   UNL     1       2.319   7.523  18.384  0.00  0.00    +0.000 A 
ENDBRANCH  16  21
ENDBRANCH  15  16
ENDBRANCH   4  15
TORSDOF 7
ENDMDL
MODEL 9
REMARK VINA RESULT:      -7.0      4.741      7.762
REMARK  Name = 
REMARK  8 active torsions:
REMARK  status: ('A' for Active; 'I' for Inactive)
REMARK    1  A    between atoms: C_1  and  O_2
REMARK    2  A    between atoms: O_2  and  C_3
REMARK    3  A    between atoms: C_3  and  C_4
REMARK    4  A    between atoms: C_4  and  C_5
REMARK    5  A    between atoms: N_7  and  C_8
REMARK    6  A    between atoms: N_11  and  C_12
REMARK    7  A    between atoms: C_12  and  C_13
REMARK    8  A    between atoms: C_13  and  C_14
REMARK                            x       y       z     vdW  Elec       q    Type
REMARK                         _______ _______ _______ _____ _____    ______ ____
ROOT
ATOM      1  C   UNL     1       1.172   9.994  18.732  0.00  0.00    +0.000 C 
ATOM      2  C   UNL     1       2.136   9.245  17.824  0.00  0.00    +0.000 C 
ATOM      3  C   UNL     1       2.056   7.743  18.078  0.00  0.00    +0.000 C 
ATOM      4  N   UNL     1       2.340   7.368  19.469  0.00  0.00    +0.000 NA
ATOM      5  C   UNL     1       1.502   8.125  20.421  0.00  0.00    +0.000 C 
ATOM      6  C   UNL     1       1.530   9.637  20.178  0.00  0.00    +0.000 C 
ENDROOT
BRANCH   1   9
ATOM      7  C   UNL     1      -1.189  10.587  18.108  0.00  0.00    +0.000 C 
ATOM      8  O   UNL     1      -1.025  11.799  18.182  0.00  0.00    +0.000 OA
ATOM      9  N   UNL     1      -0.200   9.662  18.351  0.00  0.00    +0.000 N 
ATOM     10  H   UNL     1      -0.359   8.733  17.978  0.00  0.00    +0.000 HD
BRANCH   7  11
ATOM     11  C   UNL     1      -2.522   9.962  17.760  0.00  0.00    +0.000 C 
BRANCH  11  12
ATOM     12  C   UNL     1      -3.411  10.977  17.058  0.00  0.00    +0.000 C 
BRANCH  12  14
ATOM     13  C   UNL     1      -5.540  11.916  17.372  0.00  0.00    +0.000 C 
ATOM     14  O   UNL     1      -4.310  11.564  17.997  0.00  0.00    +0.000 OA
ENDBRANCH  12  14
ENDBRANCH  11  12
ENDBRANCH   7  11
ENDBRANCH   1   9
BRANCH   4  15
ATOM     15  C   UNL     1       2.188   5.910  19.713  0.00  0.00    +0.000 C 
BRANCH  15  16
ATOM     16  C   UNL     1       2.982   4.850  18.841  0.00  0.00    +0.000 C 
ATOM     17  C   UNL     1       3.012   3.529  19.669  0.00  0.00    +0.000 C 
ATOM     18  C   UNL     1       3.177   2.401  18.659  0.00  0.00    +0.000 C 
ATOM     19  C   UNL     1       2.415   2.861  17.433  0.00  0.00    +0.000 C 
ATOM     20  C   UNL     1       2.218   4.368  17.579  0.00  0.00    +0.000 C 
BRANCH  16  21
ATOM     21  C   UNL     1       4.372   5.406  18.458  0.00  0.00    +0.000 A 
ATOM     22  C   UNL     1       4.657   5.993  17.211  0.00  0.00    +0.000 A 
ATOM     23  C   UNL     1       5.945   6.434  16.882  0.00  0.00    +0.000 A 
ATOM     24  C   UNL     1       6.989   6.298  17.792  0.00  0.00    +0.000 A 
ATOM     25  C   UNL     1       6.728   5.737  19.029  0.00  0.00    +0.000 A 
ATOM     26  F   UNL     1       7.723   5.595  19.913  0.00  0.00    +0.000 F 
ATOM     27  C   UNL     1       5.447   5.317  19.366  0.00  0.00    +0.000 A 
ENDBRANCH  16  21
ENDBRANCH  15  16
ENDBRANCH   4  15
TORSDOF 7
ENDMDL
