MODEL 1
REMARK VINA RESULT:      -6.5      0.000      0.000
REMARK  Name = 
REMARK  3 active torsions:
REMARK  status: ('A' for Active; 'I' for Inactive)
REMARK    1  A    between atoms: C_1  and  C_2
REMARK    2  A    between atoms: C_5  and  C_6
REMARK    3  A    between atoms: C_15  and  N_16
REMARK                            x       y       z     vdW  Elec       q    Type
REMARK                         _______ _______ _______ _____ _____    ______ ____
ROOT
ATOM      1  C   UNL     1       2.690   6.778  19.498  0.00  0.00    +0.000 C 
ATOM      2  C   UNL     1       3.374   5.849  18.528  0.00  0.00    +0.000 A 
ATOM      3  C   UNL     1       4.117   6.486  17.533  0.00  0.00    +0.000 A 
ATOM      4  N   UNL     1       4.836   5.850  16.603  0.00  0.00    +0.000 NA
ATOM      5  C   UNL     1       4.848   4.492  16.623  0.00  0.00    +0.000 A 
ATOM      6  C   UNL     1       4.150   3.731  17.603  0.00  0.00    +0.000 A 
ATOM      7  C   UNL     1       4.252   2.316  17.653  0.00  0.00    +0.000 A 
ATOM      8  C   UNL     1       3.589   1.539  18.598  0.00  0.00    +0.000 A 
ATOM      9  C   UNL     1       2.745   2.152  19.500  0.00  0.00    +0.000 A 
ATOM     10  C   UNL     1       2.607   3.552  19.469  0.00  0.00    +0.000 A 
ATOM     11  C   UNL     1       3.337   4.410  18.566  0.00  0.00    +0.000 A 
ENDROOT
BRANCH   5  12
ATOM     12  C   UNL     1       5.691   3.835  15.523  0.00  0.00    +0.000 C 
ATOM     13  O   UNL     1       5.160   4.086  14.205  0.00  0.00    +0.000 OA
ATOM     14  C   UNL     1       6.314   4.293  13.400  0.00  0.00    +0.000 C 
ATOM     15  C   UNL     1       7.287   4.944  14.344  0.00  0.00    +0.000 C 
ATOM     16  O   UNL     1       7.061   4.275  15.587  0.00  0.00    +0.000 OA
ENDBRANCH   5  12
BRANCH  10  17
ATOM     17  N   UNL     1       1.589   4.064  20.378  0.00  0.00    +0.000 N 
ATOM     18  O   UNL     1       1.951   4.373  21.522  0.00  0.00    +0.000 OA
ATOM     19  O   UNL     1       0.418   4.064  19.975  0.00  0.00    +0.000 OA
ENDBRANCH  10  17
TORSDOF 2
ENDMDL
MODEL 2
REMARK VINA RESULT:      -6.5      2.911      6.169
REMARK  Name = 
REMARK  3 active torsions:
REMARK  status: ('A' for Active; 'I' for Inactive)
REMARK    1  A    between atoms: C_1  and  C_2
REMARK    2  A    between atoms: C_5  and  C_6
REMARK    3  A    between atoms: C_15  and  N_16
REMARK                            x       y       z     vdW  Elec       q    Type
REMARK                         _______ _______ _______ _____ _____    ______ ____
ROOT
ATOM      1  C   UNL     1       4.545   6.472  16.719  0.00  0.00    +0.000 C 
ATOM      2  C   UNL     1       3.616   6.773  17.867  0.00  0.00    +0.000 A 
ATOM      3  C   UNL     1       3.089   8.066  17.870  0.00  0.00    +0.000 A 
ATOM      4  N   UNL     1       2.213   8.522  18.772  0.00  0.00    +0.000 NA
ATOM      5  C   UNL     1       1.804   7.675  19.751  0.00  0.00    +0.000 A 
ATOM      6  C   UNL     1       2.252   6.327  19.838  0.00  0.00    +0.000 A 
ATOM      7  C   UNL     1       1.741   5.438  20.821  0.00  0.00    +0.000 A 
ATOM      8  C   UNL     1       2.151   4.113  20.934  0.00  0.00    +0.000 A 
ATOM      9  C   UNL     1       3.140   3.641  20.096  0.00  0.00    +0.000 A 
ATOM     10  C   UNL     1       3.681   4.499  19.121  0.00  0.00    +0.000 A 
ATOM     11  C   UNL     1       3.231   5.854  18.906  0.00  0.00    +0.000 A 
ENDROOT
BRANCH   5  12
ATOM     12  C   UNL     1       0.803   8.271  20.748  0.00  0.00    +0.000 C 
ATOM     13  O   UNL     1       1.426   8.626  22.001  0.00  0.00    +0.000 OA
ATOM     14  C   UNL     1       0.798   9.848  22.366  0.00  0.00    +0.000 C 
ATOM     15  C   UNL     1       0.518  10.507  21.044  0.00  0.00    +0.000 C 
ATOM     16  O   UNL     1       0.140   9.423  20.192  0.00  0.00    +0.000 OA
ENDBRANCH   5  12
BRANCH  10  17
ATOM     17  N   UNL     1       4.806   3.927  18.393  0.00  0.00    +0.000 N 
ATOM     18  O   UNL     1       4.547   3.217  17.411  0.00  0.00    +0.000 OA
ATOM     19  O   UNL     1       5.937   4.112  18.862  0.00  0.00    +0.000 OA
ENDBRANCH  10  17
TORSDOF 2
ENDMDL
MODEL 3
REMARK VINA RESULT:      -6.4      3.024      5.290
REMARK  Name = 
REMARK  3 active torsions:
REMARK  status: ('A' for Active; 'I' for Inactive)
REMARK    1  A    between atoms: C_1  and  C_2
REMARK    2  A    between atoms: C_5  and  C_6
REMARK    3  A    between atoms: C_15  and  N_16
REMARK                            x       y       z     vdW  Elec       q    Type
REMARK                         _______ _______ _______ _____ _____    ______ ____
ROOT
ATOM      1  C   UNL     1       2.281   3.098  21.374  0.00  0.00    +0.000 C 
ATOM      2  C   UNL     1       2.378   4.384  20.595  0.00  0.00    +0.000 A 
ATOM      3  C   UNL     1       1.549   5.409  21.053  0.00  0.00    +0.000 A 
ATOM      4  N   UNL     1       1.513   6.641  20.534  0.00  0.00    +0.000 NA
ATOM      5  C   UNL     1       2.338   6.920  19.492  0.00  0.00    +0.000 A 
ATOM      6  C   UNL     1       3.246   5.964  18.953  0.00  0.00    +0.000 A 
ATOM      7  C   UNL     1       4.159   6.309  17.922  0.00  0.00    +0.000 A 
ATOM      8  C   UNL     1       5.063   5.404  17.374  0.00  0.00    +0.000 A 
ATOM      9  C   UNL     1       5.047   4.094  17.803  0.00  0.00    +0.000 A 
ATOM     10  C   UNL     1       4.144   3.713  18.812  0.00  0.00    +0.000 A 
ATOM     11  C   UNL     1       3.246   4.630  19.473  0.00  0.00    +0.000 A 
ENDROOT
BRANCH   5  12
ATOM     12  C   UNL     1       2.237   8.350  18.949  0.00  0.00    +0.000 C 
ATOM     13  O   UNL     1       1.484   8.416  17.720  0.00  0.00    +0.000 OA
ATOM     14  C   UNL     1       0.725   9.612  17.842  0.00  0.00    +0.000 C 
ATOM     15  C   UNL     1       0.446   9.701  19.317  0.00  0.00    +0.000 C 
ATOM     16  O   UNL     1       1.653   9.236  19.924  0.00  0.00    +0.000 OA
ENDBRANCH   5  12
BRANCH  10  17
ATOM     17  N   UNL     1       4.132   2.281  19.081  0.00  0.00    +0.000 N 
ATOM     18  O   UNL     1       4.931   1.853  19.926  0.00  0.00    +0.000 OA
ATOM     19  O   UNL     1       3.391   1.579  18.379  0.00  0.00    +0.000 OA
ENDBRANCH  10  17
TORSDOF 2
ENDMDL
MODEL 4
REMARK VINA RESULT:      -6.2      1.020      2.855
REMARK  Name = 
REMARK  3 active torsions:
REMARK  status: ('A' for Active; 'I' for Inactive)
REMARK    1  A    between atoms: C_1  and  C_2
REMARK    2  A    between atoms: C_5  and  C_6
REMARK    3  A    between atoms: C_15  and  N_16
REMARK                            x       y       z     vdW  Elec       q    Type
REMARK                         _______ _______ _______ _____ _____    ______ ____
ROOT
ATOM      1  C   UNL     1       2.423   2.172  19.291  0.00  0.00    +0.000 C 
ATOM      2  C   UNL     1       3.207   3.148  18.452  0.00  0.00    +0.000 A 
ATOM      3  C   UNL     1       4.047   2.562  17.503  0.00  0.00    +0.000 A 
ATOM      4  N   UNL     1       4.793   3.246  16.630  0.00  0.00    +0.000 NA
ATOM      5  C   UNL     1       4.733   4.602  16.662  0.00  0.00    +0.000 A 
ATOM      6  C   UNL     1       3.895   5.314  17.567  0.00  0.00    +0.000 A 
ATOM      7  C   UNL     1       3.786   6.729  17.520  0.00  0.00    +0.000 A 
ATOM      8  C   UNL     1       2.975   7.458  18.385  0.00  0.00    +0.000 A 
ATOM      9  C   UNL     1       2.282   6.795  19.375  0.00  0.00    +0.000 A 
ATOM     10  C   UNL     1       2.380   5.394  19.463  0.00  0.00    +0.000 A 
ATOM     11  C   UNL     1       3.138   4.584  18.539  0.00  0.00    +0.000 A 
ENDROOT
BRANCH   5  12
ATOM     12  C   UNL     1       5.618   5.316  15.633  0.00  0.00    +0.000 C 
ATOM     13  O   UNL     1       7.024   5.113  15.889  0.00  0.00    +0.000 OA
ATOM     14  C   UNL     1       7.593   4.955  14.596  0.00  0.00    +0.000 C 
ATOM     15  C   UNL     1       6.502   4.277  13.814  0.00  0.00    +0.000 C 
ATOM     16  O   UNL     1       5.303   4.891  14.293  0.00  0.00    +0.000 OA
ENDBRANCH   5  12
BRANCH  10  17
ATOM     17  N   UNL     1       1.712   4.829  20.628  0.00  0.00    +0.000 N 
ATOM     18  O   UNL     1       2.411   4.584  21.622  0.00  0.00    +0.000 OA
ATOM     19  O   UNL     1       0.513   4.544  20.511  0.00  0.00    +0.000 OA
ENDBRANCH  10  17
TORSDOF 2
ENDMDL
MODEL 5
REMARK VINA RESULT:      -6.1      2.880      5.460
REMARK  Name = 
REMARK  3 active torsions:
REMARK  status: ('A' for Active; 'I' for Inactive)
REMARK    1  A    between atoms: C_1  and  C_2
REMARK    2  A    between atoms: C_5  and  C_6
REMARK    3  A    between atoms: C_15  and  N_16
REMARK                            x       y       z     vdW  Elec       q    Type
REMARK                         _______ _______ _______ _____ _____    ______ ____
ROOT
ATOM      1  C   UNL     1       1.704   2.653  20.489  0.00  0.00    +0.000 C 
ATOM      2  C   UNL     1       1.926   4.067  20.017  0.00  0.00    +0.000 A 
ATOM      3  C   UNL     1       1.293   5.046  20.785  0.00  0.00    +0.000 A 
ATOM      4  N   UNL     1       1.397   6.362  20.567  0.00  0.00    +0.000 NA
ATOM      5  C   UNL     1       2.169   6.778  19.530  0.00  0.00    +0.000 A 
ATOM      6  C   UNL     1       2.883   5.876  18.692  0.00  0.00    +0.000 A 
ATOM      7  C   UNL     1       3.752   6.344  17.671  0.00  0.00    +0.000 A 
ATOM      8  C   UNL     1       4.469   5.493  16.835  0.00  0.00    +0.000 A 
ATOM      9  C   UNL     1       4.296   4.130  16.954  0.00  0.00    +0.000 A 
ATOM     10  C   UNL     1       3.430   3.632  17.944  0.00  0.00    +0.000 A 
ATOM     11  C   UNL     1       2.729   4.467  18.891  0.00  0.00    +0.000 A 
ENDROOT
BRANCH   5  12
ATOM     12  C   UNL     1       2.236   8.299  19.341  0.00  0.00    +0.000 C 
ATOM     13  O   UNL     1       1.728   8.711  18.055  0.00  0.00    +0.000 OA
ATOM     14  C   UNL     1       1.014   9.909  18.331  0.00  0.00    +0.000 C 
ATOM     15  C   UNL     1       0.469   9.681  19.714  0.00  0.00    +0.000 C 
ATOM     16  O   UNL     1       1.520   8.984  20.387  0.00  0.00    +0.000 OA
ENDBRANCH   5  12
BRANCH  10  17
ATOM     17  N   UNL     1       3.230   2.190  17.880  0.00  0.00    +0.000 N 
ATOM     18  O   UNL     1       2.216   1.780  17.296  0.00  0.00    +0.000 OA
ATOM     19  O   UNL     1       4.036   1.478  18.495  0.00  0.00    +0.000 OA
ENDBRANCH  10  17
TORSDOF 2
ENDMDL
MODEL 6
REMARK VINA RESULT:      -6.0      0.996      1.002
REMARK  Name = 
REMARK  3 active torsions:
REMARK  status: ('A' for Active; 'I' for Inactive)
REMARK    1  A    between atoms: C_1  and  C_2
REMARK    2  A    between atoms: C_5  and  C_6
REMARK    3  A    between atoms: C_15  and  N_16
REMARK                            x       y       z     vdW  Elec       q    Type
REMARK                         _______ _______ _______ _____ _____    ______ ____
ROOT
ATOM      1  C   UNL     1       2.307   7.555  18.844  0.00  0.00    +0.000 C 
ATOM      2  C   UNL     1       3.266   6.581  18.208  0.00  0.00    +0.000 A 
ATOM      3  C   UNL     1       3.972   7.084  17.115  0.00  0.00    +0.000 A 
ATOM      4  N   UNL     1       4.902   6.402  16.437  0.00  0.00    +0.000 NA
ATOM      5  C   UNL     1       5.182   5.135  16.836  0.00  0.00    +0.000 A 
ATOM      6  C   UNL     1       4.546   4.521  17.952  0.00  0.00    +0.000 A 
ATOM      7  C   UNL     1       4.922   3.228  18.400  0.00  0.00    +0.000 A 
ATOM      8  C   UNL     1       4.326   2.598  19.489  0.00  0.00    +0.000 A 
ATOM      9  C   UNL     1       3.283   3.223  20.139  0.00  0.00    +0.000 A 
ATOM     10  C   UNL     1       2.872   4.499  19.711  0.00  0.00    +0.000 A 
ATOM     11  C   UNL     1       3.512   5.231  18.644  0.00  0.00    +0.000 A 
ENDROOT
BRANCH   5  12
ATOM     12  C   UNL     1       6.255   4.417  16.009  0.00  0.00    +0.000 C 
ATOM     13  O   UNL     1       5.694   3.708  14.884  0.00  0.00    +0.000 OA
ATOM     14  C   UNL     1       6.632   3.920  13.837  0.00  0.00    +0.000 C 
ATOM     15  C   UNL     1       7.170   5.295  14.121  0.00  0.00    +0.000 C 
ATOM     16  O   UNL     1       7.260   5.341  15.547  0.00  0.00    +0.000 OA
ENDBRANCH   5  12
BRANCH  10  17
ATOM     17  N   UNL     1       1.679   4.991  20.388  0.00  0.00    +0.000 N 
ATOM     18  O   UNL     1       1.832   5.883  21.235  0.00  0.00    +0.000 OA
ATOM     19  O   UNL     1       0.610   4.419  20.138  0.00  0.00    +0.000 OA
ENDBRANCH  10  17
TORSDOF 2
ENDMDL
MODEL 7
REMARK VINA RESULT:      -6.0      1.198      1.667
REMARK  Name = 
REMARK  3 active torsions:
REMARK  status: ('A' for Active; 'I' for Inactive)
REMARK    1  A    between atoms: C_1  and  C_2
REMARK    2  A    between atoms: C_5  and  C_6
REMARK    3  A    between atoms: C_15  and  N_16
REMARK                            x       y       z     vdW  Elec       q    Type
REMARK                         _______ _______ _______ _____ _____    ______ ____
ROOT
ATOM      1  C   UNL     1       1.460   5.869  20.541  0.00  0.00    +0.000 C 
ATOM      2  C   UNL     1       2.409   5.647  19.392  0.00  0.00    +0.000 A 
ATOM      3  C   UNL     1       2.954   6.812  18.850  0.00  0.00    +0.000 A 
ATOM      4  N   UNL     1       3.850   6.837  17.857  0.00  0.00    +0.000 NA
ATOM      5  C   UNL     1       4.261   5.651  17.338  0.00  0.00    +0.000 A 
ATOM      6  C   UNL     1       3.796   4.396  17.824  0.00  0.00    +0.000 A 
ATOM      7  C   UNL     1       4.310   3.171  17.323  0.00  0.00    +0.000 A 
ATOM      8  C   UNL     1       3.883   1.926  17.776  0.00  0.00    +0.000 A 
ATOM      9  C   UNL     1       2.876   1.862  18.715  0.00  0.00    +0.000 A 
ATOM     10  C   UNL     1       2.332   3.056  19.222  0.00  0.00    +0.000 A 
ATOM     11  C   UNL     1       2.797   4.371  18.850  0.00  0.00    +0.000 A 
ENDROOT
BRANCH   5  12
ATOM     12  C   UNL     1       5.285   5.761  16.202  0.00  0.00    +0.000 C 
ATOM     13  O   UNL     1       6.623   5.443  16.641  0.00  0.00    +0.000 OA
ATOM     14  C   UNL     1       7.178   4.710  15.557  0.00  0.00    +0.000 C 
ATOM     15  C   UNL     1       5.996   3.975  14.988  0.00  0.00    +0.000 C 
ATOM     16  O   UNL     1       4.924   4.914  15.094  0.00  0.00    +0.000 OA
ENDBRANCH   5  12
BRANCH  10  17
ATOM     17  N   UNL     1       1.188   2.855  20.103  0.00  0.00    +0.000 N 
ATOM     18  O   UNL     1       1.423   2.641  21.301  0.00  0.00    +0.000 OA
ATOM     19  O   UNL     1       0.068   2.817  19.577  0.00  0.00    +0.000 OA
ENDBRANCH  10  17
TORSDOF 2
ENDMDL
MODEL 8
REMARK VINA RESULT:      -6.0      1.728      5.591
REMARK  Name = 
REMARK  3 active torsions:
REMARK  status: ('A' for Active; 'I' for Inactive)
REMARK    1  A    between atoms: C_1  and  C_2
REMARK    2  A    between atoms: C_5  and  C_6
REMARK    3  A    between atoms: C_15  and  N_16
REMARK                            x       y       z     vdW  Elec       q    Type
REMARK                         _______ _______ _______ _____ _____    ______ ____
ROOT
ATOM      1  C   UNL     1       3.294   8.151  17.596  0.00  0.00    +0.000 C 
ATOM      2  C   UNL     1       3.180   6.724  18.069  0.00  0.00    +0.000 A 
ATOM      3  C   UNL     1       2.288   6.527  19.124  0.00  0.00    +0.000 A 
ATOM      4  N   UNL     1       2.006   5.335  19.662  0.00  0.00    +0.000 NA
ATOM      5  C   UNL     1       2.624   4.241  19.150  0.00  0.00    +0.000 A 
ATOM      6  C   UNL     1       3.535   4.312  18.057  0.00  0.00    +0.000 A 
ATOM      7  C   UNL     1       4.099   3.141  17.485  0.00  0.00    +0.000 A 
ATOM      8  C   UNL     1       4.989   3.171  16.415  0.00  0.00    +0.000 A 
ATOM      9  C   UNL     1       5.394   4.389  15.912  0.00  0.00    +0.000 A 
ATOM     10  C   UNL     1       4.868   5.571  16.466  0.00  0.00    +0.000 A 
ATOM     11  C   UNL     1       3.879   5.593  17.517  0.00  0.00    +0.000 A 
ENDROOT
BRANCH   5  12
ATOM     12  C   UNL     1       2.252   2.912  19.820  0.00  0.00    +0.000 C 
ATOM     13  O   UNL     1       3.231   2.502  20.797  0.00  0.00    +0.000 OA
ATOM     14  C   UNL     1       2.455   1.958  21.857  0.00  0.00    +0.000 C 
ATOM     15  C   UNL     1       1.197   2.782  21.830  0.00  0.00    +0.000 C 
ATOM     16  O   UNL     1       0.953   2.988  20.437  0.00  0.00    +0.000 OA
ENDBRANCH   5  12
BRANCH  10  17
ATOM     17  N   UNL     1       5.473   6.787  15.940  0.00  0.00    +0.000 N 
ATOM     18  O   UNL     1       5.065   7.200  14.845  0.00  0.00    +0.000 OA
ATOM     19  O   UNL     1       6.418   7.271  16.578  0.00  0.00    +0.000 OA
ENDBRANCH  10  17
TORSDOF 2
ENDMDL
MODEL 9
REMARK VINA RESULT:      -6.0      2.217      3.899
REMARK  Name = 
REMARK  3 active torsions:
REMARK  status: ('A' for Active; 'I' for Inactive)
REMARK    1  A    between atoms: C_1  and  C_2
REMARK    2  A    between atoms: C_5  and  C_6
REMARK    3  A    between atoms: C_15  and  N_16
REMARK                            x       y       z     vdW  Elec       q    Type
REMARK                         _______ _______ _______ _____ _____    ______ ____
ROOT
ATOM      1  C   UNL     1       1.842   4.938  21.300  0.00  0.00    +0.000 C 
ATOM      2  C   UNL     1       2.592   5.333  20.054  0.00  0.00    +0.000 A 
ATOM      3  C   UNL     1       3.409   4.334  19.521  0.00  0.00    +0.000 A 
ATOM      4  N   UNL     1       4.122   4.461  18.397  0.00  0.00    +0.000 NA
ATOM      5  C   UNL     1       4.050   5.638  17.724  0.00  0.00    +0.000 A 
ATOM      6  C   UNL     1       3.232   6.721  18.155  0.00  0.00    +0.000 A 
ATOM      7  C   UNL     1       3.108   7.908  17.384  0.00  0.00    +0.000 A 
ATOM      8  C   UNL     1       2.316   8.985  17.770  0.00  0.00    +0.000 A 
ATOM      9  C   UNL     1       1.658   8.936  18.981  0.00  0.00    +0.000 A 
ATOM     10  C   UNL     1       1.773   7.783  19.779  0.00  0.00    +0.000 A 
ATOM     11  C   UNL     1       2.511   6.606  19.386  0.00  0.00    +0.000 A 
ENDROOT
BRANCH   5  12
ATOM     12  C   UNL     1       4.898   5.709  16.448  0.00  0.00    +0.000 C 
ATOM     13  O   UNL     1       6.275   6.036  16.726  0.00  0.00    +0.000 OA
ATOM     14  C   UNL     1       7.014   5.223  15.823  0.00  0.00    +0.000 C 
ATOM     15  C   UNL     1       6.174   3.982  15.701  0.00  0.00    +0.000 C 
ATOM     16  O   UNL     1       4.831   4.473  15.712  0.00  0.00    +0.000 OA
ENDBRANCH   5  12
BRANCH  10  17
ATOM     17  N   UNL     1       1.145   7.908  21.088  0.00  0.00    +0.000 N 
ATOM     18  O   UNL     1      -0.052   7.601  21.177  0.00  0.00    +0.000 OA
ATOM     19  O   UNL     1       1.825   8.402  21.997  0.00  0.00    +0.000 OA
ENDBRANCH  10  17
TORSDOF 2
ENDMDL
