MODEL 1
REMARK VINA RESULT:      -8.6      0.000      0.000
REMARK  Name = 
REMARK  7 active torsions:
REMARK  status: ('A' for Active; 'I' for Inactive)
REMARK    1  A    between atoms: N_1  and  C_2
REMARK    2  A    between atoms: C_2  and  C_3
REMARK    3  A    between atoms: C_3  and  N_4
REMARK    4  A    between atoms: N_4  and  C_5
REMARK    5  A    between atoms: C_7  and  N_8
REMARK    6  A    between atoms: C_12  and  C_14
REMARK    7  A    between atoms: C_14  and  C_15
REMARK                            x       y       z     vdW  Elec       q    Type
REMARK                         _______ _______ _______ _____ _____    ______ ____
ROOT
ATOM      1  N   UNL     1       2.229   7.283  18.679  0.00  0.00    +0.000 N 
ATOM      2  C   UNL     1       1.593   7.176  19.999  0.00  0.00    +0.000 C 
ATOM      3  C   UNL     1       1.683   8.517  20.745  0.00  0.00    +0.000 C 
ATOM      4  N   UNL     1       1.199   9.634  19.921  0.00  0.00    +0.000 N 
ATOM      5  C   UNL     1       0.199  10.448  20.425  0.00  0.00    +0.000 C 
ATOM      6  O   UNL     1      -0.263  10.218  21.549  0.00  0.00    +0.000 OA
ATOM      7  C   UNL     1       1.856   9.717  18.607  0.00  0.00    +0.000 C 
ATOM      8  C   UNL     1       1.783   8.388  17.837  0.00  0.00    +0.000 C 
ENDROOT
BRANCH   1  11
ATOM      9  C   UNL     1       4.695   4.526  18.630  0.00  0.00    +0.000 A 
ATOM     10  C   UNL     1       3.686   5.403  19.041  0.00  0.00    +0.000 A 
ATOM     11  C   UNL     1       3.263   6.465  18.260  0.00  0.00    +0.000 A 
ATOM     12  N   UNL     1       3.839   6.690  17.065  0.00  0.00    +0.000 NA
ATOM     13  C   UNL     1       4.832   5.887  16.636  0.00  0.00    +0.000 A 
ATOM     14  C   UNL     1       5.425   6.176  15.418  0.00  0.00    +0.000 A 
ATOM     15  C   UNL     1       6.459   5.398  14.891  0.00  0.00    +0.000 A 
ATOM     16  C   UNL     1       6.918   4.299  15.599  0.00  0.00    +0.000 A 
ATOM     17  C   UNL     1       6.345   3.989  16.834  0.00  0.00    +0.000 A 
ATOM     18  C   UNL     1       5.300   4.778  17.379  0.00  0.00    +0.000 A 
BRANCH   9  19
ATOM     19  N   UNL     1       5.109   3.445  19.448  0.00  0.00    +0.000 N 
ATOM     20  H   UNL     1       5.928   3.017  19.022  0.00  0.00    +0.000 HD
BRANCH  19  21
ATOM     21  C   UNL     1       4.098   2.425  19.781  0.00  0.00    +0.000 C 
BRANCH  21  22
ATOM     22  C   UNL     1       3.584   1.694  18.532  0.00  0.00    +0.000 C 
BRANCH  22  23
ATOM     23  N   UNL     1       2.123   1.721  18.437  0.00  0.00    +0.000 NA
ATOM     24  H   UNL     1       1.763   0.795  18.665  0.00  0.00    +0.000 HD
ATOM     25  H   UNL     1       1.862   1.887  17.467  0.00  0.00    +0.000 HD
ENDBRANCH  22  23
ENDBRANCH  21  22
ENDBRANCH  19  21
ENDBRANCH   9  19
ENDBRANCH   1  11
BRANCH   5  26
ATOM     26  C   UNL     1      -0.386  11.620  19.570  0.00  0.00    +0.000 C 
ATOM     27  C   UNL     1      -0.801  12.759  20.545  0.00  0.00    +0.000 C 
ATOM     28  C   UNL     1      -0.698  14.058  19.762  0.00  0.00    +0.000 C 
ATOM     29  C   UNL     1       0.389  13.824  18.725  0.00  0.00    +0.000 C 
ATOM     30  C   UNL     1       0.741  12.334  18.778  0.00  0.00    +0.000 C 
BRANCH  26  31
ATOM     31  C   UNL     1      -1.591  11.175  18.711  0.00  0.00    +0.000 A 
ATOM     32  C   UNL     1      -1.439  10.230  17.677  0.00  0.00    +0.000 A 
ATOM     33  C   UNL     1      -2.511   9.892  16.841  0.00  0.00    +0.000 A 
ATOM     34  C   UNL     1      -3.765  10.461  17.043  0.00  0.00    +0.000 A 
ATOM     35  C   UNL     1      -3.950  11.359  18.086  0.00  0.00    +0.000 A 
ATOM     36  C   UNL     1      -2.878  11.706  18.903  0.00  0.00    +0.000 A 
ENDBRANCH  26  31
ENDBRANCH   5  26
TORSDOF 7
ENDMDL
MODEL 2
REMARK VINA RESULT:      -8.4      1.443      1.712
REMARK  Name = 
REMARK  7 active torsions:
REMARK  status: ('A' for Active; 'I' for Inactive)
REMARK    1  A    between atoms: N_1  and  C_2
REMARK    2  A    between atoms: C_2  and  C_3
REMARK    3  A    between atoms: C_3  and  N_4
REMARK    4  A    between atoms: N_4  and  C_5
REMARK    5  A    between atoms: C_7  and  N_8
REMARK    6  A    between atoms: C_12  and  C_14
REMARK    7  A    between atoms: C_14  and  C_15
REMARK                            x       y       z     vdW  Elec       q    Type
REMARK                         _______ _______ _______ _____ _____    ______ ____
ROOT
ATOM      1  N   UNL     1       1.493   8.280  19.554  0.00  0.00    +0.000 N 
ATOM      2  C   UNL     1       1.121   8.491  20.960  0.00  0.00    +0.000 C 
ATOM      3  C   UNL     1       1.454   9.929  21.389  0.00  0.00    +0.000 C 
ATOM      4  N   UNL     1       0.902  10.920  20.454  0.00  0.00    +0.000 N 
ATOM      5  C   UNL     1       0.083  11.920  20.952  0.00  0.00    +0.000 C 
ATOM      6  O   UNL     1      -0.165  11.956  22.162  0.00  0.00    +0.000 OA
ATOM      7  C   UNL     1       1.293  10.685  19.056  0.00  0.00    +0.000 C 
ATOM      8  C   UNL     1       0.973   9.252  18.598  0.00  0.00    +0.000 C 
ENDROOT
BRANCH   1  11
ATOM      9  C   UNL     1       3.258   5.035  19.377  0.00  0.00    +0.000 A 
ATOM     10  C   UNL     1       2.428   6.078  19.800  0.00  0.00    +0.000 A 
ATOM     11  C   UNL     1       2.361   7.289  19.134  0.00  0.00    +0.000 A 
ATOM     12  N   UNL     1       3.124   7.499  18.046  0.00  0.00    +0.000 NA
ATOM     13  C   UNL     1       3.958   6.534  17.614  0.00  0.00    +0.000 A 
ATOM     14  C   UNL     1       4.755   6.803  16.513  0.00  0.00    +0.000 A 
ATOM     15  C   UNL     1       5.647   5.863  15.991  0.00  0.00    +0.000 A 
ATOM     16  C   UNL     1       5.750   4.615  16.585  0.00  0.00    +0.000 A 
ATOM     17  C   UNL     1       4.965   4.318  17.701  0.00  0.00    +0.000 A 
ATOM     18  C   UNL     1       4.063   5.269  18.240  0.00  0.00    +0.000 A 
BRANCH   9  19
ATOM     19  N   UNL     1       3.307   3.803  20.077  0.00  0.00    +0.000 N 
ATOM     20  H   UNL     1       3.059   3.057  19.430  0.00  0.00    +0.000 HD
BRANCH  19  21
ATOM     21  C   UNL     1       2.520   3.700  21.319  0.00  0.00    +0.000 C 
BRANCH  21  22
ATOM     22  C   UNL     1       1.383   2.676  21.198  0.00  0.00    +0.000 C 
BRANCH  22  23
ATOM     23  N   UNL     1       0.367   3.089  20.227  0.00  0.00    +0.000 NA
ATOM     24  H   UNL     1      -0.052   2.255  19.817  0.00  0.00    +0.000 HD
ATOM     25  H   UNL     1       0.827   3.573  19.459  0.00  0.00    +0.000 HD
ENDBRANCH  22  23
ENDBRANCH  21  22
ENDBRANCH  19  21
ENDBRANCH   9  19
ENDBRANCH   1  11
BRANCH   5  26
ATOM     26  C   UNL     1      -0.570  12.970  19.994  0.00  0.00    +0.000 C 
ATOM     27  C   UNL     1      -0.917  14.231  20.836  0.00  0.00    +0.000 C 
ATOM     28  C   UNL     1      -0.879  15.413  19.881  0.00  0.00    +0.000 C 
ATOM     29  C   UNL     1       0.129  15.038  18.806  0.00  0.00    +0.000 C 
ATOM     30  C   UNL     1       0.491  13.566  19.032  0.00  0.00    +0.000 C 
BRANCH  26  31
ATOM     31  C   UNL     1      -1.833  12.420  19.294  0.00  0.00    +0.000 A 
ATOM     32  C   UNL     1      -1.761  11.836  18.014  0.00  0.00    +0.000 A 
ATOM     33  C   UNL     1      -2.917  11.418  17.342  0.00  0.00    +0.000 A 
ATOM     34  C   UNL     1      -4.164  11.539  17.949  0.00  0.00    +0.000 A 
ATOM     35  C   UNL     1      -4.254  12.067  19.229  0.00  0.00    +0.000 A 
ATOM     36  C   UNL     1      -3.105  12.499  19.886  0.00  0.00    +0.000 A 
ENDBRANCH  26  31
ENDBRANCH   5  26
TORSDOF 7
ENDMDL
MODEL 3
REMARK VINA RESULT:      -8.4      1.378      1.880
REMARK  Name = 
REMARK  7 active torsions:
REMARK  status: ('A' for Active; 'I' for Inactive)
REMARK    1  A    between atoms: N_1  and  C_2
REMARK    2  A    between atoms: C_2  and  C_3
REMARK    3  A    between atoms: C_3  and  N_4
REMARK    4  A    between atoms: N_4  and  C_5
REMARK    5  A    between atoms: C_7  and  N_8
REMARK    6  A    between atoms: C_12  and  C_14
REMARK    7  A    between atoms: C_14  and  C_15
REMARK                            x       y       z     vdW  Elec       q    Type
REMARK                         _______ _______ _______ _____ _____    ______ ____
ROOT
ATOM      1  N   UNL     1       1.372   8.271  19.725  0.00  0.00    +0.000 N 
ATOM      2  C   UNL     1       0.957   8.479  21.120  0.00  0.00    +0.000 C 
ATOM      3  C   UNL     1       1.333   9.896  21.582  0.00  0.00    +0.000 C 
ATOM      4  N   UNL     1       0.856  10.921  20.643  0.00  0.00    +0.000 N 
ATOM      5  C   UNL     1       0.061  11.947  21.125  0.00  0.00    +0.000 C 
ATOM      6  O   UNL     1      -0.231  11.977  22.326  0.00  0.00    +0.000 OA
ATOM      7  C   UNL     1       1.290  10.689  19.257  0.00  0.00    +0.000 C 
ATOM      8  C   UNL     1       0.929   9.277  18.765  0.00  0.00    +0.000 C 
ENDROOT
BRANCH   1  11
ATOM      9  C   UNL     1       3.016   4.962  19.571  0.00  0.00    +0.000 A 
ATOM     10  C   UNL     1       2.214   6.033  19.978  0.00  0.00    +0.000 A 
ATOM     11  C   UNL     1       2.214   7.251  19.323  0.00  0.00    +0.000 A 
ATOM     12  N   UNL     1       3.019   7.441  18.261  0.00  0.00    +0.000 NA
ATOM     13  C   UNL     1       3.827   6.448  17.845  0.00  0.00    +0.000 A 
ATOM     14  C   UNL     1       4.668   6.696  16.772  0.00  0.00    +0.000 A 
ATOM     15  C   UNL     1       5.540   5.726  16.269  0.00  0.00    +0.000 A 
ATOM     16  C   UNL     1       5.575   4.470  16.853  0.00  0.00    +0.000 A 
ATOM     17  C   UNL     1       4.745   4.194  17.942  0.00  0.00    +0.000 A 
ATOM     18  C   UNL     1       3.864   5.175  18.462  0.00  0.00    +0.000 A 
BRANCH   9  19
ATOM     19  N   UNL     1       2.995   3.723  20.260  0.00  0.00    +0.000 N 
ATOM     20  H   UNL     1       3.683   3.107  19.832  0.00  0.00    +0.000 HD
BRANCH  19  21
ATOM     21  C   UNL     1       1.693   3.043  20.388  0.00  0.00    +0.000 C 
BRANCH  21  22
ATOM     22  C   UNL     1       1.174   2.533  19.036  0.00  0.00    +0.000 C 
BRANCH  22  23
ATOM     23  N   UNL     1       2.136   1.652  18.370  0.00  0.00    +0.000 NA
ATOM     24  H   UNL     1       1.629   0.888  17.927  0.00  0.00    +0.000 HD
ATOM     25  H   UNL     1       2.727   1.219  19.076  0.00  0.00    +0.000 HD
ENDBRANCH  22  23
ENDBRANCH  21  22
ENDBRANCH  19  21
ENDBRANCH   9  19
ENDBRANCH   1  11
BRANCH   5  26
ATOM     26  C   UNL     1      -0.512  13.037  20.159  0.00  0.00    +0.000 C 
ATOM     27  C   UNL     1      -0.926  14.265  21.020  0.00  0.00    +0.000 C 
ATOM     28  C   UNL     1      -0.810  15.484  20.118  0.00  0.00    +0.000 C 
ATOM     29  C   UNL     1       0.281  15.147  19.114  0.00  0.00    +0.000 C 
ATOM     30  C   UNL     1       0.624  13.667  19.311  0.00  0.00    +0.000 C 
BRANCH  26  31
ATOM     31  C   UNL     1      -1.715  12.519  19.339  0.00  0.00    +0.000 A 
ATOM     32  C   UNL     1      -3.015  12.509  19.880  0.00  0.00    +0.000 A 
ATOM     33  C   UNL     1      -4.091  11.957  19.170  0.00  0.00    +0.000 A 
ATOM     34  C   UNL     1      -3.897  11.439  17.893  0.00  0.00    +0.000 A 
ATOM     35  C   UNL     1      -2.633  11.482  17.321  0.00  0.00    +0.000 A 
ATOM     36  C   UNL     1      -1.563  12.014  18.036  0.00  0.00    +0.000 A 
ENDBRANCH  26  31
ENDBRANCH   5  26
TORSDOF 7
ENDMDL
MODEL 4
REMARK VINA RESULT:      -8.3      2.130      8.988
REMARK  Name = 
REMARK  7 active torsions:
REMARK  status: ('A' for Active; 'I' for Inactive)
REMARK    1  A    between atoms: N_1  and  C_2
REMARK    2  A    between atoms: C_2  and  C_3
REMARK    3  A    between atoms: C_3  and  N_4
REMARK    4  A    between atoms: N_4  and  C_5
REMARK    5  A    between atoms: C_7  and  N_8
REMARK    6  A    between atoms: C_12  and  C_14
REMARK    7  A    between atoms: C_14  and  C_15
REMARK                            x       y       z     vdW  Elec       q    Type
REMARK                         _______ _______ _______ _____ _____    ______ ____
ROOT
ATOM      1  N   UNL     1       1.775   8.889  19.466  0.00  0.00    +0.000 N 
ATOM      2  C   UNL     1       1.820   8.273  20.799  0.00  0.00    +0.000 C 
ATOM      3  C   UNL     1       1.276   6.837  20.741  0.00  0.00    +0.000 C 
ATOM      4  N   UNL     1       1.923   6.050  19.681  0.00  0.00    +0.000 N 
ATOM      5  C   UNL     1       2.525   4.849  20.018  0.00  0.00    +0.000 C 
ATOM      6  O   UNL     1       2.507   4.468  21.193  0.00  0.00    +0.000 OA
ATOM      7  C   UNL     1       1.860   6.690  18.358  0.00  0.00    +0.000 C 
ATOM      8  C   UNL     1       2.397   8.131  18.385  0.00  0.00    +0.000 C 
ENDROOT
BRANCH   1  11
ATOM      9  C   UNL     1      -0.938  11.229  18.549  0.00  0.00    +0.000 A 
ATOM     10  C   UNL     1      -0.217  10.056  18.789  0.00  0.00    +0.000 A 
ATOM     11  C   UNL     1       1.108  10.069  19.191  0.00  0.00    +0.000 A 
ATOM     12  N   UNL     1       1.750  11.241  19.348  0.00  0.00    +0.000 NA
ATOM     13  C   UNL     1       1.104  12.398  19.105  0.00  0.00    +0.000 A 
ATOM     14  C   UNL     1       1.811  13.582  19.241  0.00  0.00    +0.000 A 
ATOM     15  C   UNL     1       1.225  14.830  19.013  0.00  0.00    +0.000 A 
ATOM     16  C   UNL     1      -0.107  14.901  18.638  0.00  0.00    +0.000 A 
ATOM     17  C   UNL     1      -0.842  13.724  18.484  0.00  0.00    +0.000 A 
ATOM     18  C   UNL     1      -0.253  12.454  18.706  0.00  0.00    +0.000 A 
BRANCH   9  19
ATOM     19  N   UNL     1      -2.295  11.188  18.139  0.00  0.00    +0.000 N 
ATOM     20  H   UNL     1      -2.881  11.354  18.955  0.00  0.00    +0.000 HD
BRANCH  19  21
ATOM     21  C   UNL     1      -2.744   9.989  17.408  0.00  0.00    +0.000 C 
BRANCH  21  22
ATOM     22  C   UNL     1      -2.676  10.182  15.887  0.00  0.00    +0.000 C 
BRANCH  22  23
ATOM     23  N   UNL     1      -3.133  11.511  15.476  0.00  0.00    +0.000 NA
ATOM     24  H   UNL     1      -2.851  12.188  16.183  0.00  0.00    +0.000 HD
ATOM     25  H   UNL     1      -4.151  11.521  15.475  0.00  0.00    +0.000 HD
ENDBRANCH  22  23
ENDBRANCH  21  22
ENDBRANCH  19  21
ENDBRANCH   9  19
ENDBRANCH   1  11
BRANCH   5  26
ATOM     26  C   UNL     1       3.270   3.997  18.937  0.00  0.00    +0.000 C 
ATOM     27  C   UNL     1       3.653   2.636  19.586  0.00  0.00    +0.000 C 
ATOM     28  C   UNL     1       3.716   1.621  18.456  0.00  0.00    +0.000 C 
ATOM     29  C   UNL     1       2.730   2.114  17.409  0.00  0.00    +0.000 C 
ATOM     30  C   UNL     1       2.279   3.512  17.846  0.00  0.00    +0.000 C 
BRANCH  26  31
ATOM     31  C   UNL     1       4.527   4.712  18.391  0.00  0.00    +0.000 A 
ATOM     32  C   UNL     1       4.640   5.045  17.027  0.00  0.00    +0.000 A 
ATOM     33  C   UNL     1       5.815   5.612  16.515  0.00  0.00    +0.000 A 
ATOM     34  C   UNL     1       6.885   5.893  17.360  0.00  0.00    +0.000 A 
ATOM     35  C   UNL     1       6.777   5.617  18.716  0.00  0.00    +0.000 A 
ATOM     36  C   UNL     1       5.616   5.036  19.218  0.00  0.00    +0.000 A 
ENDBRANCH  26  31
ENDBRANCH   5  26
TORSDOF 7
ENDMDL
MODEL 5
REMARK VINA RESULT:      -8.3      2.689      9.340
REMARK  Name = 
REMARK  7 active torsions:
REMARK  status: ('A' for Active; 'I' for Inactive)
REMARK    1  A    between atoms: N_1  and  C_2
REMARK    2  A    between atoms: C_2  and  C_3
REMARK    3  A    between atoms: C_3  and  N_4
REMARK    4  A    between atoms: N_4  and  C_5
REMARK    5  A    between atoms: C_7  and  N_8
REMARK    6  A    between atoms: C_12  and  C_14
REMARK    7  A    between atoms: C_14  and  C_15
REMARK                            x       y       z     vdW  Elec       q    Type
REMARK                         _______ _______ _______ _____ _____    ______ ____
ROOT
ATOM      1  N   UNL     1       1.856   8.507  19.310  0.00  0.00    +0.000 N 
ATOM      2  C   UNL     1       1.908   7.278  20.114  0.00  0.00    +0.000 C 
ATOM      3  C   UNL     1       2.005   6.046  19.199  0.00  0.00    +0.000 C 
ATOM      4  N   UNL     1       3.090   6.181  18.216  0.00  0.00    +0.000 N 
ATOM      5  C   UNL     1       4.053   5.188  18.149  0.00  0.00    +0.000 C 
ATOM      6  O   UNL     1       3.982   4.219  18.912  0.00  0.00    +0.000 OA
ATOM      7  C   UNL     1       3.010   7.418  17.425  0.00  0.00    +0.000 C 
ATOM      8  C   UNL     1       2.910   8.669  18.314  0.00  0.00    +0.000 C 
ENDROOT
BRANCH   1  11
ATOM      9  C   UNL     1      -0.908  10.750  18.306  0.00  0.00    +0.000 A 
ATOM     10  C   UNL     1       0.163   9.852  18.257  0.00  0.00    +0.000 A 
ATOM     11  C   UNL     1       0.832   9.432  19.393  0.00  0.00    +0.000 A 
ATOM     12  N   UNL     1       0.465   9.903  20.599  0.00  0.00    +0.000 NA
ATOM     13  C   UNL     1      -0.546  10.787  20.696  0.00  0.00    +0.000 A 
ATOM     14  C   UNL     1      -0.867  11.277  21.952  0.00  0.00    +0.000 A 
ATOM     15  C   UNL     1      -1.902  12.195  22.151  0.00  0.00    +0.000 A 
ATOM     16  C   UNL     1      -2.639  12.641  21.065  0.00  0.00    +0.000 A 
ATOM     17  C   UNL     1      -2.331  12.172  19.786  0.00  0.00    +0.000 A 
ATOM     18  C   UNL     1      -1.279  11.246  19.576  0.00  0.00    +0.000 A 
BRANCH   9  19
ATOM     19  N   UNL     1      -1.578  11.163  17.126  0.00  0.00    +0.000 N 
ATOM     20  H   UNL     1      -2.187  11.944  17.361  0.00  0.00    +0.000 HD
BRANCH  19  21
ATOM     21  C   UNL     1      -2.315  10.133  16.373  0.00  0.00    +0.000 C 
BRANCH  21  22
ATOM     22  C   UNL     1      -3.441  10.738  15.521  0.00  0.00    +0.000 C 
BRANCH  22  23
ATOM     23  N   UNL     1      -3.507  10.142  14.186  0.00  0.00    +0.000 NA
ATOM     24  H   UNL     1      -3.477   9.128  14.278  0.00  0.00    +0.000 HD
ATOM     25  H   UNL     1      -2.666  10.397  13.672  0.00  0.00    +0.000 HD
ENDBRANCH  22  23
ENDBRANCH  21  22
ENDBRANCH  19  21
ENDBRANCH   9  19
ENDBRANCH   1  11
BRANCH   5  26
ATOM     26  C   UNL     1       5.255   5.306  17.154  0.00  0.00    +0.000 C 
ATOM     27  C   UNL     1       5.796   3.872  16.890  0.00  0.00    +0.000 C 
ATOM     28  C   UNL     1       6.421   3.894  15.504  0.00  0.00    +0.000 C 
ATOM     29  C   UNL     1       5.656   4.953  14.727  0.00  0.00    +0.000 C 
ATOM     30  C   UNL     1       4.754   5.676  15.733  0.00  0.00    +0.000 C 
BRANCH  26  31
ATOM     31  C   UNL     1       6.378   6.219  17.697  0.00  0.00    +0.000 A 
ATOM     32  C   UNL     1       6.602   7.499  17.153  0.00  0.00    +0.000 A 
ATOM     33  C   UNL     1       7.675   8.290  17.584  0.00  0.00    +0.000 A 
ATOM     34  C   UNL     1       8.522   7.838  18.591  0.00  0.00    +0.000 A 
ATOM     35  C   UNL     1       8.291   6.599  19.174  0.00  0.00    +0.000 A 
ATOM     36  C   UNL     1       7.235   5.807  18.731  0.00  0.00    +0.000 A 
ENDBRANCH  26  31
ENDBRANCH   5  26
TORSDOF 7
ENDMDL
MODEL 6
REMARK VINA RESULT:      -8.2      1.264      1.459
REMARK  Name = 
REMARK  7 active torsions:
REMARK  status: ('A' for Active; 'I' for Inactive)
REMARK    1  A    between atoms: N_1  and  C_2
REMARK    2  A    between atoms: C_2  and  C_3
REMARK    3  A    between atoms: C_3  and  N_4
REMARK    4  A    between atoms: N_4  and  C_5
REMARK    5  A    between atoms: C_7  and  N_8
REMARK    6  A    between atoms: C_12  and  C_14
REMARK    7  A    between atoms: C_14  and  C_15
REMARK                            x       y       z     vdW  Elec       q    Type
REMARK                         _______ _______ _______ _____ _____    ______ ____
ROOT
ATOM      1  N   UNL     1       1.586   8.293  19.406  0.00  0.00    +0.000 N 
ATOM      2  C   UNL     1       1.146   8.422  20.802  0.00  0.00    +0.000 C 
ATOM      3  C   UNL     1       1.425   9.843  21.319  0.00  0.00    +0.000 C 
ATOM      4  N   UNL     1       0.890  10.869  20.412  0.00  0.00    +0.000 N 
ATOM      5  C   UNL     1       0.026  11.822  20.922  0.00  0.00    +0.000 C 
ATOM      6  O   UNL     1      -0.277  11.790  22.120  0.00  0.00    +0.000 OA
ATOM      7  C   UNL     1       1.350  10.716  19.023  0.00  0.00    +0.000 C 
ATOM      8  C   UNL     1       1.086   9.302  18.478  0.00  0.00    +0.000 C 
ENDROOT
BRANCH   1  11
ATOM      9  C   UNL     1       3.547   5.161  19.246  0.00  0.00    +0.000 A 
ATOM     10  C   UNL     1       2.671   6.164  19.675  0.00  0.00    +0.000 A 
ATOM     11  C   UNL     1       2.496   7.345  18.976  0.00  0.00    +0.000 A 
ATOM     12  N   UNL     1       3.194   7.566  17.847  0.00  0.00    +0.000 NA
ATOM     13  C   UNL     1       4.067   6.640  17.405  0.00  0.00    +0.000 A 
ATOM     14  C   UNL     1       4.795   6.922  16.260  0.00  0.00    +0.000 A 
ATOM     15  C   UNL     1       5.721   6.022  15.726  0.00  0.00    +0.000 A 
ATOM     16  C   UNL     1       5.930   4.804  16.353  0.00  0.00    +0.000 A 
ATOM     17  C   UNL     1       5.219   4.496  17.514  0.00  0.00    +0.000 A 
ATOM     18  C   UNL     1       4.283   5.407  18.065  0.00  0.00    +0.000 A 
BRANCH   9  19
ATOM     19  N   UNL     1       3.707   3.959  19.981  0.00  0.00    +0.000 N 
ATOM     20  H   UNL     1       4.688   3.691  19.945  0.00  0.00    +0.000 HD
BRANCH  19  21
ATOM     21  C   UNL     1       2.841   2.824  19.615  0.00  0.00    +0.000 C 
BRANCH  21  22
ATOM     22  C   UNL     1       3.643   1.654  19.026  0.00  0.00    +0.000 C 
BRANCH  22  23
ATOM     23  N   UNL     1       4.924   1.461  19.709  0.00  0.00    +0.000 NA
ATOM     24  H   UNL     1       5.500   0.831  19.153  0.00  0.00    +0.000 HD
ATOM     25  H   UNL     1       4.756   0.977  20.589  0.00  0.00    +0.000 HD
ENDBRANCH  22  23
ENDBRANCH  21  22
ENDBRANCH  19  21
ENDBRANCH   9  19
ENDBRANCH   1  11
BRANCH   5  26
ATOM     26  C   UNL     1      -0.609  12.907  19.990  0.00  0.00    +0.000 C 
ATOM     27  C   UNL     1      -0.970  14.138  20.870  0.00  0.00    +0.000 C 
ATOM     28  C   UNL     1      -0.914  15.353  19.958  0.00  0.00    +0.000 C 
ATOM     29  C   UNL     1       0.113  15.014  18.889  0.00  0.00    +0.000 C 
ATOM     30  C   UNL     1       0.470  13.535  19.069  0.00  0.00    +0.000 C 
BRANCH  26  31
ATOM     31  C   UNL     1      -1.860  12.384  19.249  0.00  0.00    +0.000 A 
ATOM     32  C   UNL     1      -1.763  11.833  17.956  0.00  0.00    +0.000 A 
ATOM     33  C   UNL     1      -2.907  11.440  17.249  0.00  0.00    +0.000 A 
ATOM     34  C   UNL     1      -4.166  11.554  17.831  0.00  0.00    +0.000 A 
ATOM     35  C   UNL     1      -4.281  12.050  19.122  0.00  0.00    +0.000 A 
ATOM     36  C   UNL     1      -3.144  12.456  19.815  0.00  0.00    +0.000 A 
ENDBRANCH  26  31
ENDBRANCH   5  26
TORSDOF 7
ENDMDL
MODEL 7
REMARK VINA RESULT:      -8.1      0.961      2.688
REMARK  Name = 
REMARK  7 active torsions:
REMARK  status: ('A' for Active; 'I' for Inactive)
REMARK    1  A    between atoms: N_1  and  C_2
REMARK    2  A    between atoms: C_2  and  C_3
REMARK    3  A    between atoms: C_3  and  N_4
REMARK    4  A    between atoms: N_4  and  C_5
REMARK    5  A    between atoms: C_7  and  N_8
REMARK    6  A    between atoms: C_12  and  C_14
REMARK    7  A    between atoms: C_14  and  C_15
REMARK                            x       y       z     vdW  Elec       q    Type
REMARK                         _______ _______ _______ _____ _____    ______ ____
ROOT
ATOM      1  N   UNL     1       2.221   7.103  18.912  0.00  0.00    +0.000 N 
ATOM      2  C   UNL     1       1.590   6.889  20.222  0.00  0.00    +0.000 C 
ATOM      3  C   UNL     1       1.685   8.165  21.074  0.00  0.00    +0.000 C 
ATOM      4  N   UNL     1       1.198   9.346  20.346  0.00  0.00    +0.000 N 
ATOM      5  C   UNL     1       0.201  10.117  20.920  0.00  0.00    +0.000 C 
ATOM      6  O   UNL     1      -0.256   9.797  22.023  0.00  0.00    +0.000 OA
ATOM      7  C   UNL     1       1.850   9.536  19.041  0.00  0.00    +0.000 C 
ATOM      8  C   UNL     1       1.772   8.274  18.166  0.00  0.00    +0.000 C 
ENDROOT
BRANCH   1  11
ATOM      9  C   UNL     1       4.727   4.394  18.662  0.00  0.00    +0.000 A 
ATOM     10  C   UNL     1       3.719   5.236  19.144  0.00  0.00    +0.000 A 
ATOM     11  C   UNL     1       3.252   6.322  18.424  0.00  0.00    +0.000 A 
ATOM     12  N   UNL     1       3.782   6.607  17.220  0.00  0.00    +0.000 NA
ATOM     13  C   UNL     1       4.771   5.839  16.724  0.00  0.00    +0.000 A 
ATOM     14  C   UNL     1       5.316   6.188  15.499  0.00  0.00    +0.000 A 
ATOM     15  C   UNL     1       6.344   5.451  14.904  0.00  0.00    +0.000 A 
ATOM     16  C   UNL     1       6.844   4.332  15.549  0.00  0.00    +0.000 A 
ATOM     17  C   UNL     1       6.321   3.961  16.789  0.00  0.00    +0.000 A 
ATOM     18  C   UNL     1       5.284   4.708  17.402  0.00  0.00    +0.000 A 
BRANCH   9  19
ATOM     19  N   UNL     1       5.186   3.287  19.419  0.00  0.00    +0.000 N 
ATOM     20  H   UNL     1       5.981   2.876  18.934  0.00  0.00    +0.000 HD
BRANCH  19  21
ATOM     21  C   UNL     1       4.197   2.254  19.772  0.00  0.00    +0.000 C 
BRANCH  21  22
ATOM     22  C   UNL     1       3.567   1.609  18.529  0.00  0.00    +0.000 C 
BRANCH  22  23
ATOM     23  N   UNL     1       2.104   1.619  18.581  0.00  0.00    +0.000 NA
ATOM     24  H   UNL     1       1.745   1.028  17.833  0.00  0.00    +0.000 HD
ATOM     25  H   UNL     1       1.775   2.559  18.372  0.00  0.00    +0.000 HD
ENDBRANCH  22  23
ENDBRANCH  21  22
ENDBRANCH  19  21
ENDBRANCH   9  19
ENDBRANCH   1  11
BRANCH   5  26
ATOM     26  C   UNL     1      -0.386  11.356  20.165  0.00  0.00    +0.000 C 
ATOM     27  C   UNL     1      -1.059  10.843  18.860  0.00  0.00    +0.000 C 
ATOM     28  C   UNL     1      -2.159  11.837  18.521  0.00  0.00    +0.000 C 
ATOM     29  C   UNL     1      -2.613  12.413  19.853  0.00  0.00    +0.000 C 
ATOM     30  C   UNL     1      -1.627  11.912  20.913  0.00  0.00    +0.000 C 
BRANCH  26  31
ATOM     31  C   UNL     1       0.695  12.411  19.841  0.00  0.00    +0.000 A 
ATOM     32  C   UNL     1       0.950  12.809  18.514  0.00  0.00    +0.000 A 
ATOM     33  C   UNL     1       1.989  13.698  18.212  0.00  0.00    +0.000 A 
ATOM     34  C   UNL     1       2.770  14.238  19.230  0.00  0.00    +0.000 A 
ATOM     35  C   UNL     1       2.506  13.897  20.549  0.00  0.00    +0.000 A 
ATOM     36  C   UNL     1       1.484  12.998  20.844  0.00  0.00    +0.000 A 
ENDBRANCH  26  31
ENDBRANCH   5  26
TORSDOF 7
ENDMDL
MODEL 8
REMARK VINA RESULT:      -8.1      1.857      2.998
REMARK  Name = 
REMARK  7 active torsions:
REMARK  status: ('A' for Active; 'I' for Inactive)
REMARK    1  A    between atoms: N_1  and  C_2
REMARK    2  A    between atoms: C_2  and  C_3
REMARK    3  A    between atoms: C_3  and  N_4
REMARK    4  A    between atoms: N_4  and  C_5
REMARK    5  A    between atoms: C_7  and  N_8
REMARK    6  A    between atoms: C_12  and  C_14
REMARK    7  A    between atoms: C_14  and  C_15
REMARK                            x       y       z     vdW  Elec       q    Type
REMARK                         _______ _______ _______ _____ _____    ______ ____
ROOT
ATOM      1  N   UNL     1       1.629   7.749  19.847  0.00  0.00    +0.000 N 
ATOM      2  C   UNL     1       1.177   7.585  21.236  0.00  0.00    +0.000 C 
ATOM      3  C   UNL     1       1.435   8.872  22.036  0.00  0.00    +0.000 C 
ATOM      4  N   UNL     1       0.895  10.056  21.352  0.00  0.00    +0.000 N 
ATOM      5  C   UNL     1       0.015  10.876  22.038  0.00  0.00    +0.000 C 
ATOM      6  O   UNL     1      -0.297  10.596  23.201  0.00  0.00    +0.000 OA
ATOM      7  C   UNL     1       1.367  10.196  19.966  0.00  0.00    +0.000 C 
ATOM      8  C   UNL     1       1.125   8.921  19.140  0.00  0.00    +0.000 C 
ENDROOT
BRANCH   1  11
ATOM      9  C   UNL     1       3.758   4.799  19.180  0.00  0.00    +0.000 A 
ATOM     10  C   UNL     1       2.864   5.686  19.789  0.00  0.00    +0.000 A 
ATOM     11  C   UNL     1       2.554   6.919  19.241  0.00  0.00    +0.000 A 
ATOM     12  N   UNL     1       3.133   7.306  18.089  0.00  0.00    +0.000 NA
ATOM     13  C   UNL     1       4.019   6.496  17.478  0.00  0.00    +0.000 A 
ATOM     14  C   UNL     1       4.621   6.947  16.315  0.00  0.00    +0.000 A 
ATOM     15  C   UNL     1       5.550   6.177  15.610  0.00  0.00    +0.000 A 
ATOM     16  C   UNL     1       5.890   4.918  16.078  0.00  0.00    +0.000 A 
ATOM     17  C   UNL     1       5.305   4.440  17.253  0.00  0.00    +0.000 A 
ATOM     18  C   UNL     1       4.368   5.219  17.977  0.00  0.00    +0.000 A 
BRANCH   9  19
ATOM     19  N   UNL     1       4.057   3.541  19.761  0.00  0.00    +0.000 N 
ATOM     20  H   UNL     1       4.846   3.136  19.260  0.00  0.00    +0.000 HD
BRANCH  19  21
ATOM     21  C   UNL     1       2.955   2.569  19.873  0.00  0.00    +0.000 C 
BRANCH  21  22
ATOM     22  C   UNL     1       2.805   1.720  18.603  0.00  0.00    +0.000 C 
BRANCH  22  23
ATOM     23  N   UNL     1       3.998   0.916  18.329  0.00  0.00    +0.000 NA
ATOM     24  H   UNL     1       4.111   0.831  17.320  0.00  0.00    +0.000 HD
ATOM     25  H   UNL     1       3.840  -0.030  18.671  0.00  0.00    +0.000 HD
ENDBRANCH  22  23
ENDBRANCH  21  22
ENDBRANCH  19  21
ENDBRANCH   9  19
ENDBRANCH   1  11
BRANCH   5  26
ATOM     26  C   UNL     1      -0.626  12.123  21.342  0.00  0.00    +0.000 C 
ATOM     27  C   UNL     1       0.530  13.045  20.860  0.00  0.00    +0.000 C 
ATOM     28  C   UNL     1      -0.001  13.813  19.660  0.00  0.00    +0.000 C 
ATOM     29  C   UNL     1      -1.038  12.903  19.019  0.00  0.00    +0.000 C 
ATOM     30  C   UNL     1      -1.248  11.726  19.977  0.00  0.00    +0.000 C 
BRANCH  26  31
ATOM     31  C   UNL     1      -1.579  12.893  22.282  0.00  0.00    +0.000 A 
ATOM     32  C   UNL     1      -1.088  13.842  23.200  0.00  0.00    +0.000 A 
ATOM     33  C   UNL     1      -1.941  14.476  24.113  0.00  0.00    +0.000 A 
ATOM     34  C   UNL     1      -3.306  14.204  24.105  0.00  0.00    +0.000 A 
ATOM     35  C   UNL     1      -3.819  13.307  23.178  0.00  0.00    +0.000 A 
ATOM     36  C   UNL     1      -2.966  12.665  22.284  0.00  0.00    +0.000 A 
ENDBRANCH  26  31
ENDBRANCH   5  26
TORSDOF 7
ENDMDL
MODEL 9
REMARK VINA RESULT:      -8.1      1.023      1.240
REMARK  Name = 
REMARK  7 active torsions:
REMARK  status: ('A' for Active; 'I' for Inactive)
REMARK    1  A    between atoms: N_1  and  C_2
REMARK    2  A    between atoms: C_2  and  C_3
REMARK    3  A    between atoms: C_3  and  N_4
REMARK    4  A    between atoms: N_4  and  C_5
REMARK    5  A    between atoms: C_7  and  N_8
REMARK    6  A    between atoms: C_12  and  C_14
REMARK    7  A    between atoms: C_14  and  C_15
REMARK                            x       y       z     vdW  Elec       q    Type
REMARK                         _______ _______ _______ _____ _____    ______ ____
ROOT
ATOM      1  N   UNL     1       1.826   7.774  18.779  0.00  0.00    +0.000 N 
ATOM      2  C   UNL     1       1.346   7.770  20.168  0.00  0.00    +0.000 C 
ATOM      3  C   UNL     1       1.563   9.149  20.812  0.00  0.00    +0.000 C 
ATOM      4  N   UNL     1       1.019  10.232  19.980  0.00  0.00    +0.000 N 
ATOM      5  C   UNL     1       0.110  11.111  20.544  0.00  0.00    +0.000 C 
ATOM      6  O   UNL     1      -0.223  10.966  21.725  0.00  0.00    +0.000 OA
ATOM      7  C   UNL     1       1.519  10.212  18.596  0.00  0.00    +0.000 C 
ATOM      8  C   UNL     1       1.317   8.843  17.926  0.00  0.00    +0.000 C 
ENDROOT
BRANCH   1  11
ATOM      9  C   UNL     1       3.388   4.657  17.548  0.00  0.00    +0.000 A 
ATOM     10  C   UNL     1       2.467   5.564  18.079  0.00  0.00    +0.000 A 
ATOM     11  C   UNL     1       2.778   6.896  18.297  0.00  0.00    +0.000 A 
ATOM     12  N   UNL     1       4.011   7.352  18.008  0.00  0.00    +0.000 NA
ATOM     13  C   UNL     1       4.940   6.510  17.516  0.00  0.00    +0.000 A 
ATOM     14  C   UNL     1       6.208   7.011  17.268  0.00  0.00    +0.000 A 
ATOM     15  C   UNL     1       7.236   6.214  16.756  0.00  0.00    +0.000 A 
ATOM     16  C   UNL     1       6.994   4.878  16.483  0.00  0.00    +0.000 A 
ATOM     17  C   UNL     1       5.728   4.343  16.731  0.00  0.00    +0.000 A 
ATOM     18  C   UNL     1       4.682   5.143  17.258  0.00  0.00    +0.000 A 
BRANCH   9  19
ATOM     19  N   UNL     1       3.044   3.298  17.333  0.00  0.00    +0.000 N 
ATOM     20  H   UNL     1       2.336   3.259  16.602  0.00  0.00    +0.000 HD
BRANCH  19  21
ATOM     21  C   UNL     1       2.624   2.515  18.509  0.00  0.00    +0.000 C 
BRANCH  21  22
ATOM     22  C   UNL     1       3.721   1.549  18.980  0.00  0.00    +0.000 C 
BRANCH  22  23
ATOM     23  N   UNL     1       4.854   2.251  19.585  0.00  0.00    +0.000 NA
ATOM     24  H   UNL     1       5.630   2.252  18.925  0.00  0.00    +0.000 HD
ATOM     25  H   UNL     1       5.177   1.717  20.390  0.00  0.00    +0.000 HD
ENDBRANCH  22  23
ENDBRANCH  21  22
ENDBRANCH  19  21
ENDBRANCH   9  19
ENDBRANCH   1  11
BRANCH   5  26
ATOM     26  C   UNL     1      -0.536  12.251  19.689  0.00  0.00    +0.000 C 
ATOM     27  C   UNL     1      -0.885  13.425  20.648  0.00  0.00    +0.000 C 
ATOM     28  C   UNL     1      -0.840  14.694  19.812  0.00  0.00    +0.000 C 
ATOM     29  C   UNL     1       0.172  14.423  18.711  0.00  0.00    +0.000 C 
ATOM     30  C   UNL     1       0.531  12.935  18.795  0.00  0.00    +0.000 C 
BRANCH  26  31
ATOM     31  C   UNL     1      -1.797  11.774  18.933  0.00  0.00    +0.000 A 
ATOM     32  C   UNL     1      -1.695  10.966  17.784  0.00  0.00    +0.000 A 
ATOM     33  C   UNL     1      -2.831  10.607  17.048  0.00  0.00    +0.000 A 
ATOM     34  C   UNL     1      -4.096  11.015  17.464  0.00  0.00    +0.000 A 
ATOM     35  C   UNL     1      -4.224  11.773  18.620  0.00  0.00    +0.000 A 
ATOM     36  C   UNL     1      -3.091  12.143  19.339  0.00  0.00    +0.000 A 
ENDBRANCH  26  31
ENDBRANCH   5  26
TORSDOF 7
ENDMDL
