MODEL 1
REMARK VINA RESULT:      -8.1      0.000      0.000
REMARK  Name = 
REMARK  7 active torsions:
REMARK  status: ('A' for Active; 'I' for Inactive)
REMARK    1  A    between atoms: C_1  and  C_2
REMARK    2  A    between atoms: C_2  and  O_3
REMARK    3  A    between atoms: O_3  and  C_4
REMARK    4  A    between atoms: C_7  and  N_8
REMARK    5  A    between atoms: C_13  and  N_14
REMARK    6  A    between atoms: C_17  and  N_18
REMARK    7  A    between atoms: N_21  and  C_22
REMARK                            x       y       z     vdW  Elec       q    Type
REMARK                         _______ _______ _______ _____ _____    ______ ____
ROOT
ATOM      1  N   UNL     1       1.584   7.163  21.046  0.00  0.00    +0.000 N 
ATOM      2  C   UNL     1       2.214   6.047  20.488  0.00  0.00    +0.000 A 
ATOM      3  N   UNL     1       1.758   4.847  20.873  0.00  0.00    +0.000 NA
ATOM      4  C   UNL     1       2.367   3.769  20.357  0.00  0.00    +0.000 A 
ATOM      5  N   UNL     1       1.759   2.550  20.664  0.00  0.00    +0.000 N 
ATOM      6  C   UNL     1       3.437   3.889  19.487  0.00  0.00    +0.000 A 
ATOM      7  C   UNL     1       3.856   5.144  19.095  0.00  0.00    +0.000 A 
ATOM      8  N   UNL     1       3.225   6.214  19.612  0.00  0.00    +0.000 NA
ATOM      9  H   UNL     1       0.769   6.838  21.552  0.00  0.00    +0.000 HD
ATOM     10  H   UNL     1       1.025   2.696  21.352  0.00  0.00    +0.000 HD
ATOM     11  H   UNL     1       2.404   1.809  20.928  0.00  0.00    +0.000 HD
ENDROOT
BRANCH   7  12
ATOM     12  N   UNL     1       4.818   5.386  18.138  0.00  0.00    +0.000 N 
ATOM     13  C   UNL     1       4.581   6.405  17.102  0.00  0.00    +0.000 C 
ATOM     14  C   UNL     1       5.238   5.920  15.779  0.00  0.00    +0.000 C 
ATOM     15  N   UNL     1       6.669   5.539  15.915  0.00  0.00    +0.000 NA
ATOM     16  C   UNL     1       7.153   4.927  14.677  0.00  0.00    +0.000 C 
ATOM     17  C   UNL     1       6.842   4.594  17.043  0.00  0.00    +0.000 C 
ATOM     18  C   UNL     1       6.247   5.144  18.358  0.00  0.00    +0.000 C 
ENDBRANCH   7  12
BRANCH   1  22
ATOM     19  C   UNL     1       0.867  10.884  19.187  0.00  0.00    +0.000 A 
ATOM     20  C   UNL     1       1.359   9.817  18.440  0.00  0.00    +0.000 A 
ATOM     21  C   UNL     1       1.600   8.586  19.046  0.00  0.00    +0.000 A 
ATOM     22  C   UNL     1       1.378   8.403  20.414  0.00  0.00    +0.000 A 
ATOM     23  C   UNL     1       0.877   9.479  21.157  0.00  0.00    +0.000 A 
ATOM     24  C   UNL     1       0.642  10.721  20.553  0.00  0.00    +0.000 A 
BRANCH  19  25
ATOM     25  O   UNL     1       0.666  12.031  18.475  0.00  0.00    +0.000 OA
BRANCH  25  27
ATOM     26  C   UNL     1      -1.650  11.979  17.966  0.00  0.00    +0.000 C 
ATOM     27  C   UNL     1      -0.558  12.721  18.716  0.00  0.00    +0.000 C 
ENDBRANCH  25  27
ENDBRANCH  19  25
ENDBRANCH   1  22
BRANCH   6  28
ATOM     28  N   UNL     1       4.033   2.693  18.986  0.00  0.00    +0.000 N 
ATOM     29  O   UNL     1       4.872   2.143  19.718  0.00  0.00    +0.000 OA
ATOM     30  O   UNL     1       3.671   2.274  17.879  0.00  0.00    +0.000 OA
ENDBRANCH   6  28
TORSDOF 5
ENDMDL
MODEL 2
REMARK VINA RESULT:      -8.1      0.732      1.119
REMARK  Name = 
REMARK  7 active torsions:
REMARK  status: ('A' for Active; 'I' for Inactive)
REMARK    1  A    between atoms: C_1  and  C_2
REMARK    2  A    between atoms: C_2  and  O_3
REMARK    3  A    between atoms: O_3  and  C_4
REMARK    4  A    between atoms: C_7  and  N_8
REMARK    5  A    between atoms: C_13  and  N_14
REMARK    6  A    between atoms: C_17  and  N_18
REMARK    7  A    between atoms: N_21  and  C_22
REMARK                            x       y       z     vdW  Elec       q    Type
REMARK                         _______ _______ _______ _____ _____    ______ ____
ROOT
ATOM      1  N   UNL     1       1.585   7.186  21.020  0.00  0.00    +0.000 N 
ATOM      2  C   UNL     1       2.214   6.068  20.462  0.00  0.00    +0.000 A 
ATOM      3  N   UNL     1       1.751   4.869  20.844  0.00  0.00    +0.000 NA
ATOM      4  C   UNL     1       2.358   3.789  20.329  0.00  0.00    +0.000 A 
ATOM      5  N   UNL     1       1.744   2.572  20.632  0.00  0.00    +0.000 N 
ATOM      6  C   UNL     1       3.432   3.906  19.464  0.00  0.00    +0.000 A 
ATOM      7  C   UNL     1       3.858   5.160  19.075  0.00  0.00    +0.000 A 
ATOM      8  N   UNL     1       3.229   6.232  19.591  0.00  0.00    +0.000 NA
ATOM      9  H   UNL     1       0.767   6.863  21.522  0.00  0.00    +0.000 HD
ATOM     10  H   UNL     1       1.008   2.720  21.317  0.00  0.00    +0.000 HD
ATOM     11  H   UNL     1       2.386   1.828  20.898  0.00  0.00    +0.000 HD
ENDROOT
BRANCH   7  12
ATOM     12  N   UNL     1       4.824   5.400  18.122  0.00  0.00    +0.000 N 
ATOM     13  C   UNL     1       4.601   6.430  17.095  0.00  0.00    +0.000 C 
ATOM     14  C   UNL     1       5.256   5.948  15.769  0.00  0.00    +0.000 C 
ATOM     15  N   UNL     1       6.683   5.552  15.905  0.00  0.00    +0.000 NA
ATOM     16  C   UNL     1       7.163   4.945  14.664  0.00  0.00    +0.000 C 
ATOM     17  C   UNL     1       6.844   4.595  17.026  0.00  0.00    +0.000 C 
ATOM     18  C   UNL     1       6.251   5.142  18.344  0.00  0.00    +0.000 C 
ENDBRANCH   7  12
BRANCH   1  22
ATOM     19  C   UNL     1       0.891  10.913  19.164  0.00  0.00    +0.000 A 
ATOM     20  C   UNL     1       1.363   9.840  18.414  0.00  0.00    +0.000 A 
ATOM     21  C   UNL     1       1.597   8.606  19.018  0.00  0.00    +0.000 A 
ATOM     22  C   UNL     1       1.387   8.427  20.389  0.00  0.00    +0.000 A 
ATOM     23  C   UNL     1       0.906   9.509  21.136  0.00  0.00    +0.000 A 
ATOM     24  C   UNL     1       0.679  10.754  20.533  0.00  0.00    +0.000 A 
BRANCH  19  25
ATOM     25  O   UNL     1       0.695  12.061  18.453  0.00  0.00    +0.000 OA
BRANCH  25  27
ATOM     26  C   UNL     1       2.600  13.448  18.182  0.00  0.00    +0.000 C 
ATOM     27  C   UNL     1       1.317  13.238  18.965  0.00  0.00    +0.000 C 
ENDBRANCH  25  27
ENDBRANCH  19  25
ENDBRANCH   1  22
BRANCH   6  28
ATOM     28  N   UNL     1       4.026   2.709  18.964  0.00  0.00    +0.000 N 
ATOM     29  O   UNL     1       3.653   2.331  17.842  0.00  0.00    +0.000 OA
ATOM     30  O   UNL     1       4.875   2.138  19.661  0.00  0.00    +0.000 OA
ENDBRANCH   6  28
TORSDOF 5
ENDMDL
MODEL 3
REMARK VINA RESULT:      -8.1      0.792      1.361
REMARK  Name = 
REMARK  7 active torsions:
REMARK  status: ('A' for Active; 'I' for Inactive)
REMARK    1  A    between atoms: C_1  and  C_2
REMARK    2  A    between atoms: C_2  and  O_3
REMARK    3  A    between atoms: O_3  and  C_4
REMARK    4  A    between atoms: C_7  and  N_8
REMARK    5  A    between atoms: C_13  and  N_14
REMARK    6  A    between atoms: C_17  and  N_18
REMARK    7  A    between atoms: N_21  and  C_22
REMARK                            x       y       z     vdW  Elec       q    Type
REMARK                         _______ _______ _______ _____ _____    ______ ____
ROOT
ATOM      1  N   UNL     1       1.574   7.201  20.986  0.00  0.00    +0.000 N 
ATOM      2  C   UNL     1       2.211   6.081  20.444  0.00  0.00    +0.000 A 
ATOM      3  N   UNL     1       1.756   4.884  20.838  0.00  0.00    +0.000 NA
ATOM      4  C   UNL     1       2.371   3.802  20.338  0.00  0.00    +0.000 A 
ATOM      5  N   UNL     1       1.765   2.584  20.654  0.00  0.00    +0.000 N 
ATOM      6  C   UNL     1       3.446   3.917  19.473  0.00  0.00    +0.000 A 
ATOM      7  C   UNL     1       3.865   5.169  19.071  0.00  0.00    +0.000 A 
ATOM      8  N   UNL     1       3.227   6.242  19.572  0.00  0.00    +0.000 NA
ATOM      9  H   UNL     1       0.757   6.878  21.491  0.00  0.00    +0.000 HD
ATOM     10  H   UNL     1       1.027   2.736  21.336  0.00  0.00    +0.000 HD
ATOM     11  H   UNL     1       2.411   1.848  20.930  0.00  0.00    +0.000 HD
ENDROOT
BRANCH   7  12
ATOM     12  N   UNL     1       4.831   5.404  18.117  0.00  0.00    +0.000 N 
ATOM     13  C   UNL     1       4.611   6.434  17.088  0.00  0.00    +0.000 C 
ATOM     14  C   UNL     1       5.263   5.949  15.763  0.00  0.00    +0.000 C 
ATOM     15  N   UNL     1       6.688   5.547  15.898  0.00  0.00    +0.000 NA
ATOM     16  C   UNL     1       7.166   4.937  14.657  0.00  0.00    +0.000 C 
ATOM     17  C   UNL     1       6.846   4.590  17.020  0.00  0.00    +0.000 C 
ATOM     18  C   UNL     1       6.257   5.140  18.338  0.00  0.00    +0.000 C 
ENDBRANCH   7  12
BRANCH   1  22
ATOM     19  C   UNL     1       1.058  10.899  19.017  0.00  0.00    +0.000 A 
ATOM     20  C   UNL     1       0.738  10.779  20.367  0.00  0.00    +0.000 A 
ATOM     21  C   UNL     1       0.904   9.562  21.024  0.00  0.00    +0.000 A 
ATOM     22  C   UNL     1       1.368   8.434  20.341  0.00  0.00    +0.000 A 
ATOM     23  C   UNL     1       1.694   8.564  18.986  0.00  0.00    +0.000 A 
ATOM     24  C   UNL     1       1.520   9.784  18.319  0.00  0.00    +0.000 A 
BRANCH  19  25
ATOM     25  O   UNL     1       0.859  12.144  18.494  0.00  0.00    +0.000 OA
BRANCH  25  27
ATOM     26  C   UNL     1       2.714  13.591  18.197  0.00  0.00    +0.000 C 
ATOM     27  C   UNL     1       1.567  13.213  19.116  0.00  0.00    +0.000 C 
ENDBRANCH  25  27
ENDBRANCH  19  25
ENDBRANCH   1  22
BRANCH   6  28
ATOM     28  N   UNL     1       4.049   2.718  18.989  0.00  0.00    +0.000 N 
ATOM     29  O   UNL     1       4.886   2.178  19.732  0.00  0.00    +0.000 OA
ATOM     30  O   UNL     1       3.696   2.286  17.884  0.00  0.00    +0.000 OA
ENDBRANCH   6  28
TORSDOF 5
ENDMDL
MODEL 4
REMARK VINA RESULT:      -7.3      0.976      1.123
REMARK  Name = 
REMARK  7 active torsions:
REMARK  status: ('A' for Active; 'I' for Inactive)
REMARK    1  A    between atoms: C_1  and  C_2
REMARK    2  A    between atoms: C_2  and  O_3
REMARK    3  A    between atoms: O_3  and  C_4
REMARK    4  A    between atoms: C_7  and  N_8
REMARK    5  A    between atoms: C_13  and  N_14
REMARK    6  A    between atoms: C_17  and  N_18
REMARK    7  A    between atoms: N_21  and  C_22
REMARK                            x       y       z     vdW  Elec       q    Type
REMARK                         _______ _______ _______ _____ _____    ______ ____
ROOT
ATOM      1  N   UNL     1       1.569   7.313  21.254  0.00  0.00    +0.000 N 
ATOM      2  C   UNL     1       2.162   6.150  20.752  0.00  0.00    +0.000 A 
ATOM      3  N   UNL     1       1.950   5.023  21.446  0.00  0.00    +0.000 NA
ATOM      4  C   UNL     1       2.528   3.904  20.984  0.00  0.00    +0.000 A 
ATOM      5  N   UNL     1       2.153   2.734  21.647  0.00  0.00    +0.000 N 
ATOM      6  C   UNL     1       3.331   3.917  19.856  0.00  0.00    +0.000 A 
ATOM      7  C   UNL     1       3.500   5.094  19.156  0.00  0.00    +0.000 A 
ATOM      8  N   UNL     1       2.901   6.204  19.626  0.00  0.00    +0.000 NA
ATOM      9  H   UNL     1       0.945   7.043  22.004  0.00  0.00    +0.000 HD
ATOM     10  H   UNL     1       1.600   2.966  22.467  0.00  0.00    +0.000 HD
ATOM     11  H   UNL     1       2.921   2.100  21.856  0.00  0.00    +0.000 HD
ENDROOT
BRANCH   7  12
ATOM     12  N   UNL     1       4.163   5.204  17.952  0.00  0.00    +0.000 N 
ATOM     13  C   UNL     1       3.769   4.352  16.818  0.00  0.00    +0.000 C 
ATOM     14  C   UNL     1       5.048   3.992  16.010  0.00  0.00    +0.000 C 
ATOM     15  N   UNL     1       5.865   5.168  15.609  0.00  0.00    +0.000 NA
ATOM     16  C   UNL     1       7.131   4.731  15.018  0.00  0.00    +0.000 C 
ATOM     17  C   UNL     1       6.131   6.031  16.783  0.00  0.00    +0.000 C 
ATOM     18  C   UNL     1       4.831   6.434  17.514  0.00  0.00    +0.000 C 
ENDBRANCH   7  12
BRANCH   1  22
ATOM     19  C   UNL     1      -0.000  10.504  18.980  0.00  0.00    +0.000 A 
ATOM     20  C   UNL     1       1.049   9.740  18.475  0.00  0.00    +0.000 A 
ATOM     21  C   UNL     1       1.575   8.685  19.220  0.00  0.00    +0.000 A 
ATOM     22  C   UNL     1       1.079   8.389  20.493  0.00  0.00    +0.000 A 
ATOM     23  C   UNL     1       0.020   9.158  20.991  0.00  0.00    +0.000 A 
ATOM     24  C   UNL     1      -0.505  10.224  20.249  0.00  0.00    +0.000 A 
BRANCH  19  25
ATOM     25  O   UNL     1      -0.428  11.499  18.150  0.00  0.00    +0.000 OA
BRANCH  25  27
ATOM     26  C   UNL     1      -2.209  10.417  17.018  0.00  0.00    +0.000 C 
ATOM     27  C   UNL     1      -1.834  11.575  17.924  0.00  0.00    +0.000 C 
ENDBRANCH  25  27
ENDBRANCH  19  25
ENDBRANCH   1  22
BRANCH   6  28
ATOM     28  N   UNL     1       3.914   2.686  19.432  0.00  0.00    +0.000 N 
ATOM     29  O   UNL     1       5.111   2.514  19.711  0.00  0.00    +0.000 OA
ATOM     30  O   UNL     1       3.198   1.870  18.836  0.00  0.00    +0.000 OA
ENDBRANCH   6  28
TORSDOF 5
ENDMDL
MODEL 5
REMARK VINA RESULT:      -7.2      1.301      1.863
REMARK  Name = 
REMARK  7 active torsions:
REMARK  status: ('A' for Active; 'I' for Inactive)
REMARK    1  A    between atoms: C_1  and  C_2
REMARK    2  A    between atoms: C_2  and  O_3
REMARK    3  A    between atoms: O_3  and  C_4
REMARK    4  A    between atoms: C_7  and  N_8
REMARK    5  A    between atoms: C_13  and  N_14
REMARK    6  A    between atoms: C_17  and  N_18
REMARK    7  A    between atoms: N_21  and  C_22
REMARK                            x       y       z     vdW  Elec       q    Type
REMARK                         _______ _______ _______ _____ _____    ______ ____
ROOT
ATOM      1  N   UNL     1       1.215   6.982  21.211  0.00  0.00    +0.000 N 
ATOM      2  C   UNL     1       1.937   5.933  20.633  0.00  0.00    +0.000 A 
ATOM      3  N   UNL     1       1.408   4.707  20.750  0.00  0.00    +0.000 NA
ATOM      4  C   UNL     1       2.101   3.691  20.215  0.00  0.00    +0.000 A 
ATOM      5  N   UNL     1       1.439   2.461  20.223  0.00  0.00    +0.000 N 
ATOM      6  C   UNL     1       3.322   3.894  19.594  0.00  0.00    +0.000 A 
ATOM      7  C   UNL     1       3.816   5.177  19.472  0.00  0.00    +0.000 A 
ATOM      8  N   UNL     1       3.101   6.186  20.002  0.00  0.00    +0.000 NA
ATOM      9  H   UNL     1       0.315   6.616  21.498  0.00  0.00    +0.000 HD
ATOM     10  H   UNL     1       0.585   2.535  20.770  0.00  0.00    +0.000 HD
ATOM     11  H   UNL     1       2.016   1.670  20.500  0.00  0.00    +0.000 HD
ENDROOT
BRANCH   7  12
ATOM     12  N   UNL     1       4.948   5.518  18.762  0.00  0.00    +0.000 N 
ATOM     13  C   UNL     1       6.272   5.091  19.244  0.00  0.00    +0.000 C 
ATOM     14  C   UNL     1       7.298   6.210  18.908  0.00  0.00    +0.000 C 
ATOM     15  N   UNL     1       7.296   6.628  17.481  0.00  0.00    +0.000 NA
ATOM     16  C   UNL     1       8.153   7.800  17.293  0.00  0.00    +0.000 C 
ATOM     17  C   UNL     1       5.916   6.940  17.041  0.00  0.00    +0.000 C 
ATOM     18  C   UNL     1       4.941   5.775  17.318  0.00  0.00    +0.000 C 
ENDBRANCH   7  12
BRANCH   1  22
ATOM     19  C   UNL     1       0.903  10.955  19.820  0.00  0.00    +0.000 A 
ATOM     20  C   UNL     1       1.195   9.926  18.928  0.00  0.00    +0.000 A 
ATOM     21  C   UNL     1       1.302   8.612  19.379  0.00  0.00    +0.000 A 
ATOM     22  C   UNL     1       1.143   8.303  20.733  0.00  0.00    +0.000 A 
ATOM     23  C   UNL     1       0.843   9.341  21.622  0.00  0.00    +0.000 A 
ATOM     24  C   UNL     1       0.744  10.665  21.174  0.00  0.00    +0.000 A 
BRANCH  19  25
ATOM     25  O   UNL     1       0.818  12.193  19.252  0.00  0.00    +0.000 OA
BRANCH  25  27
ATOM     26  C   UNL     1       2.650  13.311  18.243  0.00  0.00    +0.000 C 
ATOM     27  C   UNL     1       1.884  13.096  19.536  0.00  0.00    +0.000 C 
ENDBRANCH  25  27
ENDBRANCH  19  25
ENDBRANCH   1  22
BRANCH   6  28
ATOM     28  N   UNL     1       3.999   2.760  19.055  0.00  0.00    +0.000 N 
ATOM     29  O   UNL     1       3.781   2.500  17.860  0.00  0.00    +0.000 OA
ATOM     30  O   UNL     1       4.763   2.125  19.793  0.00  0.00    +0.000 OA
ENDBRANCH   6  28
TORSDOF 5
ENDMDL
MODEL 6
REMARK VINA RESULT:      -7.1      0.995      1.427
REMARK  Name = 
REMARK  7 active torsions:
REMARK  status: ('A' for Active; 'I' for Inactive)
REMARK    1  A    between atoms: C_1  and  C_2
REMARK    2  A    between atoms: C_2  and  O_3
REMARK    3  A    between atoms: O_3  and  C_4
REMARK    4  A    between atoms: C_7  and  N_8
REMARK    5  A    between atoms: C_13  and  N_14
REMARK    6  A    between atoms: C_17  and  N_18
REMARK    7  A    between atoms: N_21  and  C_22
REMARK                            x       y       z     vdW  Elec       q    Type
REMARK                         _______ _______ _______ _____ _____    ______ ____
ROOT
ATOM      1  N   UNL     1       1.211   6.974  21.173  0.00  0.00    +0.000 N 
ATOM      2  C   UNL     1       1.949   5.919  20.627  0.00  0.00    +0.000 A 
ATOM      3  N   UNL     1       1.441   4.689  20.785  0.00  0.00    +0.000 NA
ATOM      4  C   UNL     1       2.149   3.667  20.280  0.00  0.00    +0.000 A 
ATOM      5  N   UNL     1       1.508   2.428  20.331  0.00  0.00    +0.000 N 
ATOM      6  C   UNL     1       3.364   3.872  19.647  0.00  0.00    +0.000 A 
ATOM      7  C   UNL     1       3.836   5.158  19.481  0.00  0.00    +0.000 A 
ATOM      8  N   UNL     1       3.106   6.171  19.982  0.00  0.00    +0.000 NA
ATOM      9  H   UNL     1       0.319   6.603  21.476  0.00  0.00    +0.000 HD
ATOM     10  H   UNL     1       0.655   2.505  20.879  0.00  0.00    +0.000 HD
ATOM     11  H   UNL     1       2.100   1.657  20.631  0.00  0.00    +0.000 HD
ENDROOT
BRANCH   7  12
ATOM     12  N   UNL     1       4.958   5.494  18.756  0.00  0.00    +0.000 N 
ATOM     13  C   UNL     1       6.290   5.085  19.233  0.00  0.00    +0.000 C 
ATOM     14  C   UNL     1       7.305   6.205  18.869  0.00  0.00    +0.000 C 
ATOM     15  N   UNL     1       7.288   6.599  17.436  0.00  0.00    +0.000 NA
ATOM     16  C   UNL     1       8.134   7.773  17.220  0.00  0.00    +0.000 C 
ATOM     17  C   UNL     1       5.901   6.894  17.002  0.00  0.00    +0.000 C 
ATOM     18  C   UNL     1       4.938   5.727  17.308  0.00  0.00    +0.000 C 
ENDBRANCH   7  12
BRANCH   1  22
ATOM     19  C   UNL     1       0.821  10.888  19.642  0.00  0.00    +0.000 A 
ATOM     20  C   UNL     1       1.302   9.867  18.827  0.00  0.00    +0.000 A 
ATOM     21  C   UNL     1       1.436   8.572  19.325  0.00  0.00    +0.000 A 
ATOM     22  C   UNL     1       1.115   8.277  20.653  0.00  0.00    +0.000 A 
ATOM     23  C   UNL     1       0.625   9.307  21.464  0.00  0.00    +0.000 A 
ATOM     24  C   UNL     1       0.498  10.612  20.970  0.00  0.00    +0.000 A 
BRANCH  19  25
ATOM     25  O   UNL     1       0.730  12.106  19.033  0.00  0.00    +0.000 OA
BRANCH  25  27
ATOM     26  C   UNL     1      -1.467  12.184  18.144  0.00  0.00    +0.000 C 
ATOM     27  C   UNL     1      -0.516  12.787  19.162  0.00  0.00    +0.000 C 
ENDBRANCH  25  27
ENDBRANCH  19  25
ENDBRANCH   1  22
BRANCH   6  28
ATOM     28  N   UNL     1       4.058   2.732  19.142  0.00  0.00    +0.000 N 
ATOM     29  O   UNL     1       4.804   2.139  19.938  0.00  0.00    +0.000 OA
ATOM     30  O   UNL     1       3.864   2.398  17.966  0.00  0.00    +0.000 OA
ENDBRANCH   6  28
TORSDOF 5
ENDMDL
MODEL 7
REMARK VINA RESULT:      -7.1      1.326      2.005
REMARK  Name = 
REMARK  7 active torsions:
REMARK  status: ('A' for Active; 'I' for Inactive)
REMARK    1  A    between atoms: C_1  and  C_2
REMARK    2  A    between atoms: C_2  and  O_3
REMARK    3  A    between atoms: O_3  and  C_4
REMARK    4  A    between atoms: C_7  and  N_8
REMARK    5  A    between atoms: C_13  and  N_14
REMARK    6  A    between atoms: C_17  and  N_18
REMARK    7  A    between atoms: N_21  and  C_22
REMARK                            x       y       z     vdW  Elec       q    Type
REMARK                         _______ _______ _______ _____ _____    ______ ____
ROOT
ATOM      1  N   UNL     1       1.195   6.932  21.258  0.00  0.00    +0.000 N 
ATOM      2  C   UNL     1       1.929   5.896  20.672  0.00  0.00    +0.000 A 
ATOM      3  N   UNL     1       1.424   4.661  20.797  0.00  0.00    +0.000 NA
ATOM      4  C   UNL     1       2.129   3.657  20.254  0.00  0.00    +0.000 A 
ATOM      5  N   UNL     1       1.489   2.415  20.273  0.00  0.00    +0.000 N 
ATOM      6  C   UNL     1       3.337   3.882  19.617  0.00  0.00    +0.000 A 
ATOM      7  C   UNL     1       3.807   5.173  19.487  0.00  0.00    +0.000 A 
ATOM      8  N   UNL     1       3.080   6.169  20.026  0.00  0.00    +0.000 NA
ATOM      9  H   UNL     1       0.306   6.551  21.557  0.00  0.00    +0.000 HD
ATOM     10  H   UNL     1       0.641   2.475  20.830  0.00  0.00    +0.000 HD
ATOM     11  H   UNL     1       2.084   1.636  20.542  0.00  0.00    +0.000 HD
ENDROOT
BRANCH   7  12
ATOM     12  N   UNL     1       4.922   5.533  18.763  0.00  0.00    +0.000 N 
ATOM     13  C   UNL     1       6.256   5.094  19.204  0.00  0.00    +0.000 C 
ATOM     14  C   UNL     1       7.276   6.222  18.877  0.00  0.00    +0.000 C 
ATOM     15  N   UNL     1       7.243   6.679  17.462  0.00  0.00    +0.000 NA
ATOM     16  C   UNL     1       8.096   7.856  17.287  0.00  0.00    +0.000 C 
ATOM     17  C   UNL     1       5.854   7.002  17.060  0.00  0.00    +0.000 C 
ATOM     18  C   UNL     1       4.885   5.829  17.327  0.00  0.00    +0.000 C 
ENDBRANCH   7  12
BRANCH   1  22
ATOM     19  C   UNL     1       0.988  10.882  19.783  0.00  0.00    +0.000 A 
ATOM     20  C   UNL     1       0.741  10.628  21.129  0.00  0.00    +0.000 A 
ATOM     21  C   UNL     1       0.805   9.327  21.625  0.00  0.00    +0.000 A 
ATOM     22  C   UNL     1       1.093   8.251  20.780  0.00  0.00    +0.000 A 
ATOM     23  C   UNL     1       1.347   8.515  19.429  0.00  0.00    +0.000 A 
ATOM     24  C   UNL     1       1.274   9.821  18.925  0.00  0.00    +0.000 A 
BRANCH  19  25
ATOM     25  O   UNL     1       0.901  12.196  19.427  0.00  0.00    +0.000 OA
BRANCH  25  27
ATOM     26  C   UNL     1       2.646  13.220  18.188  0.00  0.00    +0.000 C 
ATOM     27  C   UNL     1       2.087  12.974  19.578  0.00  0.00    +0.000 C 
ENDBRANCH  25  27
ENDBRANCH  19  25
ENDBRANCH   1  22
BRANCH   6  28
ATOM     28  N   UNL     1       4.028   2.759  19.071  0.00  0.00    +0.000 N 
ATOM     29  O   UNL     1       4.766   2.130  19.846  0.00  0.00    +0.000 OA
ATOM     30  O   UNL     1       3.839   2.474  17.881  0.00  0.00    +0.000 OA
ENDBRANCH   6  28
TORSDOF 5
ENDMDL
MODEL 8
REMARK VINA RESULT:      -7.0      0.963      1.564
REMARK  Name = 
REMARK  7 active torsions:
REMARK  status: ('A' for Active; 'I' for Inactive)
REMARK    1  A    between atoms: C_1  and  C_2
REMARK    2  A    between atoms: C_2  and  O_3
REMARK    3  A    between atoms: O_3  and  C_4
REMARK    4  A    between atoms: C_7  and  N_8
REMARK    5  A    between atoms: C_13  and  N_14
REMARK    6  A    between atoms: C_17  and  N_18
REMARK    7  A    between atoms: N_21  and  C_22
REMARK                            x       y       z     vdW  Elec       q    Type
REMARK                         _______ _______ _______ _____ _____    ______ ____
ROOT
ATOM      1  N   UNL     1       1.539   7.365  21.181  0.00  0.00    +0.000 N 
ATOM      2  C   UNL     1       2.150   6.202  20.704  0.00  0.00    +0.000 A 
ATOM      3  N   UNL     1       1.964   5.089  21.427  0.00  0.00    +0.000 NA
ATOM      4  C   UNL     1       2.560   3.970  20.988  0.00  0.00    +0.000 A 
ATOM      5  N   UNL     1       2.211   2.809  21.682  0.00  0.00    +0.000 N 
ATOM      6  C   UNL     1       3.356   3.970  19.856  0.00  0.00    +0.000 A 
ATOM      7  C   UNL     1       3.499   5.133  19.126  0.00  0.00    +0.000 A 
ATOM      8  N   UNL     1       2.882   6.242  19.573  0.00  0.00    +0.000 NA
ATOM      9  H   UNL     1       0.925   7.103  21.942  0.00  0.00    +0.000 HD
ATOM     10  H   UNL     1       1.659   3.052  22.500  0.00  0.00    +0.000 HD
ATOM     11  H   UNL     1       2.992   2.196  21.902  0.00  0.00    +0.000 HD
ENDROOT
BRANCH   7  12
ATOM     12  N   UNL     1       4.152   5.225  17.916  0.00  0.00    +0.000 N 
ATOM     13  C   UNL     1       3.778   4.329  16.810  0.00  0.00    +0.000 C 
ATOM     14  C   UNL     1       5.062   3.981  16.005  0.00  0.00    +0.000 C 
ATOM     15  N   UNL     1       5.843   5.167  15.565  0.00  0.00    +0.000 NA
ATOM     16  C   UNL     1       7.118   4.749  14.980  0.00  0.00    +0.000 C 
ATOM     17  C   UNL     1       6.091   6.073  16.712  0.00  0.00    +0.000 C 
ATOM     18  C   UNL     1       4.783   6.460  17.437  0.00  0.00    +0.000 C 
ENDBRANCH   7  12
BRANCH   1  22
ATOM     19  C   UNL     1       0.092  10.551  18.820  0.00  0.00    +0.000 A 
ATOM     20  C   UNL     1      -0.457  10.311  20.077  0.00  0.00    +0.000 A 
ATOM     21  C   UNL     1       0.013   9.260  20.862  0.00  0.00    +0.000 A 
ATOM     22  C   UNL     1       1.024   8.414  20.398  0.00  0.00    +0.000 A 
ATOM     23  C   UNL     1       1.576   8.666  19.136  0.00  0.00    +0.000 A 
ATOM     24  C   UNL     1       1.099   9.715  18.340  0.00  0.00    +0.000 A 
BRANCH  19  25
ATOM     25  O   UNL     1      -0.450  11.613  18.157  0.00  0.00    +0.000 OA
BRANCH  25  27
ATOM     26  C   UNL     1       1.031  13.429  18.521  0.00  0.00    +0.000 C 
ATOM     27  C   UNL     1      -0.356  12.880  18.803  0.00  0.00    +0.000 C 
ENDBRANCH  25  27
ENDBRANCH  19  25
ENDBRANCH   1  22
BRANCH   6  28
ATOM     28  N   UNL     1       3.959   2.740  19.458  0.00  0.00    +0.000 N 
ATOM     29  O   UNL     1       3.220   1.916  18.896  0.00  0.00    +0.000 OA
ATOM     30  O   UNL     1       5.167   2.578  19.679  0.00  0.00    +0.000 OA
ENDBRANCH   6  28
TORSDOF 5
ENDMDL
MODEL 9
REMARK VINA RESULT:      -7.0      1.150      1.796
REMARK  Name = 
REMARK  7 active torsions:
REMARK  status: ('A' for Active; 'I' for Inactive)
REMARK    1  A    between atoms: C_1  and  C_2
REMARK    2  A    between atoms: C_2  and  O_3
REMARK    3  A    between atoms: O_3  and  C_4
REMARK    4  A    between atoms: C_7  and  N_8
REMARK    5  A    between atoms: C_13  and  N_14
REMARK    6  A    between atoms: C_17  and  N_18
REMARK    7  A    between atoms: N_21  and  C_22
REMARK                            x       y       z     vdW  Elec       q    Type
REMARK                         _______ _______ _______ _____ _____    ______ ____
ROOT
ATOM      1  N   UNL     1       1.905   6.783  21.049  0.00  0.00    +0.000 N 
ATOM      2  C   UNL     1       2.446   5.559  20.646  0.00  0.00    +0.000 A 
ATOM      3  N   UNL     1       1.990   4.466  21.274  0.00  0.00    +0.000 NA
ATOM      4  C   UNL     1       2.515   3.288  20.907  0.00  0.00    +0.000 A 
ATOM      5  N   UNL     1       1.900   2.170  21.475  0.00  0.00    +0.000 N 
ATOM      6  C   UNL     1       3.505   3.205  19.943  0.00  0.00    +0.000 A 
ATOM      7  C   UNL     1       3.926   4.352  19.301  0.00  0.00    +0.000 A 
ATOM      8  N   UNL     1       3.378   5.524  19.672  0.00  0.00    +0.000 NA
ATOM      9  H   UNL     1       1.130   6.588  21.671  0.00  0.00    +0.000 HD
ATOM     10  H   UNL     1       1.237   2.467  22.185  0.00  0.00    +0.000 HD
ATOM     11  H   UNL     1       2.543   1.457  21.810  0.00  0.00    +0.000 HD
ENDROOT
BRANCH   7  12
ATOM     12  N   UNL     1       4.803   4.381  18.239  0.00  0.00    +0.000 N 
ATOM     13  C   UNL     1       6.249   4.505  18.484  0.00  0.00    +0.000 C 
ATOM     14  C   UNL     1       6.868   5.360  17.341  0.00  0.00    +0.000 C 
ATOM     15  N   UNL     1       6.542   4.874  15.975  0.00  0.00    +0.000 NA
ATOM     16  C   UNL     1       7.006   5.831  14.970  0.00  0.00    +0.000 C 
ATOM     17  C   UNL     1       5.080   4.673  15.838  0.00  0.00    +0.000 C 
ATOM     18  C   UNL     1       4.515   3.755  16.944  0.00  0.00    +0.000 C 
ENDBRANCH   7  12
BRANCH   1  22
ATOM     19  C   UNL     1       1.339  10.151  18.568  0.00  0.00    +0.000 A 
ATOM     20  C   UNL     1       0.837  10.151  19.867  0.00  0.00    +0.000 A 
ATOM     21  C   UNL     1       1.018   9.043  20.693  0.00  0.00    +0.000 A 
ATOM     22  C   UNL     1       1.681   7.903  20.229  0.00  0.00    +0.000 A 
ATOM     23  C   UNL     1       2.189   7.913  18.924  0.00  0.00    +0.000 A 
ATOM     24  C   UNL     1       2.001   9.022  18.089  0.00  0.00    +0.000 A 
BRANCH  19  25
ATOM     25  O   UNL     1       1.103  11.298  17.868  0.00  0.00    +0.000 OA
BRANCH  25  27
ATOM     26  C   UNL     1       2.690  13.028  18.204  0.00  0.00    +0.000 C 
ATOM     27  C   UNL     1       1.306  12.523  18.569  0.00  0.00    +0.000 C 
ENDBRANCH  25  27
ENDBRANCH  19  25
ENDBRANCH   1  22
BRANCH   6  28
ATOM     28  N   UNL     1       4.016   1.915  19.613  0.00  0.00    +0.000 N 
ATOM     29  O   UNL     1       5.023   1.541  20.235  0.00  0.00    +0.000 OA
ATOM     30  O   UNL     1       3.424   1.250  18.752  0.00  0.00    +0.000 OA
ENDBRANCH   6  28
TORSDOF 5
ENDMDL
