MODEL 1
REMARK VINA RESULT:      -7.1      0.000      0.000
REMARK  Name = 
REMARK  5 active torsions:
REMARK  status: ('A' for Active; 'I' for Inactive)
REMARK    1  A    between atoms: C_1  and  O_2
REMARK    2  A    between atoms: O_2  and  C_3
REMARK    3  A    between atoms: C_9  and  C_10
REMARK    4  A    between atoms: C_10  and  N_11
REMARK    5  A    between atoms: C_15  and  C_17
REMARK                            x       y       z     vdW  Elec       q    Type
REMARK                         _______ _______ _______ _____ _____    ______ ____
ROOT
ATOM      1  N   UNL     1       0.999   9.869  18.814  0.00  0.00    +0.000 NA
ATOM      2  C   UNL     1       1.100   9.028  20.014  0.00  0.00    +0.000 C 
ATOM      3  C   UNL     1       1.645   7.589  19.863  0.00  0.00    +0.000 C 
ATOM      4  N   UNL     1       2.702   7.379  18.866  0.00  0.00    +0.000 N 
ATOM      5  C   UNL     1       3.447   6.184  18.972  0.00  0.00    +0.000 C 
ATOM      6  O   UNL     1       3.402   5.499  20.005  0.00  0.00    +0.000 OA
ATOM      7  C   UNL     1       2.597   8.202  17.667  0.00  0.00    +0.000 C 
ATOM      8  C   UNL     1       2.146   9.650  17.922  0.00  0.00    +0.000 C 
ENDROOT
BRANCH   5   9
ATOM      9  C   UNL     1       4.356   5.701  17.876  0.00  0.00    +0.000 A 
ATOM     10  C   UNL     1       4.098   4.581  17.077  0.00  0.00    +0.000 A 
ATOM     11  C   UNL     1       4.996   4.178  16.079  0.00  0.00    +0.000 A 
ATOM     12  C   UNL     1       6.200   4.849  15.914  0.00  0.00    +0.000 A 
ATOM     13  C   UNL     1       6.508   5.905  16.762  0.00  0.00    +0.000 A 
ATOM     14  F   UNL     1       7.689   6.522  16.633  0.00  0.00    +0.000 F 
ATOM     15  C   UNL     1       5.614   6.328  17.743  0.00  0.00    +0.000 A 
ENDBRANCH   5   9
BRANCH   1  16
ATOM     16  C   UNL     1      -0.335   9.718  18.240  0.00  0.00    +0.000 C 
BRANCH  16  23
ATOM     17  C   UNL     1      -2.618  10.770  18.088  0.00  0.00    +0.000 A 
ATOM     18  C   UNL     1      -3.591  11.646  18.562  0.00  0.00    +0.000 A 
ATOM     19  C   UNL     1      -3.313  12.475  19.660  0.00  0.00    +0.000 A 
ATOM     20  C   UNL     1      -2.071  12.414  20.291  0.00  0.00    +0.000 A 
ATOM     21 BR   UNL     1      -1.692  13.560  21.747  0.00  0.00    +0.000 Br
ATOM     22  C   UNL     1      -1.102  11.524  19.841  0.00  0.00    +0.000 A 
ATOM     23  C   UNL     1      -1.368  10.703  18.728  0.00  0.00    +0.000 A 
BRANCH  17  25
ATOM     24  C   UNL     1      -2.825  10.866  15.712  0.00  0.00    +0.000 C 
ATOM     25  O   UNL     1      -2.724  10.096  16.902  0.00  0.00    +0.000 OA
ENDBRANCH  17  25
ENDBRANCH  16  23
ENDBRANCH   1  16
TORSDOF 4
ENDMDL
MODEL 2
REMARK VINA RESULT:      -6.9      5.399      7.231
REMARK  Name = 
REMARK  5 active torsions:
REMARK  status: ('A' for Active; 'I' for Inactive)
REMARK    1  A    between atoms: C_1  and  O_2
REMARK    2  A    between atoms: O_2  and  C_3
REMARK    3  A    between atoms: C_9  and  C_10
REMARK    4  A    between atoms: C_10  and  N_11
REMARK    5  A    between atoms: C_15  and  C_17
REMARK                            x       y       z     vdW  Elec       q    Type
REMARK                         _______ _______ _______ _____ _____    ______ ____
ROOT
ATOM      1  N   UNL     1       5.133   6.310  17.808  0.00  0.00    +0.000 NA
ATOM      2  C   UNL     1       6.507   6.661  17.427  0.00  0.00    +0.000 C 
ATOM      3  C   UNL     1       7.216   5.804  16.352  0.00  0.00    +0.000 C 
ATOM      4  N   UNL     1       6.383   5.280  15.263  0.00  0.00    +0.000 N 
ATOM      5  C   UNL     1       7.058   4.821  14.111  0.00  0.00    +0.000 C 
ATOM      6  O   UNL     1       8.249   5.108  13.918  0.00  0.00    +0.000 OA
ATOM      7  C   UNL     1       5.022   4.917  15.642  0.00  0.00    +0.000 C 
ATOM      8  C   UNL     1       4.356   5.883  16.638  0.00  0.00    +0.000 C 
ENDROOT
BRANCH   5   9
ATOM      9  C   UNL     1       6.373   4.008  13.046  0.00  0.00    +0.000 A 
ATOM     10  C   UNL     1       4.998   4.046  12.791  0.00  0.00    +0.000 A 
ATOM     11  C   UNL     1       4.422   3.252  11.790  0.00  0.00    +0.000 A 
ATOM     12  C   UNL     1       5.206   2.355  11.077  0.00  0.00    +0.000 A 
ATOM     13  C   UNL     1       6.556   2.243  11.385  0.00  0.00    +0.000 A 
ATOM     14  F   UNL     1       7.302   1.344  10.730  0.00  0.00    +0.000 F 
ATOM     15  C   UNL     1       7.143   3.042  12.363  0.00  0.00    +0.000 A 
ENDBRANCH   5   9
BRANCH   1  16
ATOM     16  C   UNL     1       5.176   5.404  18.953  0.00  0.00    +0.000 C 
BRANCH  16  23
ATOM     17  C   UNL     1       3.458   3.778  19.817  0.00  0.00    +0.000 A 
ATOM     18  C   UNL     1       2.251   3.502  20.455  0.00  0.00    +0.000 A 
ATOM     19  C   UNL     1       1.415   4.554  20.857  0.00  0.00    +0.000 A 
ATOM     20  C   UNL     1       1.794   5.879  20.636  0.00  0.00    +0.000 A 
ATOM     21 BR   UNL     1       0.644   7.290  21.148  0.00  0.00    +0.000 Br
ATOM     22  C   UNL     1       3.009   6.164  20.023  0.00  0.00    +0.000 A 
ATOM     23  C   UNL     1       3.845   5.112  19.600  0.00  0.00    +0.000 A 
BRANCH  17  25
ATOM     24  C   UNL     1       3.563   1.922  18.319  0.00  0.00    +0.000 C 
ATOM     25  O   UNL     1       4.220   2.823  19.200  0.00  0.00    +0.000 OA
ENDBRANCH  17  25
ENDBRANCH  16  23
ENDBRANCH   1  16
TORSDOF 4
ENDMDL
MODEL 3
REMARK VINA RESULT:      -6.8      1.075      1.389
REMARK  Name = 
REMARK  5 active torsions:
REMARK  status: ('A' for Active; 'I' for Inactive)
REMARK    1  A    between atoms: C_1  and  O_2
REMARK    2  A    between atoms: O_2  and  C_3
REMARK    3  A    between atoms: C_9  and  C_10
REMARK    4  A    between atoms: C_10  and  N_11
REMARK    5  A    between atoms: C_15  and  C_17
REMARK                            x       y       z     vdW  Elec       q    Type
REMARK                         _______ _______ _______ _____ _____    ______ ____
ROOT
ATOM      1  N   UNL     1       1.413   9.503  18.719  0.00  0.00    +0.000 NA
ATOM      2  C   UNL     1       1.375   8.606  19.881  0.00  0.00    +0.000 C 
ATOM      3  C   UNL     1       1.948   7.178  19.731  0.00  0.00    +0.000 C 
ATOM      4  N   UNL     1       3.120   7.019  18.861  0.00  0.00    +0.000 N 
ATOM      5  C   UNL     1       3.857   5.824  19.000  0.00  0.00    +0.000 C 
ATOM      6  O   UNL     1       3.694   5.090  19.987  0.00  0.00    +0.000 OA
ATOM      7  C   UNL     1       3.153   7.898  17.697  0.00  0.00    +0.000 C 
ATOM      8  C   UNL     1       2.661   9.331  17.964  0.00  0.00    +0.000 C 
ENDROOT
BRANCH   5   9
ATOM      9  C   UNL     1       4.897   5.397  18.000  0.00  0.00    +0.000 A 
ATOM     10  C   UNL     1       6.274   5.573  18.176  0.00  0.00    +0.000 A 
ATOM     11  C   UNL     1       7.190   5.162  17.197  0.00  0.00    +0.000 A 
ATOM     12  C   UNL     1       6.734   4.634  15.996  0.00  0.00    +0.000 A 
ATOM     13  C   UNL     1       5.367   4.540  15.774  0.00  0.00    +0.000 A 
ATOM     14  F   UNL     1       4.928   4.075  14.597  0.00  0.00    +0.000 F 
ATOM     15  C   UNL     1       4.449   4.925  16.748  0.00  0.00    +0.000 A 
ENDBRANCH   5   9
BRANCH   1  16
ATOM     16  C   UNL     1       0.159   9.375  17.981  0.00  0.00    +0.000 C 
BRANCH  16  23
ATOM     17  C   UNL     1      -2.141  10.349  17.666  0.00  0.00    +0.000 A 
ATOM     18  C   UNL     1      -3.169  11.202  18.060  0.00  0.00    +0.000 A 
ATOM     19  C   UNL     1      -2.986  12.062  19.153  0.00  0.00    +0.000 A 
ATOM     20  C   UNL     1      -1.784  12.055  19.861  0.00  0.00    +0.000 A 
ATOM     21 BR   UNL     1      -1.533  13.243  21.311  0.00  0.00    +0.000 Br
ATOM     22  C   UNL     1      -0.761  11.188  19.491  0.00  0.00    +0.000 A 
ATOM     23  C   UNL     1      -0.932  10.336  18.382  0.00  0.00    +0.000 A 
BRANCH  17  25
ATOM     24  C   UNL     1      -2.770  10.256  15.365  0.00  0.00    +0.000 C 
ATOM     25  O   UNL     1      -2.152   9.648  16.491  0.00  0.00    +0.000 OA
ENDBRANCH  17  25
ENDBRANCH  16  23
ENDBRANCH   1  16
TORSDOF 4
ENDMDL
MODEL 4
REMARK VINA RESULT:      -6.8      4.147      8.942
REMARK  Name = 
REMARK  5 active torsions:
REMARK  status: ('A' for Active; 'I' for Inactive)
REMARK    1  A    between atoms: C_1  and  O_2
REMARK    2  A    between atoms: O_2  and  C_3
REMARK    3  A    between atoms: C_9  and  C_10
REMARK    4  A    between atoms: C_10  and  N_11
REMARK    5  A    between atoms: C_15  and  C_17
REMARK                            x       y       z     vdW  Elec       q    Type
REMARK                         _______ _______ _______ _____ _____    ______ ____
ROOT
ATOM      1  N   UNL     1       2.907   5.505  18.867  0.00  0.00    +0.000 NA
ATOM      2  C   UNL     1       1.989   5.302  19.994  0.00  0.00    +0.000 C 
ATOM      3  C   UNL     1       1.529   6.537  20.804  0.00  0.00    +0.000 C 
ATOM      4  N   UNL     1       1.331   7.785  20.058  0.00  0.00    +0.000 N 
ATOM      5  C   UNL     1       0.579   8.794  20.697  0.00  0.00    +0.000 C 
ATOM      6  O   UNL     1      -0.107   8.536  21.697  0.00  0.00    +0.000 OA
ATOM      7  C   UNL     1       2.251   7.997  18.946  0.00  0.00    +0.000 C 
ATOM      8  C   UNL     1       2.573   6.732  18.132  0.00  0.00    +0.000 C 
ENDROOT
BRANCH   5   9
ATOM      9  C   UNL     1       0.532  10.209  20.187  0.00  0.00    +0.000 A 
ATOM     10  C   UNL     1       1.238  11.274  20.759  0.00  0.00    +0.000 A 
ATOM     11  C   UNL     1       1.139  12.573  20.241  0.00  0.00    +0.000 A 
ATOM     12  C   UNL     1       0.275  12.837  19.187  0.00  0.00    +0.000 A 
ATOM     13  C   UNL     1      -0.499  11.806  18.671  0.00  0.00    +0.000 A 
ATOM     14  F   UNL     1      -1.366  12.071  17.686  0.00  0.00    +0.000 F 
ATOM     15  C   UNL     1      -0.393  10.507  19.164  0.00  0.00    +0.000 A 
ENDBRANCH   5   9
BRANCH   1  16
ATOM     16  C   UNL     1       4.280   5.360  19.342  0.00  0.00    +0.000 C 
BRANCH  16  23
ATOM     17  C   UNL     1       6.667   4.988  18.631  0.00  0.00    +0.000 A 
ATOM     18  C   UNL     1       7.615   4.660  17.665  0.00  0.00    +0.000 A 
ATOM     19  C   UNL     1       7.213   4.418  16.343  0.00  0.00    +0.000 A 
ATOM     20  C   UNL     1       5.864   4.487  15.993  0.00  0.00    +0.000 A 
ATOM     21 BR   UNL     1       5.335   4.195  14.201  0.00  0.00    +0.000 Br
ATOM     22  C   UNL     1       4.908   4.789  16.956  0.00  0.00    +0.000 A 
ATOM     23  C   UNL     1       5.307   5.052  18.281  0.00  0.00    +0.000 A 
BRANCH  17  25
ATOM     24  C   UNL     1       8.369   5.539  20.212  0.00  0.00    +0.000 C 
ATOM     25  O   UNL     1       6.991   5.453  19.877  0.00  0.00    +0.000 OA
ENDBRANCH  17  25
ENDBRANCH  16  23
ENDBRANCH   1  16
TORSDOF 4
ENDMDL
MODEL 5
REMARK VINA RESULT:      -6.8      4.386      8.970
REMARK  Name = 
REMARK  5 active torsions:
REMARK  status: ('A' for Active; 'I' for Inactive)
REMARK    1  A    between atoms: C_1  and  O_2
REMARK    2  A    between atoms: O_2  and  C_3
REMARK    3  A    between atoms: C_9  and  C_10
REMARK    4  A    between atoms: C_10  and  N_11
REMARK    5  A    between atoms: C_15  and  C_17
REMARK                            x       y       z     vdW  Elec       q    Type
REMARK                         _______ _______ _______ _____ _____    ______ ____
ROOT
ATOM      1  N   UNL     1       2.466   7.383  19.075  0.00  0.00    +0.000 NA
ATOM      2  C   UNL     1       2.642   8.499  18.137  0.00  0.00    +0.000 C 
ATOM      3  C   UNL     1       1.578   9.622  18.118  0.00  0.00    +0.000 C 
ATOM      4  N   UNL     1       0.966   9.980  19.403  0.00  0.00    +0.000 N 
ATOM      5  C   UNL     1       0.286  11.216  19.460  0.00  0.00    +0.000 C 
ATOM      6  O   UNL     1       0.443  12.067  18.571  0.00  0.00    +0.000 OA
ATOM      7  C   UNL     1       0.777   8.872  20.331  0.00  0.00    +0.000 C 
ATOM      8  C   UNL     1       1.932   7.856  20.359  0.00  0.00    +0.000 C 
ENDROOT
BRANCH   5   9
ATOM      9  C   UNL     1      -0.619  11.586  20.603  0.00  0.00    +0.000 A 
ATOM     10  C   UNL     1      -0.346  11.300  21.945  0.00  0.00    +0.000 A 
ATOM     11  C   UNL     1      -1.240  11.664  22.962  0.00  0.00    +0.000 A 
ATOM     12  C   UNL     1      -2.455  12.254  22.641  0.00  0.00    +0.000 A 
ATOM     13  C   UNL     1      -2.776  12.459  21.306  0.00  0.00    +0.000 A 
ATOM     14  F   UNL     1      -3.968  12.985  20.995  0.00  0.00    +0.000 F 
ATOM     15  C   UNL     1      -1.886  12.122  20.289  0.00  0.00    +0.000 A 
ENDBRANCH   5   9
BRANCH   1  16
ATOM     16  C   UNL     1       1.742   6.308  18.402  0.00  0.00    +0.000 C 
BRANCH  16  23
ATOM     17  C   UNL     1       2.152   3.856  18.801  0.00  0.00    +0.000 A 
ATOM     18  C   UNL     1       2.850   2.679  18.545  0.00  0.00    +0.000 A 
ATOM     19  C   UNL     1       3.941   2.688  17.663  0.00  0.00    +0.000 A 
ATOM     20  C   UNL     1       4.323   3.871  17.028  0.00  0.00    +0.000 A 
ATOM     21 BR   UNL     1       5.818   3.883  15.870  0.00  0.00    +0.000 Br
ATOM     22  C   UNL     1       3.616   5.046  17.258  0.00  0.00    +0.000 A 
ATOM     23  C   UNL     1       2.531   5.047  18.157  0.00  0.00    +0.000 A 
BRANCH  17  25
ATOM     24  C   UNL     1       1.205   2.978  20.809  0.00  0.00    +0.000 C 
ATOM     25  O   UNL     1       1.229   3.982  19.804  0.00  0.00    +0.000 OA
ENDBRANCH  17  25
ENDBRANCH  16  23
ENDBRANCH   1  16
TORSDOF 4
ENDMDL
MODEL 6
REMARK VINA RESULT:      -6.8      3.384      5.128
REMARK  Name = 
REMARK  5 active torsions:
REMARK  status: ('A' for Active; 'I' for Inactive)
REMARK    1  A    between atoms: C_1  and  O_2
REMARK    2  A    between atoms: O_2  and  C_3
REMARK    3  A    between atoms: C_9  and  C_10
REMARK    4  A    between atoms: C_10  and  N_11
REMARK    5  A    between atoms: C_15  and  C_17
REMARK                            x       y       z     vdW  Elec       q    Type
REMARK                         _______ _______ _______ _____ _____    ______ ____
ROOT
ATOM      1  N   UNL     1      -3.191  11.374  17.375  0.00  0.00    +0.000 NA
ATOM      2  C   UNL     1      -2.676  12.124  18.527  0.00  0.00    +0.000 C 
ATOM      3  C   UNL     1      -1.632  11.444  19.444  0.00  0.00    +0.000 C 
ATOM      4  N   UNL     1      -0.662  10.551  18.800  0.00  0.00    +0.000 N 
ATOM      5  C   UNL     1       0.491  10.223  19.544  0.00  0.00    +0.000 C 
ATOM      6  O   UNL     1       0.799  10.873  20.555  0.00  0.00    +0.000 OA
ATOM      7  C   UNL     1      -1.175   9.793  17.663  0.00  0.00    +0.000 C 
ATOM      8  C   UNL     1      -2.126  10.581  16.746  0.00  0.00    +0.000 C 
ENDROOT
BRANCH   5   9
ATOM      9  C   UNL     1       1.423   9.113  19.140  0.00  0.00    +0.000 A 
ATOM     10  C   UNL     1       2.108   9.068  17.920  0.00  0.00    +0.000 A 
ATOM     11  C   UNL     1       2.954   7.997  17.601  0.00  0.00    +0.000 A 
ATOM     12  C   UNL     1       3.069   6.919  18.469  0.00  0.00    +0.000 A 
ATOM     13  C   UNL     1       2.322   6.911  19.640  0.00  0.00    +0.000 A 
ATOM     14  F   UNL     1       2.398   5.850  20.454  0.00  0.00    +0.000 F 
ATOM     15  C   UNL     1       1.496   7.980  19.977  0.00  0.00    +0.000 A 
ENDBRANCH   5   9
BRANCH   1  16
ATOM     16  C   UNL     1      -4.407  10.669  17.773  0.00  0.00    +0.000 C 
BRANCH  16  23
ATOM     17  C   UNL     1      -6.451  11.263  19.117  0.00  0.00    +0.000 A 
ATOM     18  C   UNL     1      -7.539  12.092  19.381  0.00  0.00    +0.000 A 
ATOM     19  C   UNL     1      -7.807  13.185  18.544  0.00  0.00    +0.000 A 
ATOM     20  C   UNL     1      -6.977  13.458  17.456  0.00  0.00    +0.000 A 
ATOM     21 BR   UNL     1      -7.366  14.913  16.311  0.00  0.00    +0.000 Br
ATOM     22  C   UNL     1      -5.874  12.652  17.199  0.00  0.00    +0.000 A 
ATOM     23  C   UNL     1      -5.611  11.541  18.025  0.00  0.00    +0.000 A 
BRANCH  17  25
ATOM     24  C   UNL     1      -7.378   9.219  19.931  0.00  0.00    +0.000 C 
ATOM     25  O   UNL     1      -6.250  10.062  19.741  0.00  0.00    +0.000 OA
ENDBRANCH  17  25
ENDBRANCH  16  23
ENDBRANCH   1  16
TORSDOF 4
ENDMDL
MODEL 7
REMARK VINA RESULT:      -6.7      4.558      8.647
REMARK  Name = 
REMARK  5 active torsions:
REMARK  status: ('A' for Active; 'I' for Inactive)
REMARK    1  A    between atoms: C_1  and  O_2
REMARK    2  A    between atoms: O_2  and  C_3
REMARK    3  A    between atoms: C_9  and  C_10
REMARK    4  A    between atoms: C_10  and  N_11
REMARK    5  A    between atoms: C_15  and  C_17
REMARK                            x       y       z     vdW  Elec       q    Type
REMARK                         _______ _______ _______ _____ _____    ______ ____
ROOT
ATOM      1  N   UNL     1       3.179   3.668  18.393  0.00  0.00    +0.000 NA
ATOM      2  C   UNL     1       2.630   3.666  19.755  0.00  0.00    +0.000 C 
ATOM      3  C   UNL     1       2.480   5.018  20.492  0.00  0.00    +0.000 C 
ATOM      4  N   UNL     1       2.118   6.183  19.677  0.00  0.00    +0.000 N 
ATOM      5  C   UNL     1       1.630   7.314  20.367  0.00  0.00    +0.000 C 
ATOM      6  O   UNL     1       1.262   7.226  21.548  0.00  0.00    +0.000 OA
ATOM      7  C   UNL     1       2.673   6.195  18.328  0.00  0.00    +0.000 C 
ATOM      8  C   UNL     1       2.689   4.824  17.631  0.00  0.00    +0.000 C 
ENDROOT
BRANCH   5   9
ATOM      9  C   UNL     1       1.488   8.660  19.710  0.00  0.00    +0.000 A 
ATOM     10  C   UNL     1       2.025   8.984  18.459  0.00  0.00    +0.000 A 
ATOM     11  C   UNL     1       1.866  10.264  17.909  0.00  0.00    +0.000 A 
ATOM     12  C   UNL     1       1.229  11.259  18.637  0.00  0.00    +0.000 A 
ATOM     13  C   UNL     1       0.773  10.974  19.918  0.00  0.00    +0.000 A 
ATOM     14  F   UNL     1       0.201  11.948  20.638  0.00  0.00    +0.000 F 
ATOM     15  C   UNL     1       0.907   9.701  20.465  0.00  0.00    +0.000 A 
ENDBRANCH   5   9
BRANCH   1  16
ATOM     16  C   UNL     1       4.625   3.475  18.465  0.00  0.00    +0.000 C 
BRANCH  16  23
ATOM     17  C   UNL     1       6.370   5.087  17.631  0.00  0.00    +0.000 A 
ATOM     18  C   UNL     1       7.138   5.629  16.604  0.00  0.00    +0.000 A 
ATOM     19  C   UNL     1       6.945   5.200  15.283  0.00  0.00    +0.000 A 
ATOM     20  C   UNL     1       5.997   4.218  14.993  0.00  0.00    +0.000 A 
ATOM     21 BR   UNL     1       5.718   3.672  13.204  0.00  0.00    +0.000 Br
ATOM     22  C   UNL     1       5.243   3.653  16.015  0.00  0.00    +0.000 A 
ATOM     23  C   UNL     1       5.419   4.093  17.342  0.00  0.00    +0.000 A 
BRANCH  17  25
ATOM     24  C   UNL     1       7.572   5.742  19.588  0.00  0.00    +0.000 C 
ATOM     25  O   UNL     1       6.337   5.601  18.899  0.00  0.00    +0.000 OA
ENDBRANCH  17  25
ENDBRANCH  16  23
ENDBRANCH   1  16
TORSDOF 4
ENDMDL
MODEL 8
REMARK VINA RESULT:      -6.7      2.945      3.972
REMARK  Name = 
REMARK  5 active torsions:
REMARK  status: ('A' for Active; 'I' for Inactive)
REMARK    1  A    between atoms: C_1  and  O_2
REMARK    2  A    between atoms: O_2  and  C_3
REMARK    3  A    between atoms: C_9  and  C_10
REMARK    4  A    between atoms: C_10  and  N_11
REMARK    5  A    between atoms: C_15  and  C_17
REMARK                            x       y       z     vdW  Elec       q    Type
REMARK                         _______ _______ _______ _____ _____    ______ ____
ROOT
ATOM      1  N   UNL     1      -0.451   9.617  21.346  0.00  0.00    +0.000 NA
ATOM      2  C   UNL     1      -0.461  10.198  19.997  0.00  0.00    +0.000 C 
ATOM      3  C   UNL     1       0.754   9.944  19.074  0.00  0.00    +0.000 C 
ATOM      4  N   UNL     1       1.409   8.635  19.184  0.00  0.00    +0.000 N 
ATOM      5  C   UNL     1       2.261   8.262  18.122  0.00  0.00    +0.000 C 
ATOM      6  O   UNL     1       2.231   8.869  17.041  0.00  0.00    +0.000 OA
ATOM      7  C   UNL     1       1.435   8.062  20.525  0.00  0.00    +0.000 C 
ATOM      8  C   UNL     1       0.144   8.274  21.335  0.00  0.00    +0.000 C 
ENDROOT
BRANCH   5   9
ATOM      9  C   UNL     1       3.209   7.097  18.220  0.00  0.00    +0.000 A 
ATOM     10  C   UNL     1       4.511   7.099  17.706  0.00  0.00    +0.000 A 
ATOM     11  C   UNL     1       5.339   5.974  17.822  0.00  0.00    +0.000 A 
ATOM     12  C   UNL     1       4.850   4.805  18.390  0.00  0.00    +0.000 A 
ATOM     13  C   UNL     1       3.530   4.763  18.820  0.00  0.00    +0.000 A 
ATOM     14  F   UNL     1       3.044   3.622  19.324  0.00  0.00    +0.000 F 
ATOM     15  C   UNL     1       2.705   5.882  18.730  0.00  0.00    +0.000 A 
ENDBRANCH   5   9
BRANCH   1  16
ATOM     16  C   UNL     1       0.111  10.592  22.277  0.00  0.00    +0.000 C 
BRANCH  16  23
ATOM     17  C   UNL     1      -0.367  13.060  22.115  0.00  0.00    +0.000 A 
ATOM     18  C   UNL     1      -1.189  14.160  22.342  0.00  0.00    +0.000 A 
ATOM     19  C   UNL     1      -2.393  14.003  23.043  0.00  0.00    +0.000 A 
ATOM     20  C   UNL     1      -2.782  12.743  23.500  0.00  0.00    +0.000 A 
ATOM     21 BR   UNL     1      -4.390  12.546  24.476  0.00  0.00    +0.000 Br
ATOM     22  C   UNL     1      -1.981  11.634  23.256  0.00  0.00    +0.000 A 
ATOM     23  C   UNL     1      -0.760  11.789  22.569  0.00  0.00    +0.000 A 
BRANCH  17  25
ATOM     24  C   UNL     1       1.103  13.769  20.372  0.00  0.00    +0.000 C 
ATOM     25  O   UNL     1       0.914  13.160  21.642  0.00  0.00    +0.000 OA
ENDBRANCH  17  25
ENDBRANCH  16  23
ENDBRANCH   1  16
TORSDOF 4
ENDMDL
MODEL 9
REMARK VINA RESULT:      -6.6      2.573      2.844
REMARK  Name = 
REMARK  5 active torsions:
REMARK  status: ('A' for Active; 'I' for Inactive)
REMARK    1  A    between atoms: C_1  and  O_2
REMARK    2  A    between atoms: O_2  and  C_3
REMARK    3  A    between atoms: C_9  and  C_10
REMARK    4  A    between atoms: C_10  and  N_11
REMARK    5  A    between atoms: C_15  and  C_17
REMARK                            x       y       z     vdW  Elec       q    Type
REMARK                         _______ _______ _______ _____ _____    ______ ____
ROOT
ATOM      1  N   UNL     1       1.861   9.273  18.627  0.00  0.00    +0.000 NA
ATOM      2  C   UNL     1       1.661   8.947  20.044  0.00  0.00    +0.000 C 
ATOM      3  C   UNL     1       1.422   7.469  20.436  0.00  0.00    +0.000 C 
ATOM      4  N   UNL     1       2.139   6.452  19.658  0.00  0.00    +0.000 N 
ATOM      5  C   UNL     1       2.218   5.160  20.223  0.00  0.00    +0.000 C 
ATOM      6  O   UNL     1       1.951   4.975  21.420  0.00  0.00    +0.000 OA
ATOM      7  C   UNL     1       2.327   6.766  18.246  0.00  0.00    +0.000 C 
ATOM      8  C   UNL     1       2.662   8.239  17.958  0.00  0.00    +0.000 C 
ENDROOT
BRANCH   5   9
ATOM      9  C   UNL     1       2.665   3.961  19.433  0.00  0.00    +0.000 A 
ATOM     10  C   UNL     1       2.073   3.545  18.234  0.00  0.00    +0.000 A 
ATOM     11  C   UNL     1       2.532   2.408  17.554  0.00  0.00    +0.000 A 
ATOM     12  C   UNL     1       3.543   1.630  18.102  0.00  0.00    +0.000 A 
ATOM     13  C   UNL     1       4.075   1.982  19.336  0.00  0.00    +0.000 A 
ATOM     14  F   UNL     1       5.017   1.206  19.885  0.00  0.00    +0.000 F 
ATOM     15  C   UNL     1       3.642   3.121  20.010  0.00  0.00    +0.000 A 
ENDBRANCH   5   9
BRANCH   1  16
ATOM     16  C   UNL     1       0.571   9.611  18.032  0.00  0.00    +0.000 C 
BRANCH  16  23
ATOM     17  C   UNL     1      -1.440  10.938  18.764  0.00  0.00    +0.000 A 
ATOM     18  C   UNL     1      -2.018  12.104  19.260  0.00  0.00    +0.000 A 
ATOM     19  C   UNL     1      -1.222  13.235  19.495  0.00  0.00    +0.000 A 
ATOM     20  C   UNL     1       0.151  13.193  19.250  0.00  0.00    +0.000 A 
ATOM     21 BR   UNL     1       1.211  14.733  19.535  0.00  0.00    +0.000 Br
ATOM     22  C   UNL     1       0.741  12.025  18.779  0.00  0.00    +0.000 A 
ATOM     23  C   UNL     1      -0.056  10.892  18.523  0.00  0.00    +0.000 A 
BRANCH  17  25
ATOM     24  C   UNL     1      -2.889  10.046  17.089  0.00  0.00    +0.000 C 
ATOM     25  O   UNL     1      -2.167   9.875  18.301  0.00  0.00    +0.000 OA
ENDBRANCH  17  25
ENDBRANCH  16  23
ENDBRANCH   1  16
TORSDOF 4
ENDMDL
