MODEL 1
REMARK VINA RESULT:      -8.0      0.000      0.000
REMARK  Name = 
REMARK  8 active torsions:
REMARK  status: ('A' for Active; 'I' for Inactive)
REMARK    1  A    between atoms: C_1  and  C_2
REMARK    2  A    between atoms: C_6  and  C_7
REMARK    3  A    between atoms: C_7  and  N_8
REMARK    4  A    between atoms: N_16  and  C_17
REMARK    5  A    between atoms: C_17  and  C_18
REMARK    6  A    between atoms: C_18  and  C_19
REMARK    7  A    between atoms: C_18  and  C_20
REMARK    8  A    between atoms: C_18  and  N_21
REMARK                            x       y       z     vdW  Elec       q    Type
REMARK                         _______ _______ _______ _____ _____    ______ ____
ROOT
ATOM      1  N   UNL     1       1.740   4.918  19.327  0.00  0.00    +0.000 NA
ATOM      2  C   UNL     1       1.815   4.413  17.910  0.00  0.00    +0.000 C 
ATOM      3  C   UNL     1       2.958   3.403  17.452  0.00  0.00    +0.000 C 
ATOM      4  C   UNL     1       2.779   1.897  17.762  0.00  0.00    +0.000 C 
ATOM      5  C   UNL     1       2.734   1.585  19.253  0.00  0.00    +0.000 C 
ATOM      6  C   UNL     1       3.053   2.847  20.060  0.00  0.00    +0.000 C 
ATOM      7  C   UNL     1       1.793   3.745  20.178  0.00  0.00    +0.000 C 
ATOM      8  C   UNL     1       4.342   3.501  19.420  0.00  0.00    +0.000 C 
ATOM      9  N   UNL     1       4.291   3.790  17.935  0.00  0.00    +0.000 NA
ENDROOT
BRANCH   1  10
ATOM     10  C   UNL     1       2.654   6.040  19.689  0.00  0.00    +0.000 C 
BRANCH  10  16
ATOM     11  C   UNL     1       1.995   8.825  17.685  0.00  0.00    +0.000 C 
ATOM     12  C   UNL     1       1.814   8.527  19.133  0.00  0.00    +0.000 A 
ATOM     13  N   UNL     1       1.127   9.471  19.856  0.00  0.00    +0.000 NA
ATOM     14  C   UNL     1       0.978   8.956  21.064  0.00  0.00    +0.000 A 
ATOM     15  N   UNL     1       1.604   7.743  21.167  0.00  0.00    +0.000 N 
ATOM     16  C   UNL     1       2.130   7.425  19.949  0.00  0.00    +0.000 A 
ATOM     17  H   UNL     1       1.602   7.150  21.978  0.00  0.00    +0.000 HD
ENDBRANCH  10  16
ENDBRANCH   1  10
BRANCH   9  18
ATOM     18  C   UNL     1       4.667   5.164  17.461  0.00  0.00    +0.000 C 
BRANCH  18  19
ATOM     19  C   UNL     1       5.578   5.466  16.170  0.00  0.00    +0.000 C 
ATOM     20  C   UNL     1       5.370   4.244  15.257  0.00  0.00    +0.000 C 
ATOM     21  C   UNL     1       5.130   6.706  15.379  0.00  0.00    +0.000 C 
BRANCH  19  22
ATOM     22  N   UNL     1       7.045   5.566  16.529  0.00  0.00    +0.000 NA
ATOM     23  C   UNL     1       7.657   6.919  16.544  0.00  0.00    +0.000 C 
ATOM     24  C   UNL     1       7.669   7.660  17.903  0.00  0.00    +0.000 C 
ATOM     25  O   UNL     1       8.217   6.858  18.950  0.00  0.00    +0.000 OA
ATOM     26  C   UNL     1       7.517   5.614  19.047  0.00  0.00    +0.000 C 
ATOM     27  C   UNL     1       7.572   4.846  17.713  0.00  0.00    +0.000 C 
ENDBRANCH  19  22
ENDBRANCH  18  19
ENDBRANCH   9  18
TORSDOF 5
ENDMDL
MODEL 2
REMARK VINA RESULT:      -7.6      2.174      4.947
REMARK  Name = 
REMARK  8 active torsions:
REMARK  status: ('A' for Active; 'I' for Inactive)
REMARK    1  A    between atoms: C_1  and  C_2
REMARK    2  A    between atoms: C_6  and  C_7
REMARK    3  A    between atoms: C_7  and  N_8
REMARK    4  A    between atoms: N_16  and  C_17
REMARK    5  A    between atoms: C_17  and  C_18
REMARK    6  A    between atoms: C_18  and  C_19
REMARK    7  A    between atoms: C_18  and  C_20
REMARK    8  A    between atoms: C_18  and  N_21
REMARK                            x       y       z     vdW  Elec       q    Type
REMARK                         _______ _______ _______ _____ _____    ______ ____
ROOT
ATOM      1  N   UNL     1       4.859   6.804  17.790  0.00  0.00    +0.000 NA
ATOM      2  C   UNL     1       5.951   5.963  18.398  0.00  0.00    +0.000 C 
ATOM      3  C   UNL     1       6.303   4.523  17.819  0.00  0.00    +0.000 C 
ATOM      4  C   UNL     1       7.212   4.433  16.569  0.00  0.00    +0.000 C 
ATOM      5  C   UNL     1       6.604   5.073  15.328  0.00  0.00    +0.000 C 
ATOM      6  C   UNL     1       5.158   5.494  15.613  0.00  0.00    +0.000 C 
ATOM      7  C   UNL     1       5.129   6.850  16.365  0.00  0.00    +0.000 C 
ATOM      8  C   UNL     1       4.442   4.269  16.312  0.00  0.00    +0.000 C 
ATOM      9  N   UNL     1       5.110   3.707  17.548  0.00  0.00    +0.000 NA
ENDROOT
BRANCH   1  10
ATOM     10  C   UNL     1       3.459   6.478  18.188  0.00  0.00    +0.000 C 
BRANCH  10  16
ATOM     11  C   UNL     1       1.694   9.454  17.703  0.00  0.00    +0.000 C 
ATOM     12  C   UNL     1       1.911   8.560  18.874  0.00  0.00    +0.000 A 
ATOM     13  N   UNL     1       1.177   8.856  19.996  0.00  0.00    +0.000 NA
ATOM     14  C   UNL     1       1.428   7.883  20.854  0.00  0.00    +0.000 A 
ATOM     15  N   UNL     1       2.350   7.005  20.352  0.00  0.00    +0.000 N 
ATOM     16  C   UNL     1       2.666   7.390  19.082  0.00  0.00    +0.000 A 
ATOM     17  H   UNL     1       2.674   6.170  20.810  0.00  0.00    +0.000 HD
ENDBRANCH  10  16
ENDBRANCH   1  10
BRANCH   9  18
ATOM     18  C   UNL     1       4.283   3.521  18.785  0.00  0.00    +0.000 C 
BRANCH  18  19
ATOM     19  C   UNL     1       3.931   2.095  19.441  0.00  0.00    +0.000 C 
ATOM     20  C   UNL     1       4.095   1.089  18.289  0.00  0.00    +0.000 C 
ATOM     21  C   UNL     1       4.905   1.673  20.555  0.00  0.00    +0.000 C 
BRANCH  19  22
ATOM     22  N   UNL     1       2.502   2.042  19.939  0.00  0.00    +0.000 NA
ATOM     23  C   UNL     1       2.222   2.605  21.284  0.00  0.00    +0.000 C 
ATOM     24  C   UNL     1       1.780   4.088  21.337  0.00  0.00    +0.000 C 
ATOM     25  O   UNL     1       0.692   4.359  20.451  0.00  0.00    +0.000 OA
ATOM     26  C   UNL     1       1.024   3.966  19.116  0.00  0.00    +0.000 C 
ATOM     27  C   UNL     1       1.391   2.472  19.056  0.00  0.00    +0.000 C 
ENDBRANCH  19  22
ENDBRANCH  18  19
ENDBRANCH   9  18
TORSDOF 5
ENDMDL
MODEL 3
REMARK VINA RESULT:      -7.4      0.641      1.211
REMARK  Name = 
REMARK  8 active torsions:
REMARK  status: ('A' for Active; 'I' for Inactive)
REMARK    1  A    between atoms: C_1  and  C_2
REMARK    2  A    between atoms: C_6  and  C_7
REMARK    3  A    between atoms: C_7  and  N_8
REMARK    4  A    between atoms: N_16  and  C_17
REMARK    5  A    between atoms: C_17  and  C_18
REMARK    6  A    between atoms: C_18  and  C_19
REMARK    7  A    between atoms: C_18  and  C_20
REMARK    8  A    between atoms: C_18  and  N_21
REMARK                            x       y       z     vdW  Elec       q    Type
REMARK                         _______ _______ _______ _____ _____    ______ ____
ROOT
ATOM      1  N   UNL     1       1.736   4.877  19.250  0.00  0.00    +0.000 NA
ATOM      2  C   UNL     1       1.865   4.278  17.873  0.00  0.00    +0.000 C 
ATOM      3  C   UNL     1       3.082   3.322  17.500  0.00  0.00    +0.000 C 
ATOM      4  C   UNL     1       3.006   1.833  17.918  0.00  0.00    +0.000 C 
ATOM      5  C   UNL     1       2.964   1.627  19.426  0.00  0.00    +0.000 C 
ATOM      6  C   UNL     1       3.182   2.964  20.142  0.00  0.00    +0.000 C 
ATOM      7  C   UNL     1       1.860   3.775  20.185  0.00  0.00    +0.000 C 
ATOM      8  C   UNL     1       4.430   3.660  19.466  0.00  0.00    +0.000 C 
ATOM      9  N   UNL     1       4.378   3.837  17.964  0.00  0.00    +0.000 NA
ENDROOT
BRANCH   1  10
ATOM     10  C   UNL     1       2.564   6.085  19.536  0.00  0.00    +0.000 C 
BRANCH  10  16
ATOM     11  C   UNL     1       1.058   8.689  21.314  0.00  0.00    +0.000 C 
ATOM     12  C   UNL     1       1.528   8.532  19.909  0.00  0.00    +0.000 A 
ATOM     13  N   UNL     1       1.503   9.669  19.140  0.00  0.00    +0.000 NA
ATOM     14  C   UNL     1       2.066   9.336  17.991  0.00  0.00    +0.000 A 
ATOM     15  N   UNL     1       2.392   8.007  17.966  0.00  0.00    +0.000 N 
ATOM     16  C   UNL     1       2.085   7.465  19.180  0.00  0.00    +0.000 A 
ATOM     17  H   UNL     1       2.857   7.532  17.212  0.00  0.00    +0.000 HD
ENDBRANCH  10  16
ENDBRANCH   1  10
BRANCH   9  18
ATOM     18  C   UNL     1       4.662   5.196  17.394  0.00  0.00    +0.000 C 
BRANCH  18  19
ATOM     19  C   UNL     1       5.586   5.470  16.106  0.00  0.00    +0.000 C 
ATOM     20  C   UNL     1       5.385   4.231  15.217  0.00  0.00    +0.000 C 
ATOM     21  C   UNL     1       5.148   6.695  15.286  0.00  0.00    +0.000 C 
BRANCH  19  22
ATOM     22  N   UNL     1       7.050   5.576  16.478  0.00  0.00    +0.000 NA
ATOM     23  C   UNL     1       7.653   6.933  16.517  0.00  0.00    +0.000 C 
ATOM     24  C   UNL     1       7.649   7.653  17.886  0.00  0.00    +0.000 C 
ATOM     25  O   UNL     1       8.195   6.840  18.926  0.00  0.00    +0.000 OA
ATOM     26  C   UNL     1       7.503   5.590  18.999  0.00  0.00    +0.000 C 
ATOM     27  C   UNL     1       7.574   4.842  17.655  0.00  0.00    +0.000 C 
ENDBRANCH  19  22
ENDBRANCH  18  19
ENDBRANCH   9  18
TORSDOF 5
ENDMDL
MODEL 4
REMARK VINA RESULT:      -7.4      2.230      5.062
REMARK  Name = 
REMARK  8 active torsions:
REMARK  status: ('A' for Active; 'I' for Inactive)
REMARK    1  A    between atoms: C_1  and  C_2
REMARK    2  A    between atoms: C_6  and  C_7
REMARK    3  A    between atoms: C_7  and  N_8
REMARK    4  A    between atoms: N_16  and  C_17
REMARK    5  A    between atoms: C_17  and  C_18
REMARK    6  A    between atoms: C_18  and  C_19
REMARK    7  A    between atoms: C_18  and  C_20
REMARK    8  A    between atoms: C_18  and  N_21
REMARK                            x       y       z     vdW  Elec       q    Type
REMARK                         _______ _______ _______ _____ _____    ______ ____
ROOT
ATOM      1  N   UNL     1       4.967   6.831  17.936  0.00  0.00    +0.000 NA
ATOM      2  C   UNL     1       6.051   5.972  18.533  0.00  0.00    +0.000 C 
ATOM      3  C   UNL     1       6.380   4.530  17.943  0.00  0.00    +0.000 C 
ATOM      4  C   UNL     1       7.280   4.435  16.686  0.00  0.00    +0.000 C 
ATOM      5  C   UNL     1       6.672   5.092  15.453  0.00  0.00    +0.000 C 
ATOM      6  C   UNL     1       5.234   5.530  15.750  0.00  0.00    +0.000 C 
ATOM      7  C   UNL     1       5.228   6.881  16.511  0.00  0.00    +0.000 C 
ATOM      8  C   UNL     1       4.506   4.311  16.447  0.00  0.00    +0.000 C 
ATOM      9  N   UNL     1       5.175   3.732  17.675  0.00  0.00    +0.000 NA
ENDROOT
BRANCH   1  10
ATOM     10  C   UNL     1       3.565   6.521  18.342  0.00  0.00    +0.000 C 
BRANCH  10  16
ATOM     11  C   UNL     1       1.688   7.784  21.005  0.00  0.00    +0.000 C 
ATOM     12  C   UNL     1       1.817   8.149  19.566  0.00  0.00    +0.000 A 
ATOM     13  N   UNL     1       1.178   9.301  19.181  0.00  0.00    +0.000 NA
ATOM     14  C   UNL     1       1.521   9.496  17.920  0.00  0.00    +0.000 A 
ATOM     15  N   UNL     1       2.303   8.473  17.456  0.00  0.00    +0.000 N 
ATOM     16  C   UNL     1       2.533   7.605  18.483  0.00  0.00    +0.000 A 
ATOM     17  H   UNL     1       2.709   8.417  16.538  0.00  0.00    +0.000 HD
ENDBRANCH  10  16
ENDBRANCH   1  10
BRANCH   9  18
ATOM     18  C   UNL     1       4.353   3.550  18.917  0.00  0.00    +0.000 C 
BRANCH  18  19
ATOM     19  C   UNL     1       3.953   2.124  19.545  0.00  0.00    +0.000 C 
ATOM     20  C   UNL     1       3.948   1.162  18.344  0.00  0.00    +0.000 C 
ATOM     21  C   UNL     1       4.981   1.587  20.554  0.00  0.00    +0.000 C 
BRANCH  19  22
ATOM     22  N   UNL     1       2.570   2.149  20.159  0.00  0.00    +0.000 NA
ATOM     23  C   UNL     1       2.390   2.918  21.416  0.00  0.00    +0.000 C 
ATOM     24  C   UNL     1       1.932   4.390  21.269  0.00  0.00    +0.000 C 
ATOM     25  O   UNL     1       0.772   4.514  20.443  0.00  0.00    +0.000 OA
ATOM     26  C   UNL     1       1.002   3.915  19.165  0.00  0.00    +0.000 C 
ATOM     27  C   UNL     1       1.384   2.430  19.312  0.00  0.00    +0.000 C 
ENDBRANCH  19  22
ENDBRANCH  18  19
ENDBRANCH   9  18
TORSDOF 5
ENDMDL
MODEL 5
REMARK VINA RESULT:      -7.1      1.533      2.282
REMARK  Name = 
REMARK  8 active torsions:
REMARK  status: ('A' for Active; 'I' for Inactive)
REMARK    1  A    between atoms: C_1  and  C_2
REMARK    2  A    between atoms: C_6  and  C_7
REMARK    3  A    between atoms: C_7  and  N_8
REMARK    4  A    between atoms: N_16  and  C_17
REMARK    5  A    between atoms: C_17  and  C_18
REMARK    6  A    between atoms: C_18  and  C_19
REMARK    7  A    between atoms: C_18  and  C_20
REMARK    8  A    between atoms: C_18  and  N_21
REMARK                            x       y       z     vdW  Elec       q    Type
REMARK                         _______ _______ _______ _____ _____    ______ ____
ROOT
ATOM      1  N   UNL     1       1.345   5.138  19.467  0.00  0.00    +0.000 NA
ATOM      2  C   UNL     1       1.754   4.799  18.057  0.00  0.00    +0.000 C 
ATOM      3  C   UNL     1       2.901   3.735  17.764  0.00  0.00    +0.000 C 
ATOM      4  C   UNL     1       2.538   2.230  17.803  0.00  0.00    +0.000 C 
ATOM      5  C   UNL     1       2.080   1.751  19.174  0.00  0.00    +0.000 C 
ATOM      6  C   UNL     1       2.265   2.868  20.206  0.00  0.00    +0.000 C 
ATOM      7  C   UNL     1       1.087   3.874  20.129  0.00  0.00    +0.000 C 
ATOM      8  C   UNL     1       3.721   3.453  20.009  0.00  0.00    +0.000 C 
ATOM      9  N   UNL     1       4.084   3.919  18.616  0.00  0.00    +0.000 NA
ENDROOT
BRANCH   1  10
ATOM     10  C   UNL     1       2.210   6.107  20.202  0.00  0.00    +0.000 C 
BRANCH  10  16
ATOM     11  C   UNL     1       1.870   8.642  17.821  0.00  0.00    +0.000 C 
ATOM     12  C   UNL     1       1.682   8.578  19.297  0.00  0.00    +0.000 A 
ATOM     13  N   UNL     1       1.136   9.695  19.879  0.00  0.00    +0.000 NA
ATOM     14  C   UNL     1       0.948   9.380  21.149  0.00  0.00    +0.000 A 
ATOM     15  N   UNL     1       1.416   8.123  21.423  0.00  0.00    +0.000 N 
ATOM     16  C   UNL     1       1.872   7.570  20.262  0.00  0.00    +0.000 A 
ATOM     17  H   UNL     1       1.354   7.656  22.311  0.00  0.00    +0.000 HD
ENDBRANCH  10  16
ENDBRANCH   1  10
BRANCH   9  18
ATOM     18  C   UNL     1       4.669   5.291  18.451  0.00  0.00    +0.000 C 
BRANCH  18  19
ATOM     19  C   UNL     1       5.663   5.721  17.262  0.00  0.00    +0.000 C 
ATOM     20  C   UNL     1       4.790   6.561  16.314  0.00  0.00    +0.000 C 
ATOM     21  C   UNL     1       6.823   6.618  17.726  0.00  0.00    +0.000 C 
BRANCH  19  22
ATOM     22  N   UNL     1       6.191   4.519  16.508  0.00  0.00    +0.000 NA
ATOM     23  C   UNL     1       5.266   3.837  15.568  0.00  0.00    +0.000 C 
ATOM     24  C   UNL     1       5.312   4.301  14.092  0.00  0.00    +0.000 C 
ATOM     25  O   UNL     1       6.641   4.298  13.566  0.00  0.00    +0.000 OA
ATOM     26  C   UNL     1       7.504   5.094  14.385  0.00  0.00    +0.000 C 
ATOM     27  C   UNL     1       7.512   4.583  15.837  0.00  0.00    +0.000 C 
ENDBRANCH  19  22
ENDBRANCH  18  19
ENDBRANCH   9  18
TORSDOF 5
ENDMDL
MODEL 6
REMARK VINA RESULT:      -7.0      1.524      2.468
REMARK  Name = 
REMARK  8 active torsions:
REMARK  status: ('A' for Active; 'I' for Inactive)
REMARK    1  A    between atoms: C_1  and  C_2
REMARK    2  A    between atoms: C_6  and  C_7
REMARK    3  A    between atoms: C_7  and  N_8
REMARK    4  A    between atoms: N_16  and  C_17
REMARK    5  A    between atoms: C_17  and  C_18
REMARK    6  A    between atoms: C_18  and  C_19
REMARK    7  A    between atoms: C_18  and  C_20
REMARK    8  A    between atoms: C_18  and  N_21
REMARK                            x       y       z     vdW  Elec       q    Type
REMARK                         _______ _______ _______ _____ _____    ______ ____
ROOT
ATOM      1  N   UNL     1       2.004   5.261  18.902  0.00  0.00    +0.000 NA
ATOM      2  C   UNL     1       2.532   4.654  17.628  0.00  0.00    +0.000 C 
ATOM      3  C   UNL     1       3.734   3.611  17.648  0.00  0.00    +0.000 C 
ATOM      4  C   UNL     1       3.422   2.131  17.983  0.00  0.00    +0.000 C 
ATOM      5  C   UNL     1       2.875   1.929  19.390  0.00  0.00    +0.000 C 
ATOM      6  C   UNL     1       2.941   3.246  20.170  0.00  0.00    +0.000 C 
ATOM      7  C   UNL     1       1.739   4.153  19.800  0.00  0.00    +0.000 C 
ATOM      8  C   UNL     1       4.387   3.849  19.953  0.00  0.00    +0.000 C 
ATOM      9  N   UNL     1       4.841   4.028  18.521  0.00  0.00    +0.000 NA
ENDROOT
BRANCH   1  10
ATOM     10  C   UNL     1       2.775   6.404  19.470  0.00  0.00    +0.000 C 
BRANCH  10  16
ATOM     11  C   UNL     1       1.547   9.259  17.873  0.00  0.00    +0.000 C 
ATOM     12  C   UNL     1       1.546   8.783  19.285  0.00  0.00    +0.000 A 
ATOM     13  N   UNL     1       0.805   9.530  20.167  0.00  0.00    +0.000 NA
ATOM     14  C   UNL     1       0.844   8.871  21.312  0.00  0.00    +0.000 A 
ATOM     15  N   UNL     1       1.641   7.762  21.219  0.00  0.00    +0.000 N 
ATOM     16  C   UNL     1       2.089   7.659  19.935  0.00  0.00    +0.000 A 
ATOM     17  H   UNL     1       1.798   7.091  21.951  0.00  0.00    +0.000 HD
ENDBRANCH  10  16
ENDBRANCH   1  10
BRANCH   9  18
ATOM     18  C   UNL     1       5.389   5.362  18.107  0.00  0.00    +0.000 C 
BRANCH  18  19
ATOM     19  C   UNL     1       6.809   5.580  17.383  0.00  0.00    +0.000 C 
ATOM     20  C   UNL     1       7.448   6.761  18.135  0.00  0.00    +0.000 C 
ATOM     21  C   UNL     1       7.762   4.381  17.527  0.00  0.00    +0.000 C 
BRANCH  19  22
ATOM     22  N   UNL     1       6.645   5.956  15.926  0.00  0.00    +0.000 NA
ATOM     23  C   UNL     1       7.528   5.284  14.939  0.00  0.00    +0.000 C 
ATOM     24  C   UNL     1       6.972   4.002  14.273  0.00  0.00    +0.000 C 
ATOM     25  O   UNL     1       5.672   4.203  13.716  0.00  0.00    +0.000 OA
ATOM     26  C   UNL     1       4.772   4.698  14.713  0.00  0.00    +0.000 C 
ATOM     27  C   UNL     1       5.293   6.014  15.320  0.00  0.00    +0.000 C 
ENDBRANCH  19  22
ENDBRANCH  18  19
ENDBRANCH   9  18
TORSDOF 5
ENDMDL
MODEL 7
REMARK VINA RESULT:      -7.0      1.355      2.283
REMARK  Name = 
REMARK  8 active torsions:
REMARK  status: ('A' for Active; 'I' for Inactive)
REMARK    1  A    between atoms: C_1  and  C_2
REMARK    2  A    between atoms: C_6  and  C_7
REMARK    3  A    between atoms: C_7  and  N_8
REMARK    4  A    between atoms: N_16  and  C_17
REMARK    5  A    between atoms: C_17  and  C_18
REMARK    6  A    between atoms: C_18  and  C_19
REMARK    7  A    between atoms: C_18  and  C_20
REMARK    8  A    between atoms: C_18  and  N_21
REMARK                            x       y       z     vdW  Elec       q    Type
REMARK                         _______ _______ _______ _____ _____    ______ ____
ROOT
ATOM      1  N   UNL     1       2.158   5.197  18.717  0.00  0.00    +0.000 NA
ATOM      2  C   UNL     1       2.982   4.731  17.545  0.00  0.00    +0.000 C 
ATOM      3  C   UNL     1       4.091   3.602  17.712  0.00  0.00    +0.000 C 
ATOM      4  C   UNL     1       3.639   2.120  17.722  0.00  0.00    +0.000 C 
ATOM      5  C   UNL     1       2.730   1.770  18.892  0.00  0.00    +0.000 C 
ATOM      6  C   UNL     1       2.639   2.957  19.857  0.00  0.00    +0.000 C 
ATOM      7  C   UNL     1       1.618   4.001  19.334  0.00  0.00    +0.000 C 
ATOM      8  C   UNL     1       4.114   3.465  20.116  0.00  0.00    +0.000 C 
ATOM      9  N   UNL     1       4.941   3.804  18.894  0.00  0.00    +0.000 NA
ENDROOT
BRANCH   1  10
ATOM     10  C   UNL     1       2.797   6.185  19.636  0.00  0.00    +0.000 C 
BRANCH  10  16
ATOM     11  C   UNL     1       1.823   8.994  17.800  0.00  0.00    +0.000 C 
ATOM     12  C   UNL     1       1.684   8.593  19.228  0.00  0.00    +0.000 A 
ATOM     13  N   UNL     1       0.902   9.411  20.005  0.00  0.00    +0.000 NA
ATOM     14  C   UNL     1       0.817   8.812  21.180  0.00  0.00    +0.000 A 
ATOM     15  N   UNL     1       1.573   7.671  21.211  0.00  0.00    +0.000 N 
ATOM     16  C   UNL     1       2.124   7.485  19.977  0.00  0.00    +0.000 A 
ATOM     17  H   UNL     1       1.641   7.034  21.986  0.00  0.00    +0.000 HD
ENDBRANCH  10  16
ENDBRANCH   1  10
BRANCH   9  18
ATOM     18  C   UNL     1       5.634   5.134  18.847  0.00  0.00    +0.000 C 
BRANCH  18  19
ATOM     19  C   UNL     1       7.122   5.367  18.281  0.00  0.00    +0.000 C 
ATOM     20  C   UNL     1       7.888   5.999  19.456  0.00  0.00    +0.000 C 
ATOM     21  C   UNL     1       7.850   4.064  17.911  0.00  0.00    +0.000 C 
BRANCH  19  22
ATOM     22  N   UNL     1       7.133   6.331  17.113  0.00  0.00    +0.000 NA
ATOM     23  C   UNL     1       7.095   5.753  15.746  0.00  0.00    +0.000 C 
ATOM     24  C   UNL     1       5.697   5.591  15.101  0.00  0.00    +0.000 C 
ATOM     25  O   UNL     1       4.936   6.799  15.149  0.00  0.00    +0.000 OA
ATOM     26  C   UNL     1       4.832   7.272  16.495  0.00  0.00    +0.000 C 
ATOM     27  C   UNL     1       6.226   7.504  17.108  0.00  0.00    +0.000 C 
ENDBRANCH  19  22
ENDBRANCH  18  19
ENDBRANCH   9  18
TORSDOF 5
ENDMDL
MODEL 8
REMARK VINA RESULT:      -6.9      0.829      1.283
REMARK  Name = 
REMARK  8 active torsions:
REMARK  status: ('A' for Active; 'I' for Inactive)
REMARK    1  A    between atoms: C_1  and  C_2
REMARK    2  A    between atoms: C_6  and  C_7
REMARK    3  A    between atoms: C_7  and  N_8
REMARK    4  A    between atoms: N_16  and  C_17
REMARK    5  A    between atoms: C_17  and  C_18
REMARK    6  A    between atoms: C_18  and  C_19
REMARK    7  A    between atoms: C_18  and  C_20
REMARK    8  A    between atoms: C_18  and  N_21
REMARK                            x       y       z     vdW  Elec       q    Type
REMARK                         _______ _______ _______ _____ _____    ______ ____
ROOT
ATOM      1  N   UNL     1       1.550   4.799  19.265  0.00  0.00    +0.000 NA
ATOM      2  C   UNL     1       1.394   3.913  18.056  0.00  0.00    +0.000 C 
ATOM      3  C   UNL     1       2.501   2.835  17.674  0.00  0.00    +0.000 C 
ATOM      4  C   UNL     1       2.494   1.476  18.417  0.00  0.00    +0.000 C 
ATOM      5  C   UNL     1       2.753   1.601  19.913  0.00  0.00    +0.000 C 
ATOM      6  C   UNL     1       3.125   3.046  20.260  0.00  0.00    +0.000 C 
ATOM      7  C   UNL     1       1.848   3.918  20.377  0.00  0.00    +0.000 C 
ATOM      8  C   UNL     1       4.220   3.512  19.219  0.00  0.00    +0.000 C 
ATOM      9  N   UNL     1       3.870   3.366  17.754  0.00  0.00    +0.000 NA
ENDROOT
BRANCH   1  10
ATOM     10  C   UNL     1       2.432   5.993  19.112  0.00  0.00    +0.000 C 
BRANCH  10  16
ATOM     11  C   UNL     1       1.676   9.144  17.802  0.00  0.00    +0.000 C 
ATOM     12  C   UNL     1       1.704   8.576  19.179  0.00  0.00    +0.000 A 
ATOM     13  N   UNL     1       1.214   9.389  20.171  0.00  0.00    +0.000 NA
ATOM     14  C   UNL     1       1.220   8.654  21.270  0.00  0.00    +0.000 A 
ATOM     15  N   UNL     1       1.760   7.418  21.037  0.00  0.00    +0.000 N 
ATOM     16  C   UNL     1       2.061   7.322  19.710  0.00  0.00    +0.000 A 
ATOM     17  H   UNL     1       1.842   6.678  21.713  0.00  0.00    +0.000 HD
ENDBRANCH  10  16
ENDBRANCH   1  10
BRANCH   9  18
ATOM     18  C   UNL     1       4.048   4.554  16.855  0.00  0.00    +0.000 C 
BRANCH  18  19
ATOM     19  C   UNL     1       5.435   5.341  16.647  0.00  0.00    +0.000 C 
ATOM     20  C   UNL     1       6.508   4.238  16.646  0.00  0.00    +0.000 C 
ATOM     21  C   UNL     1       5.532   6.071  15.296  0.00  0.00    +0.000 C 
BRANCH  19  22
ATOM     22  N   UNL     1       5.715   6.296  17.787  0.00  0.00    +0.000 NA
ATOM     23  C   UNL     1       6.436   5.762  18.971  0.00  0.00    +0.000 C 
ATOM     24  C   UNL     1       7.976   5.917  18.971  0.00  0.00    +0.000 C 
ATOM     25  O   UNL     1       8.384   7.261  18.710  0.00  0.00    +0.000 OA
ATOM     26  C   UNL     1       7.819   7.725  17.480  0.00  0.00    +0.000 C 
ATOM     27  C   UNL     1       6.282   7.639  17.512  0.00  0.00    +0.000 C 
ENDBRANCH  19  22
ENDBRANCH  18  19
ENDBRANCH   9  18
TORSDOF 5
ENDMDL
MODEL 9
REMARK VINA RESULT:      -6.8      2.305      5.172
REMARK  Name = 
REMARK  8 active torsions:
REMARK  status: ('A' for Active; 'I' for Inactive)
REMARK    1  A    between atoms: C_1  and  C_2
REMARK    2  A    between atoms: C_6  and  C_7
REMARK    3  A    between atoms: C_7  and  N_8
REMARK    4  A    between atoms: N_16  and  C_17
REMARK    5  A    between atoms: C_17  and  C_18
REMARK    6  A    between atoms: C_18  and  C_19
REMARK    7  A    between atoms: C_18  and  C_20
REMARK    8  A    between atoms: C_18  and  N_21
REMARK                            x       y       z     vdW  Elec       q    Type
REMARK                         _______ _______ _______ _____ _____    ______ ____
ROOT
ATOM      1  N   UNL     1       5.081   7.029  17.063  0.00  0.00    +0.000 NA
ATOM      2  C   UNL     1       6.406   6.497  17.544  0.00  0.00    +0.000 C 
ATOM      3  C   UNL     1       6.874   5.015  17.200  0.00  0.00    +0.000 C 
ATOM      4  C   UNL     1       7.503   4.744  15.811  0.00  0.00    +0.000 C 
ATOM      5  C   UNL     1       6.545   4.993  14.652  0.00  0.00    +0.000 C 
ATOM      6  C   UNL     1       5.141   5.287  15.190  0.00  0.00    +0.000 C 
ATOM      7  C   UNL     1       5.034   6.769  15.637  0.00  0.00    +0.000 C 
ATOM      8  C   UNL     1       4.813   4.185  16.275  0.00  0.00    +0.000 C 
ATOM      9  N   UNL     1       5.813   4.018  17.398  0.00  0.00    +0.000 NA
ENDROOT
BRANCH   1  10
ATOM     10  C   UNL     1       3.875   6.636  17.848  0.00  0.00    +0.000 C 
BRANCH  10  16
ATOM     11  C   UNL     1       1.858   7.227  20.639  0.00  0.00    +0.000 C 
ATOM     12  C   UNL     1       2.023   7.901  19.321  0.00  0.00    +0.000 A 
ATOM     13  N   UNL     1       1.353   9.091  19.170  0.00  0.00    +0.000 NA
ATOM     14  C   UNL     1       1.732   9.567  17.997  0.00  0.00    +0.000 A 
ATOM     15  N   UNL     1       2.569   8.695  17.355  0.00  0.00    +0.000 N 
ATOM     16  C   UNL     1       2.797   7.631  18.177  0.00  0.00    +0.000 A 
ATOM     17  H   UNL     1       3.009   8.854  16.465  0.00  0.00    +0.000 HD
ENDBRANCH  10  16
ENDBRANCH   1  10
BRANCH   9  18
ATOM     18  C   UNL     1       5.309   4.029  18.811  0.00  0.00    +0.000 C 
BRANCH  18  19
ATOM     19  C   UNL     1       4.144   3.072  19.372  0.00  0.00    +0.000 C 
ATOM     20  C   UNL     1       3.766   2.183  18.174  0.00  0.00    +0.000 C 
ATOM     21  C   UNL     1       4.607   2.139  20.503  0.00  0.00    +0.000 C 
BRANCH  19  22
ATOM     22  N   UNL     1       2.926   3.862  19.800  0.00  0.00    +0.000 NA
ATOM     23  C   UNL     1       1.749   3.856  18.895  0.00  0.00    +0.000 C 
ATOM     24  C   UNL     1       0.671   2.779  19.167  0.00  0.00    +0.000 C 
ATOM     25  O   UNL     1       0.244   2.775  20.531  0.00  0.00    +0.000 OA
ATOM     26  C   UNL     1       1.366   2.614  21.405  0.00  0.00    +0.000 C 
ATOM     27  C   UNL     1       2.403   3.732  21.182  0.00  0.00    +0.000 C 
ENDBRANCH  19  22
ENDBRANCH  18  19
ENDBRANCH   9  18
TORSDOF 5
ENDMDL
