MODEL 1
REMARK VINA RESULT:      -7.7      0.000      0.000
REMARK  Name = 
REMARK  8 active torsions:
REMARK  status: ('A' for Active; 'I' for Inactive)
REMARK    1  A    between atoms: C_1  and  C_2
REMARK    2  A    between atoms: C_2  and  C_3
REMARK    3  A    between atoms: C_2  and  N_5
REMARK    4  A    between atoms: C_2  and  C_20
REMARK    5  A    between atoms: C_3  and  O_4
REMARK    6  A    between atoms: C_6  and  C_8
REMARK    7  A    between atoms: C_11  and  C_12
REMARK    8  A    between atoms: N_22  and  O_23
REMARK                            x       y       z     vdW  Elec       q    Type
REMARK                         _______ _______ _______ _____ _____    ______ ____
ROOT
ATOM      1  N   UNL     1       4.036   5.893  17.716  0.00  0.00    +0.000 N 
ATOM      2  C   UNL     1       3.510   6.121  18.972  0.00  0.00    +0.000 C 
ATOM      3  O   UNL     1       3.746   5.419  19.946  0.00  0.00    +0.000 OA
ATOM      4  H   UNL     1       4.086   6.709  17.116  0.00  0.00    +0.000 HD
ENDROOT
BRANCH   2   5
ATOM      5  C   UNL     1       2.552   7.243  19.063  0.00  0.00    +0.000 A 
ATOM      6  C   UNL     1       1.959   7.562  20.285  0.00  0.00    +0.000 A 
ATOM      7  C   UNL     1       1.062   8.625  20.364  0.00  0.00    +0.000 A 
ATOM      8  C   UNL     1       0.746   9.407  19.237  0.00  0.00    +0.000 A 
ATOM      9  C   UNL     1       1.392   9.090  18.026  0.00  0.00    +0.000 A 
ATOM     10  C   UNL     1       2.290   8.020  17.935  0.00  0.00    +0.000 A 
BRANCH   8  11
ATOM     11  C   UNL     1      -0.248  10.502  19.332  0.00  0.00    +0.000 A 
ATOM     12  C   UNL     1      -0.393  11.261  20.511  0.00  0.00    +0.000 A 
ATOM     13  C   UNL     1      -1.377  12.245  20.630  0.00  0.00    +0.000 A 
ATOM     14  C   UNL     1      -2.230  12.508  19.564  0.00  0.00    +0.000 A 
ATOM     15  C   UNL     1      -2.095  11.791  18.380  0.00  0.00    +0.000 A 
ATOM     16  C   UNL     1      -1.118  10.796  18.269  0.00  0.00    +0.000 A 
ENDBRANCH   8  11
ENDBRANCH   2   5
BRANCH   1  18
ATOM     17  C   UNL     1       5.218   4.677  15.965  0.00  0.00    +0.000 C 
ATOM     18  C   UNL     1       5.068   4.857  17.490  0.00  0.00    +0.000 C 
BRANCH  18  19
ATOM     19  C   UNL     1       4.599   3.492  18.054  0.00  0.00    +0.000 C 
ATOM     20  O   UNL     1       3.609   2.888  17.640  0.00  0.00    +0.000 OA
ATOM     21  N   UNL     1       5.258   3.097  19.204  0.00  0.00    +0.000 N 
ATOM     22  H   UNL     1       6.242   3.336  19.291  0.00  0.00    +0.000 HD
BRANCH  21  23
ATOM     23  O   UNL     1       4.901   1.813  19.687  0.00  0.00    +0.000 OA
ATOM     24  H   UNL     1       4.694   1.327  18.859  0.00  0.00    +0.000 HD
ENDBRANCH  21  23
ENDBRANCH  18  19
BRANCH  18  25
ATOM     25  C   UNL     1       6.432   5.240  18.103  0.00  0.00    +0.000 C 
BRANCH  25  26
ATOM     26  O   UNL     1       7.420   4.234  17.841  0.00  0.00    +0.000 OA
ATOM     27  H   UNL     1       6.953   3.391  17.719  0.00  0.00    +0.000 HD
ENDBRANCH  25  26
ENDBRANCH  18  25
ENDBRANCH   1  18
TORSDOF 7
ENDMDL
MODEL 2
REMARK VINA RESULT:      -7.7      1.314      1.610
REMARK  Name = 
REMARK  8 active torsions:
REMARK  status: ('A' for Active; 'I' for Inactive)
REMARK    1  A    between atoms: C_1  and  C_2
REMARK    2  A    between atoms: C_2  and  C_3
REMARK    3  A    between atoms: C_2  and  N_5
REMARK    4  A    between atoms: C_2  and  C_20
REMARK    5  A    between atoms: C_3  and  O_4
REMARK    6  A    between atoms: C_6  and  C_8
REMARK    7  A    between atoms: C_11  and  C_12
REMARK    8  A    between atoms: N_22  and  O_23
REMARK                            x       y       z     vdW  Elec       q    Type
REMARK                         _______ _______ _______ _____ _____    ______ ____
ROOT
ATOM      1  N   UNL     1       2.906   5.080  18.339  0.00  0.00    +0.000 N 
ATOM      2  C   UNL     1       3.388   6.365  18.186  0.00  0.00    +0.000 C 
ATOM      3  O   UNL     1       4.500   6.626  17.747  0.00  0.00    +0.000 OA
ATOM      4  H   UNL     1       1.895   4.996  18.338  0.00  0.00    +0.000 HD
ENDROOT
BRANCH   2   5
ATOM      5  C   UNL     1       2.494   7.438  18.670  0.00  0.00    +0.000 A 
ATOM      6  C   UNL     1       2.083   7.460  20.004  0.00  0.00    +0.000 A 
ATOM      7  C   UNL     1       1.245   8.478  20.454  0.00  0.00    +0.000 A 
ATOM      8  C   UNL     1       0.809   9.506  19.597  0.00  0.00    +0.000 A 
ATOM      9  C   UNL     1       1.273   9.482  18.268  0.00  0.00    +0.000 A 
ATOM     10  C   UNL     1       2.111   8.461  17.804  0.00  0.00    +0.000 A 
BRANCH   8  11
ATOM     11  C   UNL     1      -0.121  10.551  20.085  0.00  0.00    +0.000 A 
ATOM     12  C   UNL     1      -0.122  10.963  21.433  0.00  0.00    +0.000 A 
ATOM     13  C   UNL     1      -1.045  11.895  21.912  0.00  0.00    +0.000 A 
ATOM     14  C   UNL     1      -1.981  12.453  21.049  0.00  0.00    +0.000 A 
ATOM     15  C   UNL     1      -1.990  12.083  19.708  0.00  0.00    +0.000 A 
ATOM     16  C   UNL     1      -1.073  11.138  19.235  0.00  0.00    +0.000 A 
ENDBRANCH   8  11
ENDBRANCH   2   5
BRANCH   1  18
ATOM     17  C   UNL     1       2.628   2.794  17.539  0.00  0.00    +0.000 C 
ATOM     18  C   UNL     1       3.654   3.911  17.826  0.00  0.00    +0.000 C 
BRANCH  18  19
ATOM     19  C   UNL     1       4.615   3.363  18.911  0.00  0.00    +0.000 C 
ATOM     20  O   UNL     1       5.570   3.997  19.358  0.00  0.00    +0.000 OA
ATOM     21  N   UNL     1       4.442   2.020  19.195  0.00  0.00    +0.000 N 
ATOM     22  H   UNL     1       3.497   1.647  19.161  0.00  0.00    +0.000 HD
BRANCH  21  23
ATOM     23  O   UNL     1       5.254   1.521  20.244  0.00  0.00    +0.000 OA
ATOM     24  H   UNL     1       5.757   2.318  20.518  0.00  0.00    +0.000 HD
ENDBRANCH  21  23
ENDBRANCH  18  19
BRANCH  18  25
ATOM     25  C   UNL     1       4.441   4.233  16.538  0.00  0.00    +0.000 C 
BRANCH  25  26
ATOM     26  O   UNL     1       5.628   3.435  16.440  0.00  0.00    +0.000 OA
ATOM     27  H   UNL     1       5.767   3.231  15.500  0.00  0.00    +0.000 HD
ENDBRANCH  25  26
ENDBRANCH  18  25
ENDBRANCH   1  18
TORSDOF 7
ENDMDL
MODEL 3
REMARK VINA RESULT:      -7.6      1.312      1.888
REMARK  Name = 
REMARK  8 active torsions:
REMARK  status: ('A' for Active; 'I' for Inactive)
REMARK    1  A    between atoms: C_1  and  C_2
REMARK    2  A    between atoms: C_2  and  C_3
REMARK    3  A    between atoms: C_2  and  N_5
REMARK    4  A    between atoms: C_2  and  C_20
REMARK    5  A    between atoms: C_3  and  O_4
REMARK    6  A    between atoms: C_6  and  C_8
REMARK    7  A    between atoms: C_11  and  C_12
REMARK    8  A    between atoms: N_22  and  O_23
REMARK                            x       y       z     vdW  Elec       q    Type
REMARK                         _______ _______ _______ _____ _____    ______ ____
ROOT
ATOM      1  N   UNL     1       2.900   5.096  18.340  0.00  0.00    +0.000 N 
ATOM      2  C   UNL     1       3.373   6.382  18.171  0.00  0.00    +0.000 C 
ATOM      3  O   UNL     1       4.474   6.646  17.709  0.00  0.00    +0.000 OA
ATOM      4  H   UNL     1       1.890   5.007  18.359  0.00  0.00    +0.000 HD
ENDROOT
BRANCH   2   5
ATOM      5  C   UNL     1       2.484   7.453  18.669  0.00  0.00    +0.000 A 
ATOM      6  C   UNL     1       2.073   7.459  20.003  0.00  0.00    +0.000 A 
ATOM      7  C   UNL     1       1.240   8.475  20.467  0.00  0.00    +0.000 A 
ATOM      8  C   UNL     1       0.809   9.517  19.624  0.00  0.00    +0.000 A 
ATOM      9  C   UNL     1       1.273   9.509  18.295  0.00  0.00    +0.000 A 
ATOM     10  C   UNL     1       2.105   8.489  17.817  0.00  0.00    +0.000 A 
BRANCH   8  11
ATOM     11  C   UNL     1      -0.116  10.559  20.125  0.00  0.00    +0.000 A 
ATOM     12  C   UNL     1      -1.093  11.138  19.290  0.00  0.00    +0.000 A 
ATOM     13  C   UNL     1      -1.919  12.172  19.737  0.00  0.00    +0.000 A 
ATOM     14  C   UNL     1      -1.800  12.641  21.040  0.00  0.00    +0.000 A 
ATOM     15  C   UNL     1      -0.861  12.074  21.895  0.00  0.00    +0.000 A 
ATOM     16  C   UNL     1      -0.026  11.049  21.439  0.00  0.00    +0.000 A 
ENDBRANCH   8  11
ENDBRANCH   2   5
BRANCH   1  18
ATOM     17  C   UNL     1       2.610   2.821  17.510  0.00  0.00    +0.000 C 
ATOM     18  C   UNL     1       3.643   3.928  17.815  0.00  0.00    +0.000 C 
BRANCH  18  19
ATOM     19  C   UNL     1       4.594   3.361  18.898  0.00  0.00    +0.000 C 
ATOM     20  O   UNL     1       5.537   3.993  19.376  0.00  0.00    +0.000 OA
ATOM     21  N   UNL     1       4.433   2.008  19.143  0.00  0.00    +0.000 N 
ATOM     22  H   UNL     1       3.493   1.627  19.085  0.00  0.00    +0.000 HD
BRANCH  21  23
ATOM     23  O   UNL     1       5.236   1.490  20.189  0.00  0.00    +0.000 OA
ATOM     24  H   UNL     1       6.004   1.121  19.702  0.00  0.00    +0.000 HD
ENDBRANCH  21  23
ENDBRANCH  18  19
BRANCH  18  25
ATOM     25  C   UNL     1       4.438   4.261  16.535  0.00  0.00    +0.000 C 
BRANCH  25  26
ATOM     26  O   UNL     1       5.670   3.529  16.483  0.00  0.00    +0.000 OA
ATOM     27  H   UNL     1       6.259   3.991  15.864  0.00  0.00    +0.000 HD
ENDBRANCH  25  26
ENDBRANCH  18  25
ENDBRANCH   1  18
TORSDOF 7
ENDMDL
MODEL 4
REMARK VINA RESULT:      -7.6      0.959      1.186
REMARK  Name = 
REMARK  8 active torsions:
REMARK  status: ('A' for Active; 'I' for Inactive)
REMARK    1  A    between atoms: C_1  and  C_2
REMARK    2  A    between atoms: C_2  and  C_3
REMARK    3  A    between atoms: C_2  and  N_5
REMARK    4  A    between atoms: C_2  and  C_20
REMARK    5  A    between atoms: C_3  and  O_4
REMARK    6  A    between atoms: C_6  and  C_8
REMARK    7  A    between atoms: C_11  and  C_12
REMARK    8  A    between atoms: N_22  and  O_23
REMARK                            x       y       z     vdW  Elec       q    Type
REMARK                         _______ _______ _______ _____ _____    ______ ____
ROOT
ATOM      1  N   UNL     1       4.440   6.332  17.813  0.00  0.00    +0.000 N 
ATOM      2  C   UNL     1       3.238   6.117  18.458  0.00  0.00    +0.000 C 
ATOM      3  O   UNL     1       2.805   5.007  18.735  0.00  0.00    +0.000 OA
ATOM      4  H   UNL     1       4.860   7.241  17.977  0.00  0.00    +0.000 HD
ENDROOT
BRANCH   2   5
ATOM      5  C   UNL     1       2.442   7.331  18.733  0.00  0.00    +0.000 A 
ATOM      6  C   UNL     1       1.962   7.579  20.020  0.00  0.00    +0.000 A 
ATOM      7  C   UNL     1       1.217   8.729  20.273  0.00  0.00    +0.000 A 
ATOM      8  C   UNL     1       0.944   9.667  19.260  0.00  0.00    +0.000 A 
ATOM      9  C   UNL     1       1.477   9.414  17.981  0.00  0.00    +0.000 A 
ATOM     10  C   UNL     1       2.221   8.258  17.715  0.00  0.00    +0.000 A 
BRANCH   8  11
ATOM     11  C   UNL     1       0.109  10.858  19.539  0.00  0.00    +0.000 A 
ATOM     12  C   UNL     1       0.595  11.933  20.310  0.00  0.00    +0.000 A 
ATOM     13  C   UNL     1      -0.213  13.024  20.636  0.00  0.00    +0.000 A 
ATOM     14  C   UNL     1      -1.526  13.076  20.182  0.00  0.00    +0.000 A 
ATOM     15  C   UNL     1      -2.028  12.041  19.401  0.00  0.00    +0.000 A 
ATOM     16  C   UNL     1      -1.220  10.943  19.088  0.00  0.00    +0.000 A 
ENDBRANCH   8  11
ENDBRANCH   2   5
BRANCH   1  18
ATOM     17  C   UNL     1       4.711   4.284  16.518  0.00  0.00    +0.000 C 
ATOM     18  C   UNL     1       5.380   5.221  17.547  0.00  0.00    +0.000 C 
BRANCH  18  19
ATOM     19  C   UNL     1       5.605   4.383  18.830  0.00  0.00    +0.000 C 
ATOM     20  O   UNL     1       6.322   4.744  19.763  0.00  0.00    +0.000 OA
ATOM     21  N   UNL     1       5.101   3.096  18.762  0.00  0.00    +0.000 N 
ATOM     22  H   UNL     1       4.239   2.953  18.243  0.00  0.00    +0.000 HD
BRANCH  21  23
ATOM     23  O   UNL     1       5.222   2.342  19.956  0.00  0.00    +0.000 OA
ATOM     24  H   UNL     1       5.404   1.439  19.618  0.00  0.00    +0.000 HD
ENDBRANCH  21  23
ENDBRANCH  18  19
BRANCH  18  25
ATOM     25  C   UNL     1       6.734   5.714  16.994  0.00  0.00    +0.000 C 
BRANCH  25  26
ATOM     26  O   UNL     1       7.729   4.683  17.059  0.00  0.00    +0.000 OA
ATOM     27  H   UNL     1       8.539   5.080  17.420  0.00  0.00    +0.000 HD
ENDBRANCH  25  26
ENDBRANCH  18  25
ENDBRANCH   1  18
TORSDOF 7
ENDMDL
MODEL 5
REMARK VINA RESULT:      -7.6      1.322      2.146
REMARK  Name = 
REMARK  8 active torsions:
REMARK  status: ('A' for Active; 'I' for Inactive)
REMARK    1  A    between atoms: C_1  and  C_2
REMARK    2  A    between atoms: C_2  and  C_3
REMARK    3  A    between atoms: C_2  and  N_5
REMARK    4  A    between atoms: C_2  and  C_20
REMARK    5  A    between atoms: C_3  and  O_4
REMARK    6  A    between atoms: C_6  and  C_8
REMARK    7  A    between atoms: C_11  and  C_12
REMARK    8  A    between atoms: N_22  and  O_23
REMARK                            x       y       z     vdW  Elec       q    Type
REMARK                         _______ _______ _______ _____ _____    ______ ____
ROOT
ATOM      1  N   UNL     1       2.940   5.114  18.391  0.00  0.00    +0.000 N 
ATOM      2  C   UNL     1       3.386   6.404  18.185  0.00  0.00    +0.000 C 
ATOM      3  O   UNL     1       4.466   6.676  17.677  0.00  0.00    +0.000 OA
ATOM      4  H   UNL     1       1.932   5.010  18.450  0.00  0.00    +0.000 HD
ENDROOT
BRANCH   2   5
ATOM      5  C   UNL     1       2.500   7.469  18.698  0.00  0.00    +0.000 A 
ATOM      6  C   UNL     1       2.045   8.475  17.844  0.00  0.00    +0.000 A 
ATOM      7  C   UNL     1       1.205   9.474  18.333  0.00  0.00    +0.000 A 
ATOM      8  C   UNL     1       0.783   9.487  19.676  0.00  0.00    +0.000 A 
ATOM      9  C   UNL     1       1.222   8.437  20.504  0.00  0.00    +0.000 A 
ATOM     10  C   UNL     1       2.072   7.433  20.024  0.00  0.00    +0.000 A 
BRANCH   8  11
ATOM     11  C   UNL     1      -0.070  10.585  20.187  0.00  0.00    +0.000 A 
ATOM     12  C   UNL     1      -0.980  11.259  19.349  0.00  0.00    +0.000 A 
ATOM     13  C   UNL     1      -1.734  12.342  19.808  0.00  0.00    +0.000 A 
ATOM     14  C   UNL     1      -1.609  12.766  21.127  0.00  0.00    +0.000 A 
ATOM     15  C   UNL     1      -0.736  12.105  21.984  0.00  0.00    +0.000 A 
ATOM     16  C   UNL     1       0.028  11.031  21.517  0.00  0.00    +0.000 A 
ENDBRANCH   8  11
ENDBRANCH   2   5
BRANCH   1  18
ATOM     17  C   UNL     1       2.648   2.842  17.556  0.00  0.00    +0.000 C 
ATOM     18  C   UNL     1       3.681   3.948  17.859  0.00  0.00    +0.000 C 
BRANCH  18  19
ATOM     19  C   UNL     1       4.639   3.378  18.935  0.00  0.00    +0.000 C 
ATOM     20  O   UNL     1       5.593   4.003  19.398  0.00  0.00    +0.000 OA
ATOM     21  N   UNL     1       4.467   2.029  19.190  0.00  0.00    +0.000 N 
ATOM     22  H   UNL     1       3.522   1.657  19.146  0.00  0.00    +0.000 HD
BRANCH  21  23
ATOM     23  O   UNL     1       5.276   1.509  20.230  0.00  0.00    +0.000 OA
ATOM     24  H   UNL     1       4.801   0.686  20.475  0.00  0.00    +0.000 HD
ENDBRANCH  21  23
ENDBRANCH  18  19
BRANCH  18  25
ATOM     25  C   UNL     1       4.469   4.286  16.575  0.00  0.00    +0.000 C 
BRANCH  25  26
ATOM     26  O   UNL     1       5.672   3.511  16.486  0.00  0.00    +0.000 OA
ATOM     27  H   UNL     1       6.164   3.639  17.314  0.00  0.00    +0.000 HD
ENDBRANCH  25  26
ENDBRANCH  18  25
ENDBRANCH   1  18
TORSDOF 7
ENDMDL
MODEL 6
REMARK VINA RESULT:      -7.6      1.410      1.885
REMARK  Name = 
REMARK  8 active torsions:
REMARK  status: ('A' for Active; 'I' for Inactive)
REMARK    1  A    between atoms: C_1  and  C_2
REMARK    2  A    between atoms: C_2  and  C_3
REMARK    3  A    between atoms: C_2  and  N_5
REMARK    4  A    between atoms: C_2  and  C_20
REMARK    5  A    between atoms: C_3  and  O_4
REMARK    6  A    between atoms: C_6  and  C_8
REMARK    7  A    between atoms: C_11  and  C_12
REMARK    8  A    between atoms: N_22  and  O_23
REMARK                            x       y       z     vdW  Elec       q    Type
REMARK                         _______ _______ _______ _____ _____    ______ ____
ROOT
ATOM      1  N   UNL     1       4.448   6.200  18.337  0.00  0.00    +0.000 N 
ATOM      2  C   UNL     1       3.075   6.057  18.354  0.00  0.00    +0.000 C 
ATOM      3  O   UNL     1       2.478   5.154  17.784  0.00  0.00    +0.000 OA
ATOM      4  H   UNL     1       4.838   6.718  19.117  0.00  0.00    +0.000 HD
ENDROOT
BRANCH   2   5
ATOM      5  C   UNL     1       2.336   7.131  19.052  0.00  0.00    +0.000 A 
ATOM      6  C   UNL     1       1.976   6.978  20.391  0.00  0.00    +0.000 A 
ATOM      7  C   UNL     1       1.284   7.997  21.043  0.00  0.00    +0.000 A 
ATOM      8  C   UNL     1       0.950   9.197  20.387  0.00  0.00    +0.000 A 
ATOM      9  C   UNL     1       1.364   9.341  19.049  0.00  0.00    +0.000 A 
ATOM     10  C   UNL     1       2.053   8.321  18.383  0.00  0.00    +0.000 A 
BRANCH   8  11
ATOM     11  C   UNL     1       0.172  10.247  21.085  0.00  0.00    +0.000 A 
ATOM     12  C   UNL     1       0.047  11.546  20.552  0.00  0.00    +0.000 A 
ATOM     13  C   UNL     1      -0.624  12.558  21.241  0.00  0.00    +0.000 A 
ATOM     14  C   UNL     1      -1.205  12.291  22.476  0.00  0.00    +0.000 A 
ATOM     15  C   UNL     1      -1.117  11.013  23.017  0.00  0.00    +0.000 A 
ATOM     16  C   UNL     1      -0.432  10.005  22.331  0.00  0.00    +0.000 A 
ENDBRANCH   8  11
ENDBRANCH   2   5
BRANCH   1  18
ATOM     17  C   UNL     1       5.029   5.112  16.234  0.00  0.00    +0.000 C 
ATOM     18  C   UNL     1       5.323   5.161  17.748  0.00  0.00    +0.000 C 
BRANCH  18  19
ATOM     19  C   UNL     1       4.962   3.765  18.315  0.00  0.00    +0.000 C 
ATOM     20  O   UNL     1       5.182   3.424  19.478  0.00  0.00    +0.000 OA
ATOM     21  N   UNL     1       4.559   2.851  17.358  0.00  0.00    +0.000 N 
ATOM     22  H   UNL     1       4.022   3.199  16.568  0.00  0.00    +0.000 HD
BRANCH  21  23
ATOM     23  O   UNL     1       4.146   1.595  17.867  0.00  0.00    +0.000 OA
ATOM     24  H   UNL     1       4.938   1.035  17.716  0.00  0.00    +0.000 HD
ENDBRANCH  21  23
ENDBRANCH  18  19
BRANCH  18  25
ATOM     25  C   UNL     1       6.821   5.453  17.975  0.00  0.00    +0.000 C 
BRANCH  25  26
ATOM     26  O   UNL     1       7.587   4.241  18.009  0.00  0.00    +0.000 OA
ATOM     27  H   UNL     1       7.575   3.863  17.113  0.00  0.00    +0.000 HD
ENDBRANCH  25  26
ENDBRANCH  18  25
ENDBRANCH   1  18
TORSDOF 7
ENDMDL
MODEL 7
REMARK VINA RESULT:      -7.6      1.269      1.625
REMARK  Name = 
REMARK  8 active torsions:
REMARK  status: ('A' for Active; 'I' for Inactive)
REMARK    1  A    between atoms: C_1  and  C_2
REMARK    2  A    between atoms: C_2  and  C_3
REMARK    3  A    between atoms: C_2  and  N_5
REMARK    4  A    between atoms: C_2  and  C_20
REMARK    5  A    between atoms: C_3  and  O_4
REMARK    6  A    between atoms: C_6  and  C_8
REMARK    7  A    between atoms: C_11  and  C_12
REMARK    8  A    between atoms: N_22  and  O_23
REMARK                            x       y       z     vdW  Elec       q    Type
REMARK                         _______ _______ _______ _____ _____    ______ ____
ROOT
ATOM      1  N   UNL     1       4.481   6.123  18.387  0.00  0.00    +0.000 N 
ATOM      2  C   UNL     1       3.106   6.018  18.323  0.00  0.00    +0.000 C 
ATOM      3  O   UNL     1       2.519   5.140  17.705  0.00  0.00    +0.000 OA
ATOM      4  H   UNL     1       4.838   6.620  19.197  0.00  0.00    +0.000 HD
ENDROOT
BRANCH   2   5
ATOM      5  C   UNL     1       2.357   7.102  18.994  0.00  0.00    +0.000 A 
ATOM      6  C   UNL     1       1.986   6.973  20.333  0.00  0.00    +0.000 A 
ATOM      7  C   UNL     1       1.285   8.001  20.960  0.00  0.00    +0.000 A 
ATOM      8  C   UNL     1       0.951   9.187  20.279  0.00  0.00    +0.000 A 
ATOM      9  C   UNL     1       1.375   9.307  18.942  0.00  0.00    +0.000 A 
ATOM     10  C   UNL     1       2.074   8.278  18.301  0.00  0.00    +0.000 A 
BRANCH   8  11
ATOM     11  C   UNL     1       0.163  10.246  20.950  0.00  0.00    +0.000 A 
ATOM     12  C   UNL     1      -0.263  10.110  22.287  0.00  0.00    +0.000 A 
ATOM     13  C   UNL     1      -1.067  11.073  22.901  0.00  0.00    +0.000 A 
ATOM     14  C   UNL     1      -1.451  12.209  22.196  0.00  0.00    +0.000 A 
ATOM     15  C   UNL     1      -1.027  12.382  20.883  0.00  0.00    +0.000 A 
ATOM     16  C   UNL     1      -0.234  11.408  20.267  0.00  0.00    +0.000 A 
ENDBRANCH   8  11
ENDBRANCH   2   5
BRANCH   1  18
ATOM     17  C   UNL     1       5.113   5.013  16.311  0.00  0.00    +0.000 C 
ATOM     18  C   UNL     1       5.360   5.069  17.833  0.00  0.00    +0.000 C 
BRANCH  18  19
ATOM     19  C   UNL     1       4.965   3.682  18.399  0.00  0.00    +0.000 C 
ATOM     20  O   UNL     1       5.155   3.343  19.567  0.00  0.00    +0.000 OA
ATOM     21  N   UNL     1       4.568   2.770  17.437  0.00  0.00    +0.000 N 
ATOM     22  H   UNL     1       4.054   3.123  16.635  0.00  0.00    +0.000 HD
BRANCH  21  23
ATOM     23  O   UNL     1       4.123   1.523  17.943  0.00  0.00    +0.000 OA
ATOM     24  H   UNL     1       3.648   1.141  17.174  0.00  0.00    +0.000 HD
ENDBRANCH  21  23
ENDBRANCH  18  19
BRANCH  18  25
ATOM     25  C   UNL     1       6.855   5.345  18.105  0.00  0.00    +0.000 C 
BRANCH  25  26
ATOM     26  O   UNL     1       7.638   4.154  17.952  0.00  0.00    +0.000 OA
ATOM     27  H   UNL     1       8.048   3.961  18.812  0.00  0.00    +0.000 HD
ENDBRANCH  25  26
ENDBRANCH  18  25
ENDBRANCH   1  18
TORSDOF 7
ENDMDL
MODEL 8
REMARK VINA RESULT:      -7.5      0.225      1.030
REMARK  Name = 
REMARK  8 active torsions:
REMARK  status: ('A' for Active; 'I' for Inactive)
REMARK    1  A    between atoms: C_1  and  C_2
REMARK    2  A    between atoms: C_2  and  C_3
REMARK    3  A    between atoms: C_2  and  N_5
REMARK    4  A    between atoms: C_2  and  C_20
REMARK    5  A    between atoms: C_3  and  O_4
REMARK    6  A    between atoms: C_6  and  C_8
REMARK    7  A    between atoms: C_11  and  C_12
REMARK    8  A    between atoms: N_22  and  O_23
REMARK                            x       y       z     vdW  Elec       q    Type
REMARK                         _______ _______ _______ _____ _____    ______ ____
ROOT
ATOM      1  N   UNL     1       4.060   5.895  17.813  0.00  0.00    +0.000 N 
ATOM      2  C   UNL     1       3.513   6.083  19.067  0.00  0.00    +0.000 C 
ATOM      3  O   UNL     1       3.718   5.339  20.017  0.00  0.00    +0.000 OA
ATOM      4  H   UNL     1       4.138   6.733  17.247  0.00  0.00    +0.000 HD
ENDROOT
BRANCH   2   5
ATOM      5  C   UNL     1       2.575   7.219  19.184  0.00  0.00    +0.000 A 
ATOM      6  C   UNL     1       2.274   7.998  18.066  0.00  0.00    +0.000 A 
ATOM      7  C   UNL     1       1.384   9.064  18.182  0.00  0.00    +0.000 A 
ATOM      8  C   UNL     1       0.761   9.372  19.406  0.00  0.00    +0.000 A 
ATOM      9  C   UNL     1       1.050   8.544  20.508  0.00  0.00    +0.000 A 
ATOM     10  C   UNL     1       1.948   7.475  20.403  0.00  0.00    +0.000 A 
BRANCH   8  11
ATOM     11  C   UNL     1      -0.144  10.540  19.519  0.00  0.00    +0.000 A 
ATOM     12  C   UNL     1      -0.467  11.100  20.771  0.00  0.00    +0.000 A 
ATOM     13  C   UNL     1      -1.376  12.154  20.888  0.00  0.00    +0.000 A 
ATOM     14  C   UNL     1      -1.971  12.688  19.750  0.00  0.00    +0.000 A 
ATOM     15  C   UNL     1      -1.653  12.172  18.499  0.00  0.00    +0.000 A 
ATOM     16  C   UNL     1      -0.754  11.106  18.387  0.00  0.00    +0.000 A 
ENDBRANCH   8  11
ENDBRANCH   2   5
BRANCH   1  18
ATOM     17  C   UNL     1       5.227   4.700  16.037  0.00  0.00    +0.000 C 
ATOM     18  C   UNL     1       5.078   4.849  17.566  0.00  0.00    +0.000 C 
BRANCH  18  19
ATOM     19  C   UNL     1       4.587   3.479  18.099  0.00  0.00    +0.000 C 
ATOM     20  O   UNL     1       3.572   2.913  17.692  0.00  0.00    +0.000 OA
ATOM     21  N   UNL     1       5.263   3.032  19.220  0.00  0.00    +0.000 N 
ATOM     22  H   UNL     1       6.255   3.244  19.290  0.00  0.00    +0.000 HD
BRANCH  21  23
ATOM     23  O   UNL     1       4.885   1.743  19.672  0.00  0.00    +0.000 OA
ATOM     24  H   UNL     1       5.194   1.165  18.942  0.00  0.00    +0.000 HD
ENDBRANCH  21  23
ENDBRANCH  18  19
BRANCH  18  25
ATOM     25  C   UNL     1       6.446   5.198  18.189  0.00  0.00    +0.000 C 
BRANCH  25  26
ATOM     26  O   UNL     1       7.440   4.227  17.836  0.00  0.00    +0.000 OA
ATOM     27  H   UNL     1       6.991   3.371  17.740  0.00  0.00    +0.000 HD
ENDBRANCH  25  26
ENDBRANCH  18  25
ENDBRANCH   1  18
TORSDOF 7
ENDMDL
MODEL 9
REMARK VINA RESULT:      -7.5      1.469      2.009
REMARK  Name = 
REMARK  8 active torsions:
REMARK  status: ('A' for Active; 'I' for Inactive)
REMARK    1  A    between atoms: C_1  and  C_2
REMARK    2  A    between atoms: C_2  and  C_3
REMARK    3  A    between atoms: C_2  and  N_5
REMARK    4  A    between atoms: C_2  and  C_20
REMARK    5  A    between atoms: C_3  and  O_4
REMARK    6  A    between atoms: C_6  and  C_8
REMARK    7  A    between atoms: C_11  and  C_12
REMARK    8  A    between atoms: N_22  and  O_23
REMARK                            x       y       z     vdW  Elec       q    Type
REMARK                         _______ _______ _______ _____ _____    ______ ____
ROOT
ATOM      1  N   UNL     1       4.475   6.186  18.339  0.00  0.00    +0.000 N 
ATOM      2  C   UNL     1       3.101   6.060  18.358  0.00  0.00    +0.000 C 
ATOM      3  O   UNL     1       2.492   5.170  17.779  0.00  0.00    +0.000 OA
ATOM      4  H   UNL     1       4.873   6.691  19.123  0.00  0.00    +0.000 HD
ENDROOT
BRANCH   2   5
ATOM      5  C   UNL     1       2.377   7.134  19.069  0.00  0.00    +0.000 A 
ATOM      6  C   UNL     1       2.081   8.332  18.416  0.00  0.00    +0.000 A 
ATOM      7  C   UNL     1       1.393   9.338  19.091  0.00  0.00    +0.000 A 
ATOM      8  C   UNL     1       0.967   9.173  20.423  0.00  0.00    +0.000 A 
ATOM      9  C   UNL     1       1.241   7.939  21.043  0.00  0.00    +0.000 A 
ATOM     10  C   UNL     1       1.938   6.924  20.376  0.00  0.00    +0.000 A 
BRANCH   8  11
ATOM     11  C   UNL     1       0.281  10.274  21.137  0.00  0.00    +0.000 A 
ATOM     12  C   UNL     1      -0.410  10.048  22.345  0.00  0.00    +0.000 A 
ATOM     13  C   UNL     1      -1.119  11.068  22.984  0.00  0.00    +0.000 A 
ATOM     14  C   UNL     1      -1.140  12.347  22.439  0.00  0.00    +0.000 A 
ATOM     15  C   UNL     1      -0.449  12.605  21.260  0.00  0.00    +0.000 A 
ATOM     16  C   UNL     1       0.248  11.578  20.615  0.00  0.00    +0.000 A 
ENDBRANCH   8  11
ENDBRANCH   2   5
BRANCH   1  18
ATOM     17  C   UNL     1       5.013   5.091  16.227  0.00  0.00    +0.000 C 
ATOM     18  C   UNL     1       5.336   5.144  17.736  0.00  0.00    +0.000 C 
BRANCH  18  19
ATOM     19  C   UNL     1       4.984   3.750  18.314  0.00  0.00    +0.000 C 
ATOM     20  O   UNL     1       5.222   3.413  19.474  0.00  0.00    +0.000 OA
ATOM     21  N   UNL     1       4.565   2.833  17.366  0.00  0.00    +0.000 N 
ATOM     22  H   UNL     1       4.016   3.179  16.584  0.00  0.00    +0.000 HD
BRANCH  21  23
ATOM     23  O   UNL     1       4.159   1.579  17.886  0.00  0.00    +0.000 OA
ATOM     24  H   UNL     1       4.499   0.951  17.213  0.00  0.00    +0.000 HD
ENDBRANCH  21  23
ENDBRANCH  18  19
BRANCH  18  25
ATOM     25  C   UNL     1       6.839   5.433  17.933  0.00  0.00    +0.000 C 
BRANCH  25  26
ATOM     26  O   UNL     1       7.603   4.220  17.957  0.00  0.00    +0.000 OA
ATOM     27  H   UNL     1       8.252   4.297  18.676  0.00  0.00    +0.000 HD
ENDBRANCH  25  26
ENDBRANCH  18  25
ENDBRANCH   1  18
TORSDOF 7
ENDMDL
