MODEL 1
REMARK VINA RESULT:      -7.8      0.000      0.000
REMARK  Name = 
REMARK  4 active torsions:
REMARK  status: ('A' for Active; 'I' for Inactive)
REMARK    1  A    between atoms: C_1  and  N_2
REMARK    2  A    between atoms: C_5  and  C_6
REMARK    3  A    between atoms: C_8  and  C_9
REMARK    4  A    between atoms: C_15  and  C_16
REMARK                            x       y       z     vdW  Elec       q    Type
REMARK                         _______ _______ _______ _____ _____    ______ ____
ROOT
ATOM      1  C   UNL     1       1.389   8.062  20.895  0.00  0.00    +0.000 A 
ATOM      2  C   UNL     1       0.910   6.778  20.993  0.00  0.00    +0.000 A 
ATOM      3  C   UNL     1       1.751   5.920  20.224  0.00  0.00    +0.000 A 
ATOM      4  C   UNL     1       2.717   6.729  19.620  0.00  0.00    +0.000 A 
ATOM      5  N   UNL     1       2.489   8.015  20.070  0.00  0.00    +0.000 N 
ATOM      6  H   UNL     1       3.044   8.820  19.810  0.00  0.00    +0.000 HD
ENDROOT
BRANCH   1  11
ATOM      7  C   UNL     1      -1.769  12.538  22.559  0.00  0.00    +0.000 C 
ATOM      8  N   UNL     1      -1.204  11.314  21.988  0.00  0.00    +0.000 NA
ATOM      9  C   UNL     1      -0.067  11.636  21.116  0.00  0.00    +0.000 C 
ATOM     10  C   UNL     1       0.500  10.373  20.465  0.00  0.00    +0.000 C 
ATOM     11  C   UNL     1       0.895   9.335  21.522  0.00  0.00    +0.000 C 
ATOM     12  C   UNL     1      -0.272   9.078  22.482  0.00  0.00    +0.000 C 
ATOM     13  C   UNL     1      -0.810  10.388  23.060  0.00  0.00    +0.000 C 
ENDBRANCH   1  11
BRANCH   4  14
ATOM     14  C   UNL     1       3.822   6.433  18.686  0.00  0.00    +0.000 A 
ATOM     15  C   UNL     1       3.869   7.042  17.421  0.00  0.00    +0.000 A 
ATOM     16  C   UNL     1       4.798   6.636  16.458  0.00  0.00    +0.000 A 
ATOM     17  C   UNL     1       5.742   5.669  16.781  0.00  0.00    +0.000 A 
ATOM     18 CL   UNL     1       6.873   5.151  15.593  0.00  0.00    +0.000 Cl
ATOM     19  C   UNL     1       5.767   5.111  18.056  0.00  0.00    +0.000 A 
ATOM     20  C   UNL     1       4.804   5.484  19.003  0.00  0.00    +0.000 A 
ENDBRANCH   4  14
BRANCH   3  21
ATOM     21  C   UNL     1       1.606   4.474  20.063  0.00  0.00    +0.000 A 
ATOM     22  C   UNL     1       1.321   3.932  18.809  0.00  0.00    +0.000 A 
ATOM     23  C   UNL     1       1.262   2.554  18.676  0.00  0.00    +0.000 A 
ATOM     24  N   UNL     1       1.485   1.688  19.688  0.00  0.00    +0.000 NA
ATOM     25  C   UNL     1       1.734   2.228  20.896  0.00  0.00    +0.000 A 
ATOM     26  C   UNL     1       1.764   3.592  21.138  0.00  0.00    +0.000 A 
ENDBRANCH   3  21
TORSDOF 3
ENDMDL
MODEL 2
REMARK VINA RESULT:      -7.7      1.337      1.479
REMARK  Name = 
REMARK  4 active torsions:
REMARK  status: ('A' for Active; 'I' for Inactive)
REMARK    1  A    between atoms: C_1  and  N_2
REMARK    2  A    between atoms: C_5  and  C_6
REMARK    3  A    between atoms: C_8  and  C_9
REMARK    4  A    between atoms: C_15  and  C_16
REMARK                            x       y       z     vdW  Elec       q    Type
REMARK                         _______ _______ _______ _____ _____    ______ ____
ROOT
ATOM      1  C   UNL     1       1.516   8.445  19.860  0.00  0.00    +0.000 A 
ATOM      2  C   UNL     1       1.153   7.292  20.513  0.00  0.00    +0.000 A 
ATOM      3  C   UNL     1       1.889   6.204  19.956  0.00  0.00    +0.000 A 
ATOM      4  C   UNL     1       2.665   6.725  18.917  0.00  0.00    +0.000 A 
ATOM      5  N   UNL     1       2.439   8.088  18.905  0.00  0.00    +0.000 N 
ATOM      6  H   UNL     1       2.878   8.736  18.264  0.00  0.00    +0.000 HD
ENDROOT
BRANCH   1  11
ATOM      7  C   UNL     1      -1.498  13.308  20.076  0.00  0.00    +0.000 C 
ATOM      8  N   UNL     1      -0.974  11.951  19.908  0.00  0.00    +0.000 NA
ATOM      9  C   UNL     1       0.163  11.956  18.977  0.00  0.00    +0.000 C 
ATOM     10  C   UNL     1       0.687  10.538  18.743  0.00  0.00    +0.000 C 
ATOM     11  C   UNL     1       1.064   9.863  20.067  0.00  0.00    +0.000 C 
ATOM     12  C   UNL     1      -0.099   9.948  21.062  0.00  0.00    +0.000 C 
ATOM     13  C   UNL     1      -0.594  11.387  21.211  0.00  0.00    +0.000 C 
ENDBRANCH   1  11
BRANCH   4  14
ATOM     14  C   UNL     1       3.590   6.097  17.952  0.00  0.00    +0.000 A 
ATOM     15  C   UNL     1       4.421   6.889  17.143  0.00  0.00    +0.000 A 
ATOM     16  C   UNL     1       5.161   6.325  16.099  0.00  0.00    +0.000 A 
ATOM     17  C   UNL     1       5.138   4.950  15.906  0.00  0.00    +0.000 A 
ATOM     18 CL   UNL     1       6.031   4.254  14.611  0.00  0.00    +0.000 Cl
ATOM     19  C   UNL     1       4.387   4.136  16.750  0.00  0.00    +0.000 A 
ATOM     20  C   UNL     1       3.607   4.709  17.763  0.00  0.00    +0.000 A 
ENDBRANCH   4  14
BRANCH   3  21
ATOM     21  C   UNL     1       1.816   4.802  20.365  0.00  0.00    +0.000 A 
ATOM     22  C   UNL     1       0.995   3.911  19.672  0.00  0.00    +0.000 A 
ATOM     23  C   UNL     1       1.004   2.574  20.039  0.00  0.00    +0.000 A 
ATOM     24  N   UNL     1       1.777   2.067  21.022  0.00  0.00    +0.000 NA
ATOM     25  C   UNL     1       2.543   2.945  21.696  0.00  0.00    +0.000 A 
ATOM     26  C   UNL     1       2.566   4.305  21.437  0.00  0.00    +0.000 A 
ENDBRANCH   3  21
TORSDOF 3
ENDMDL
MODEL 3
REMARK VINA RESULT:      -7.6      1.240      1.764
REMARK  Name = 
REMARK  4 active torsions:
REMARK  status: ('A' for Active; 'I' for Inactive)
REMARK    1  A    between atoms: C_1  and  N_2
REMARK    2  A    between atoms: C_5  and  C_6
REMARK    3  A    between atoms: C_8  and  C_9
REMARK    4  A    between atoms: C_15  and  C_16
REMARK                            x       y       z     vdW  Elec       q    Type
REMARK                         _______ _______ _______ _____ _____    ______ ____
ROOT
ATOM      1  C   UNL     1       1.482   8.489  19.883  0.00  0.00    +0.000 A 
ATOM      2  C   UNL     1       1.164   7.325  20.542  0.00  0.00    +0.000 A 
ATOM      3  C   UNL     1       1.865   6.248  19.923  0.00  0.00    +0.000 A 
ATOM      4  C   UNL     1       2.572   6.786  18.844  0.00  0.00    +0.000 A 
ATOM      5  N   UNL     1       2.343   8.148  18.866  0.00  0.00    +0.000 N 
ATOM      6  H   UNL     1       2.738   8.806  18.207  0.00  0.00    +0.000 HD
ENDROOT
BRANCH   1  11
ATOM      7  C   UNL     1      -1.572  13.256  20.735  0.00  0.00    +0.000 C 
ATOM      8  N   UNL     1      -1.054  11.908  20.491  0.00  0.00    +0.000 NA
ATOM      9  C   UNL     1      -0.252  11.886  19.261  0.00  0.00    +0.000 C 
ATOM     10  C   UNL     1       0.249  10.474  18.958  0.00  0.00    +0.000 C 
ATOM     11  C   UNL     1       1.041   9.903  20.140  0.00  0.00    +0.000 C 
ATOM     12  C   UNL     1       0.228  10.017  21.434  0.00  0.00    +0.000 C 
ATOM     13  C   UNL     1      -0.272  11.447  21.647  0.00  0.00    +0.000 C 
ENDBRANCH   1  11
BRANCH   4  14
ATOM     14  C   UNL     1       3.434   6.175  17.813  0.00  0.00    +0.000 A 
ATOM     15  C   UNL     1       3.408   4.788  17.593  0.00  0.00    +0.000 A 
ATOM     16  C   UNL     1       4.345   4.172  16.758  0.00  0.00    +0.000 A 
ATOM     17  C   UNL     1       5.270   4.950  16.072  0.00  0.00    +0.000 A 
ATOM     18 CL   UNL     1       6.438   4.196  15.061  0.00  0.00    +0.000 Cl
ATOM     19  C   UNL     1       5.260   6.336  16.211  0.00  0.00    +0.000 A 
ATOM     20  C   UNL     1       4.352   6.945  17.087  0.00  0.00    +0.000 A 
ENDBRANCH   4  14
BRANCH   3  21
ATOM     21  C   UNL     1       1.821   4.840  20.316  0.00  0.00    +0.000 A 
ATOM     22  C   UNL     1       2.577   4.389  21.399  0.00  0.00    +0.000 A 
ATOM     23  C   UNL     1       2.457   3.065  21.790  0.00  0.00    +0.000 A 
ATOM     24  N   UNL     1       1.633   2.175  21.198  0.00  0.00    +0.000 NA
ATOM     25  C   UNL     1       0.931   2.620  20.139  0.00  0.00    +0.000 A 
ATOM     26  C   UNL     1       1.020   3.911  19.643  0.00  0.00    +0.000 A 
ENDBRANCH   3  21
TORSDOF 3
ENDMDL
MODEL 4
REMARK VINA RESULT:      -7.4      0.803      1.270
REMARK  Name = 
REMARK  4 active torsions:
REMARK  status: ('A' for Active; 'I' for Inactive)
REMARK    1  A    between atoms: C_1  and  N_2
REMARK    2  A    between atoms: C_5  and  C_6
REMARK    3  A    between atoms: C_8  and  C_9
REMARK    4  A    between atoms: C_15  and  C_16
REMARK                            x       y       z     vdW  Elec       q    Type
REMARK                         _______ _______ _______ _____ _____    ______ ____
ROOT
ATOM      1  C   UNL     1       0.939   8.279  20.427  0.00  0.00    +0.000 A 
ATOM      2  C   UNL     1       0.639   6.997  20.820  0.00  0.00    +0.000 A 
ATOM      3  C   UNL     1       1.623   6.116  20.281  0.00  0.00    +0.000 A 
ATOM      4  C   UNL     1       2.493   6.895  19.513  0.00  0.00    +0.000 A 
ATOM      5  N   UNL     1       2.069   8.203  19.647  0.00  0.00    +0.000 N 
ATOM      6  H   UNL     1       2.518   8.998  19.211  0.00  0.00    +0.000 HD
ENDROOT
BRANCH   1  11
ATOM      7  C   UNL     1      -0.392  13.529  22.284  0.00  0.00    +0.000 C 
ATOM      8  N   UNL     1       0.206  12.237  21.941  0.00  0.00    +0.000 NA
ATOM      9  C   UNL     1      -0.568  11.142  22.541  0.00  0.00    +0.000 C 
ATOM     10  C   UNL     1       0.076   9.788  22.242  0.00  0.00    +0.000 C 
ATOM     11  C   UNL     1       0.246   9.577  20.733  0.00  0.00    +0.000 C 
ATOM     12  C   UNL     1       0.973  10.771  20.105  0.00  0.00    +0.000 C 
ATOM     13  C   UNL     1       0.296  12.090  20.481  0.00  0.00    +0.000 C 
ENDBRANCH   1  11
BRANCH   4  14
ATOM     14  C   UNL     1       3.667   6.555  18.685  0.00  0.00    +0.000 A 
ATOM     15  C   UNL     1       3.832   7.127  17.413  0.00  0.00    +0.000 A 
ATOM     16  C   UNL     1       4.832   6.679  16.544  0.00  0.00    +0.000 A 
ATOM     17  C   UNL     1       5.727   5.707  16.971  0.00  0.00    +0.000 A 
ATOM     18 CL   UNL     1       6.945   5.137  15.899  0.00  0.00    +0.000 Cl
ATOM     19  C   UNL     1       5.634   5.185  18.259  0.00  0.00    +0.000 A 
ATOM     20  C   UNL     1       4.602   5.601  19.110  0.00  0.00    +0.000 A 
ENDBRANCH   4  14
BRANCH   3  21
ATOM     21  C   UNL     1       1.688   4.667  20.463  0.00  0.00    +0.000 A 
ATOM     22  C   UNL     1       1.175   3.813  19.485  0.00  0.00    +0.000 A 
ATOM     23  C   UNL     1       1.317   2.445  19.654  0.00  0.00    +0.000 A 
ATOM     24  N   UNL     1       1.944   1.875  20.705  0.00  0.00    +0.000 NA
ATOM     25  C   UNL     1       2.411   2.712  21.651  0.00  0.00    +0.000 A 
ATOM     26  C   UNL     1       2.273   4.090  21.596  0.00  0.00    +0.000 A 
ENDBRANCH   3  21
TORSDOF 3
ENDMDL
MODEL 5
REMARK VINA RESULT:      -7.3      1.793      2.514
REMARK  Name = 
REMARK  4 active torsions:
REMARK  status: ('A' for Active; 'I' for Inactive)
REMARK    1  A    between atoms: C_1  and  N_2
REMARK    2  A    between atoms: C_5  and  C_6
REMARK    3  A    between atoms: C_8  and  C_9
REMARK    4  A    between atoms: C_15  and  C_16
REMARK                            x       y       z     vdW  Elec       q    Type
REMARK                         _______ _______ _______ _____ _____    ______ ____
ROOT
ATOM      1  C   UNL     1       1.665   8.591  19.071  0.00  0.00    +0.000 A 
ATOM      2  C   UNL     1       1.261   7.518  19.829  0.00  0.00    +0.000 A 
ATOM      3  C   UNL     1       2.008   6.372  19.425  0.00  0.00    +0.000 A 
ATOM      4  C   UNL     1       2.833   6.771  18.371  0.00  0.00    +0.000 A 
ATOM      5  N   UNL     1       2.624   8.127  18.202  0.00  0.00    +0.000 N 
ATOM      6  H   UNL     1       3.098   8.698  17.514  0.00  0.00    +0.000 HD
ENDROOT
BRANCH   1  11
ATOM      7  C   UNL     1       1.275  14.236  19.945  0.00  0.00    +0.000 C 
ATOM      8  N   UNL     1       1.629  12.817  19.866  0.00  0.00    +0.000 NA
ATOM      9  C   UNL     1       0.624  12.002  20.561  0.00  0.00    +0.000 C 
ATOM     10  C   UNL     1       1.008  10.522  20.540  0.00  0.00    +0.000 C 
ATOM     11  C   UNL     1       1.221  10.027  19.104  0.00  0.00    +0.000 C 
ATOM     12  C   UNL     1       2.201  10.941  18.362  0.00  0.00    +0.000 C 
ATOM     13  C   UNL     1       1.773  12.406  18.463  0.00  0.00    +0.000 C 
ENDBRANCH   1  11
BRANCH   4  14
ATOM     14  C   UNL     1       3.791   6.037  17.521  0.00  0.00    +0.000 A 
ATOM     15  C   UNL     1       4.698   6.732  16.704  0.00  0.00    +0.000 A 
ATOM     16  C   UNL     1       5.480   6.061  15.759  0.00  0.00    +0.000 A 
ATOM     17  C   UNL     1       5.418   4.675  15.677  0.00  0.00    +0.000 A 
ATOM     18 CL   UNL     1       6.361   3.846  14.502  0.00  0.00    +0.000 Cl
ATOM     19  C   UNL     1       4.587   3.958  16.534  0.00  0.00    +0.000 A 
ATOM     20  C   UNL     1       3.769   4.638  17.446  0.00  0.00    +0.000 A 
ENDBRANCH   4  14
BRANCH   3  21
ATOM     21  C   UNL     1       1.901   5.023  19.979  0.00  0.00    +0.000 A 
ATOM     22  C   UNL     1       2.490   4.719  21.207  0.00  0.00    +0.000 A 
ATOM     23  C   UNL     1       2.310   3.452  21.738  0.00  0.00    +0.000 A 
ATOM     24  N   UNL     1       1.575   2.485  21.149  0.00  0.00    +0.000 NA
ATOM     25  C   UNL     1       1.035   2.786  19.953  0.00  0.00    +0.000 A 
ATOM     26  C   UNL     1       1.201   4.007  19.319  0.00  0.00    +0.000 A 
ENDBRANCH   3  21
TORSDOF 3
ENDMDL
MODEL 6
REMARK VINA RESULT:      -7.2      3.566      7.706
REMARK  Name = 
REMARK  4 active torsions:
REMARK  status: ('A' for Active; 'I' for Inactive)
REMARK    1  A    between atoms: C_1  and  N_2
REMARK    2  A    between atoms: C_5  and  C_6
REMARK    3  A    between atoms: C_8  and  C_9
REMARK    4  A    between atoms: C_15  and  C_16
REMARK                            x       y       z     vdW  Elec       q    Type
REMARK                         _______ _______ _______ _____ _____    ______ ____
ROOT
ATOM      1  C   UNL     1       4.868   4.322  16.461  0.00  0.00    +0.000 A 
ATOM      2  C   UNL     1       4.322   3.441  17.362  0.00  0.00    +0.000 A 
ATOM      3  C   UNL     1       3.460   4.164  18.238  0.00  0.00    +0.000 A 
ATOM      4  C   UNL     1       3.541   5.511  17.873  0.00  0.00    +0.000 A 
ATOM      5  N   UNL     1       4.378   5.568  16.775  0.00  0.00    +0.000 N 
ATOM      6  H   UNL     1       4.616   6.418  16.280  0.00  0.00    +0.000 HD
ENDROOT
BRANCH   1  11
ATOM      7  C   UNL     1       7.741   4.589  11.516  0.00  0.00    +0.000 C 
ATOM      8  N   UNL     1       6.858   4.750  12.672  0.00  0.00    +0.000 NA
ATOM      9  C   UNL     1       6.042   3.544  12.862  0.00  0.00    +0.000 C 
ATOM     10  C   UNL     1       5.071   3.716  14.030  0.00  0.00    +0.000 C 
ATOM     11  C   UNL     1       5.816   4.083  15.319  0.00  0.00    +0.000 C 
ATOM     12  C   UNL     1       6.734   5.286  15.082  0.00  0.00    +0.000 C 
ATOM     13  C   UNL     1       7.645   5.056  13.875  0.00  0.00    +0.000 C 
ENDBRANCH   1  11
BRANCH   4  14
ATOM     14  C   UNL     1       2.923   6.733  18.425  0.00  0.00    +0.000 A 
ATOM     15  C   UNL     1       2.490   6.772  19.760  0.00  0.00    +0.000 A 
ATOM     16  C   UNL     1       1.738   7.847  20.244  0.00  0.00    +0.000 A 
ATOM     17  C   UNL     1       1.480   8.932  19.416  0.00  0.00    +0.000 A 
ATOM     18 CL   UNL     1       0.538  10.247  19.999  0.00  0.00    +0.000 Cl
ATOM     19  C   UNL     1       1.972   8.952  18.113  0.00  0.00    +0.000 A 
ATOM     20  C   UNL     1       2.682   7.851  17.616  0.00  0.00    +0.000 A 
ENDBRANCH   4  14
BRANCH   3  21
ATOM     21  C   UNL     1       2.671   3.611  19.338  0.00  0.00    +0.000 A 
ATOM     22  C   UNL     1       3.300   3.190  20.511  0.00  0.00    +0.000 A 
ATOM     23  C   UNL     1       2.518   2.738  21.562  0.00  0.00    +0.000 A 
ATOM     24  N   UNL     1       1.169   2.695  21.534  0.00  0.00    +0.000 NA
ATOM     25  C   UNL     1       0.580   3.081  20.386  0.00  0.00    +0.000 A 
ATOM     26  C   UNL     1       1.278   3.500  19.265  0.00  0.00    +0.000 A 
ENDBRANCH   3  21
TORSDOF 3
ENDMDL
MODEL 7
REMARK VINA RESULT:      -7.1      2.563      4.713
REMARK  Name = 
REMARK  4 active torsions:
REMARK  status: ('A' for Active; 'I' for Inactive)
REMARK    1  A    between atoms: C_1  and  N_2
REMARK    2  A    between atoms: C_5  and  C_6
REMARK    3  A    between atoms: C_8  and  C_9
REMARK    4  A    between atoms: C_15  and  C_16
REMARK                            x       y       z     vdW  Elec       q    Type
REMARK                         _______ _______ _______ _____ _____    ______ ____
ROOT
ATOM      1  C   UNL     1       2.123   8.263  18.363  0.00  0.00    +0.000 A 
ATOM      2  C   UNL     1       3.298   8.365  17.658  0.00  0.00    +0.000 A 
ATOM      3  C   UNL     1       3.874   7.066  17.546  0.00  0.00    +0.000 A 
ATOM      4  C   UNL     1       3.041   6.187  18.244  0.00  0.00    +0.000 A 
ATOM      5  N   UNL     1       1.975   6.939  18.700  0.00  0.00    +0.000 N 
ATOM      6  H   UNL     1       1.198   6.567  19.232  0.00  0.00    +0.000 HD
ENDROOT
BRANCH   1  11
ATOM      7  C   UNL     1      -0.553  12.769  20.669  0.00  0.00    +0.000 C 
ATOM      8  N   UNL     1       0.357  11.703  20.245  0.00  0.00    +0.000 NA
ATOM      9  C   UNL     1      -0.186  10.390  20.617  0.00  0.00    +0.000 C 
ATOM     10  C   UNL     1       0.780   9.268  20.234  0.00  0.00    +0.000 C 
ATOM     11  C   UNL     1       1.121   9.318  18.740  0.00  0.00    +0.000 C 
ATOM     12  C   UNL     1       1.599  10.720  18.347  0.00  0.00    +0.000 C 
ATOM     13  C   UNL     1       0.602  11.789  18.798  0.00  0.00    +0.000 C 
ENDBRANCH   1  11
BRANCH   4  14
ATOM     14  C   UNL     1       3.127   4.739  18.521  0.00  0.00    +0.000 A 
ATOM     15  C   UNL     1       3.976   4.255  19.530  0.00  0.00    +0.000 A 
ATOM     16  C   UNL     1       4.211   2.885  19.680  0.00  0.00    +0.000 A 
ATOM     17  C   UNL     1       3.534   1.980  18.871  0.00  0.00    +0.000 A 
ATOM     18 CL   UNL     1       3.835   0.295  19.037  0.00  0.00    +0.000 Cl
ATOM     19  C   UNL     1       2.624   2.434  17.920  0.00  0.00    +0.000 A 
ATOM     20  C   UNL     1       2.429   3.810  17.738  0.00  0.00    +0.000 A 
ENDBRANCH   4  14
BRANCH   3  21
ATOM     21  C   UNL     1       5.121   6.720  16.865  0.00  0.00    +0.000 A 
ATOM     22  C   UNL     1       6.346   7.135  17.390  0.00  0.00    +0.000 A 
ATOM     23  C   UNL     1       7.513   6.731  16.760  0.00  0.00    +0.000 A 
ATOM     24  N   UNL     1       7.545   5.935  15.671  0.00  0.00    +0.000 NA
ATOM     25  C   UNL     1       6.354   5.565  15.162  0.00  0.00    +0.000 A 
ATOM     26  C   UNL     1       5.135   5.959  15.691  0.00  0.00    +0.000 A 
ENDBRANCH   3  21
TORSDOF 3
ENDMDL
MODEL 8
REMARK VINA RESULT:      -7.1      1.585      2.377
REMARK  Name = 
REMARK  4 active torsions:
REMARK  status: ('A' for Active; 'I' for Inactive)
REMARK    1  A    between atoms: C_1  and  N_2
REMARK    2  A    between atoms: C_5  and  C_6
REMARK    3  A    between atoms: C_8  and  C_9
REMARK    4  A    between atoms: C_15  and  C_16
REMARK                            x       y       z     vdW  Elec       q    Type
REMARK                         _______ _______ _______ _____ _____    ______ ____
ROOT
ATOM      1  C   UNL     1       1.425   8.597  19.473  0.00  0.00    +0.000 A 
ATOM      2  C   UNL     1       1.097   7.477  20.199  0.00  0.00    +0.000 A 
ATOM      3  C   UNL     1       1.851   6.375  19.698  0.00  0.00    +0.000 A 
ATOM      4  C   UNL     1       2.603   6.850  18.620  0.00  0.00    +0.000 A 
ATOM      5  N   UNL     1       2.345   8.205  18.529  0.00  0.00    +0.000 N 
ATOM      6  H   UNL     1       2.762   8.823  17.845  0.00  0.00    +0.000 HD
ENDROOT
BRANCH   1  11
ATOM      7  C   UNL     1       1.001  14.223  20.445  0.00  0.00    +0.000 C 
ATOM      8  N   UNL     1       1.386  12.819  20.289  0.00  0.00    +0.000 NA
ATOM      9  C   UNL     1       0.565  11.967  21.159  0.00  0.00    +0.000 C 
ATOM     10  C   UNL     1       0.992  10.502  21.054  0.00  0.00    +0.000 C 
ATOM     11  C   UNL     1       0.942  10.015  19.601  0.00  0.00    +0.000 C 
ATOM     12  C   UNL     1       1.726  10.965  18.690  0.00  0.00    +0.000 C 
ATOM     13  C   UNL     1       1.271  12.413  18.881  0.00  0.00    +0.000 C 
ENDBRANCH   1  11
BRANCH   4  14
ATOM     14  C   UNL     1       3.531   6.187  17.682  0.00  0.00    +0.000 A 
ATOM     15  C   UNL     1       3.459   4.801  17.468  0.00  0.00    +0.000 A 
ATOM     16  C   UNL     1       4.442   4.131  16.734  0.00  0.00    +0.000 A 
ATOM     17  C   UNL     1       5.466   4.856  16.138  0.00  0.00    +0.000 A 
ATOM     18 CL   UNL     1       6.690   4.035  15.251  0.00  0.00    +0.000 Cl
ATOM     19  C   UNL     1       5.511   6.242  16.267  0.00  0.00    +0.000 A 
ATOM     20  C   UNL     1       4.553   6.904  17.045  0.00  0.00    +0.000 A 
ENDBRANCH   4  14
BRANCH   3  21
ATOM     21  C   UNL     1       1.816   4.999  20.190  0.00  0.00    +0.000 A 
ATOM     22  C   UNL     1       2.532   4.644  21.334  0.00  0.00    +0.000 A 
ATOM     23  C   UNL     1       2.420   3.349  21.816  0.00  0.00    +0.000 A 
ATOM     24  N   UNL     1       1.638   2.402  21.257  0.00  0.00    +0.000 NA
ATOM     25  C   UNL     1       0.973   2.754  20.140  0.00  0.00    +0.000 A 
ATOM     26  C   UNL     1       1.061   4.007  19.555  0.00  0.00    +0.000 A 
ENDBRANCH   3  21
TORSDOF 3
ENDMDL
MODEL 9
REMARK VINA RESULT:      -7.0      2.671      4.678
REMARK  Name = 
REMARK  4 active torsions:
REMARK  status: ('A' for Active; 'I' for Inactive)
REMARK    1  A    between atoms: C_1  and  N_2
REMARK    2  A    between atoms: C_5  and  C_6
REMARK    3  A    between atoms: C_8  and  C_9
REMARK    4  A    between atoms: C_15  and  C_16
REMARK                            x       y       z     vdW  Elec       q    Type
REMARK                         _______ _______ _______ _____ _____    ______ ____
ROOT
ATOM      1  C   UNL     1       2.030   8.750  18.121  0.00  0.00    +0.000 A 
ATOM      2  C   UNL     1       3.268   8.715  17.526  0.00  0.00    +0.000 A 
ATOM      3  C   UNL     1       3.730   7.366  17.523  0.00  0.00    +0.000 A 
ATOM      4  C   UNL     1       2.762   6.599  18.177  0.00  0.00    +0.000 A 
ATOM      5  N   UNL     1       1.732   7.462  18.499  0.00  0.00    +0.000 N 
ATOM      6  H   UNL     1       0.881   7.187  18.972  0.00  0.00    +0.000 HD
ENDROOT
BRANCH   1  11
ATOM      7  C   UNL     1      -2.311  12.100  19.770  0.00  0.00    +0.000 C 
ATOM      8  N   UNL     1      -1.349  11.033  19.490  0.00  0.00    +0.000 NA
ATOM      9  C   UNL     1      -1.237  10.815  18.041  0.00  0.00    +0.000 C 
ATOM     10  C   UNL     1      -0.280   9.664  17.732  0.00  0.00    +0.000 C 
ATOM     11  C   UNL     1       1.098   9.906  18.359  0.00  0.00    +0.000 C 
ATOM     12  C   UNL     1       0.959  10.224  19.852  0.00  0.00    +0.000 C 
ATOM     13  C   UNL     1      -0.044  11.356  20.084  0.00  0.00    +0.000 C 
ENDBRANCH   1  11
BRANCH   4  14
ATOM     14  C   UNL     1       2.690   5.165  18.521  0.00  0.00    +0.000 A 
ATOM     15  C   UNL     1       3.539   4.624  19.501  0.00  0.00    +0.000 A 
ATOM     16  C   UNL     1       3.616   3.243  19.706  0.00  0.00    +0.000 A 
ATOM     17  C   UNL     1       2.784   2.395  18.986  0.00  0.00    +0.000 A 
ATOM     18 CL   UNL     1       2.890   0.694  19.220  0.00  0.00    +0.000 Cl
ATOM     19  C   UNL     1       1.876   2.916  18.069  0.00  0.00    +0.000 A 
ATOM     20  C   UNL     1       1.836   4.296  17.829  0.00  0.00    +0.000 A 
ENDBRANCH   4  14
BRANCH   3  21
ATOM     21  C   UNL     1       4.996   6.880  16.976  0.00  0.00    +0.000 A 
ATOM     22  C   UNL     1       6.200   7.192  17.609  0.00  0.00    +0.000 A 
ATOM     23  C   UNL     1       7.376   6.657  17.107  0.00  0.00    +0.000 A 
ATOM     24  N   UNL     1       7.433   5.826  16.045  0.00  0.00    +0.000 NA
ATOM     25  C   UNL     1       6.266   5.555  15.431  0.00  0.00    +0.000 A 
ATOM     26  C   UNL     1       5.047   6.082  15.828  0.00  0.00    +0.000 A 
ENDBRANCH   3  21
TORSDOF 3
ENDMDL
