MODEL 1
REMARK VINA RESULT:      -7.4      0.000      0.000
REMARK  Name = 
REMARK  10 active torsions:
REMARK  status: ('A' for Active; 'I' for Inactive)
REMARK    1  A    between atoms: C_1  and  C_2
REMARK    2  A    between atoms: C_2  and  C_3
REMARK    3  A    between atoms: C_8  and  C_10
REMARK    4  A    between atoms: C_10  and  N_11
REMARK    5  A    between atoms: C_10  and  C_22
REMARK    6  A    between atoms: C_12  and  C_14
REMARK    7  A    between atoms: C_17  and  O_18
REMARK    8  A    between atoms: O_18  and  C_19
REMARK    9  A    between atoms: C_22  and  C_23
REMARK   10  A    between atoms: C_22  and  C_24
REMARK                            x       y       z     vdW  Elec       q    Type
REMARK                         _______ _______ _______ _____ _____    ______ ____
ROOT
ATOM      1  C   UNL     1       6.375   6.412  16.692  0.00  0.00    +0.000 C 
ENDROOT
BRANCH   1   7
ATOM      2  C   UNL     1       6.287   2.819  11.881  0.00  0.00    +0.000 A 
ATOM      3  N   UNL     1       4.981   2.946  12.010  0.00  0.00    +0.000 NA
ATOM      4  N   UNL     1       4.644   3.816  13.036  0.00  0.00    +0.000 NA
ATOM      5  C   UNL     1       5.705   4.275  13.664  0.00  0.00    +0.000 A 
ATOM      6  N   UNL     1       5.648   5.115  14.751  0.00  0.00    +0.000 N 
ATOM      7  C   UNL     1       6.705   5.369  15.601  0.00  0.00    +0.000 C 
ATOM      8  O   UNL     1       7.779   4.770  15.616  0.00  0.00    +0.000 OA
ATOM      9  S   UNL     1       7.188   3.809  12.952  0.00  0.00    +0.000 S 
ATOM     10  H   UNL     1       4.710   5.372  15.051  0.00  0.00    +0.000 HD
BRANCH   2  12
ATOM     11  C   UNL     1       6.418   0.489  11.020  0.00  0.00    +0.000 C 
ATOM     12  C   UNL     1       6.977   1.902  10.928  0.00  0.00    +0.000 C 
ENDBRANCH   2  12
ENDBRANCH   1   7
BRANCH   1  13
ATOM     13  N   UNL     1       5.377   5.780  17.555  0.00  0.00    +0.000 N 
ATOM     14  C   UNL     1       4.133   6.340  17.753  0.00  0.00    +0.000 C 
ATOM     15  O   UNL     1       3.797   7.394  17.229  0.00  0.00    +0.000 OA
ATOM     16  H   UNL     1       5.471   4.781  17.691  0.00  0.00    +0.000 HD
BRANCH  14  17
ATOM     17  C   UNL     1       3.190   5.541  18.591  0.00  0.00    +0.000 A 
ATOM     18  C   UNL     1       2.705   6.028  19.812  0.00  0.00    +0.000 A 
ATOM     19  C   UNL     1       1.872   5.232  20.600  0.00  0.00    +0.000 A 
ATOM     20  C   UNL     1       1.487   3.959  20.169  0.00  0.00    +0.000 A 
ATOM     21  C   UNL     1       1.944   3.484  18.938  0.00  0.00    +0.000 A 
ATOM     22  C   UNL     1       2.790   4.275  18.149  0.00  0.00    +0.000 A 
BRANCH  20  23
ATOM     23  O   UNL     1       0.706   3.268  21.052  0.00  0.00    +0.000 OA
ATOM     24  C   UNL     1       1.384   2.362  21.913  0.00  0.00    +0.000 C 
ENDBRANCH  20  23
ENDBRANCH  14  17
ENDBRANCH   1  13
BRANCH   1  25
ATOM     25  C   UNL     1       7.647   6.766  17.501  0.00  0.00    +0.000 C 
ATOM     26  C   UNL     1       7.780   8.282  17.690  0.00  0.00    +0.000 C 
ATOM     27  C   UNL     1       7.663   6.085  18.872  0.00  0.00    +0.000 C 
ENDBRANCH   1  25
TORSDOF 6
ENDMDL
MODEL 2
REMARK VINA RESULT:      -7.2      2.864      4.640
REMARK  Name = 
REMARK  10 active torsions:
REMARK  status: ('A' for Active; 'I' for Inactive)
REMARK    1  A    between atoms: C_1  and  C_2
REMARK    2  A    between atoms: C_2  and  C_3
REMARK    3  A    between atoms: C_8  and  C_10
REMARK    4  A    between atoms: C_10  and  N_11
REMARK    5  A    between atoms: C_10  and  C_22
REMARK    6  A    between atoms: C_12  and  C_14
REMARK    7  A    between atoms: C_17  and  O_18
REMARK    8  A    between atoms: O_18  and  C_19
REMARK    9  A    between atoms: C_22  and  C_23
REMARK   10  A    between atoms: C_22  and  C_24
REMARK                            x       y       z     vdW  Elec       q    Type
REMARK                         _______ _______ _______ _____ _____    ______ ____
ROOT
ATOM      1  C   UNL     1       4.124   4.345  19.093  0.00  0.00    +0.000 C 
ENDROOT
BRANCH   1   7
ATOM      2  C   UNL     1       6.830   4.423  13.733  0.00  0.00    +0.000 A 
ATOM      3  N   UNL     1       7.640   5.273  14.333  0.00  0.00    +0.000 NA
ATOM      4  N   UNL     1       7.323   5.430  15.674  0.00  0.00    +0.000 NA
ATOM      5  C   UNL     1       6.265   4.728  16.018  0.00  0.00    +0.000 A 
ATOM      6  N   UNL     1       5.712   4.745  17.277  0.00  0.00    +0.000 N 
ATOM      7  C   UNL     1       4.455   4.267  17.586  0.00  0.00    +0.000 C 
ATOM      8  O   UNL     1       3.596   3.918  16.776  0.00  0.00    +0.000 OA
ATOM      9  S   UNL     1       5.679   3.705  14.781  0.00  0.00    +0.000 S 
ATOM     10  H   UNL     1       6.182   5.347  17.949  0.00  0.00    +0.000 HD
BRANCH   2  12
ATOM     11  C   UNL     1       5.789   3.053  11.936  0.00  0.00    +0.000 C 
ATOM     12  C   UNL     1       6.849   4.091  12.278  0.00  0.00    +0.000 C 
ENDBRANCH   2  12
ENDBRANCH   1   7
BRANCH   1  13
ATOM     13  N   UNL     1       3.188   5.459  19.236  0.00  0.00    +0.000 N 
ATOM     14  C   UNL     1       3.493   6.725  18.781  0.00  0.00    +0.000 C 
ATOM     15  O   UNL     1       4.561   6.988  18.243  0.00  0.00    +0.000 OA
ATOM     16  H   UNL     1       2.209   5.213  19.323  0.00  0.00    +0.000 HD
BRANCH  14  17
ATOM     17  C   UNL     1       2.409   7.741  18.919  0.00  0.00    +0.000 A 
ATOM     18  C   UNL     1       1.995   8.522  17.832  0.00  0.00    +0.000 A 
ATOM     19  C   UNL     1       1.020   9.504  18.009  0.00  0.00    +0.000 A 
ATOM     20  C   UNL     1       0.423   9.700  19.258  0.00  0.00    +0.000 A 
ATOM     21  C   UNL     1       0.811   8.902  20.336  0.00  0.00    +0.000 A 
ATOM     22  C   UNL     1       1.798   7.922  20.165  0.00  0.00    +0.000 A 
BRANCH  20  23
ATOM     23  O   UNL     1      -0.484  10.721  19.305  0.00  0.00    +0.000 OA
ATOM     24  C   UNL     1      -1.519  10.686  18.329  0.00  0.00    +0.000 C 
ENDBRANCH  20  23
ENDBRANCH  14  17
ENDBRANCH   1  13
BRANCH   1  25
ATOM     25  C   UNL     1       3.474   3.024  19.571  0.00  0.00    +0.000 C 
ATOM     26  C   UNL     1       4.503   2.108  20.243  0.00  0.00    +0.000 C 
ATOM     27  C   UNL     1       2.314   3.273  20.540  0.00  0.00    +0.000 C 
ENDBRANCH   1  25
TORSDOF 6
ENDMDL
MODEL 3
REMARK VINA RESULT:      -7.2      2.811      4.775
REMARK  Name = 
REMARK  10 active torsions:
REMARK  status: ('A' for Active; 'I' for Inactive)
REMARK    1  A    between atoms: C_1  and  C_2
REMARK    2  A    between atoms: C_2  and  C_3
REMARK    3  A    between atoms: C_8  and  C_10
REMARK    4  A    between atoms: C_10  and  N_11
REMARK    5  A    between atoms: C_10  and  C_22
REMARK    6  A    between atoms: C_12  and  C_14
REMARK    7  A    between atoms: C_17  and  O_18
REMARK    8  A    between atoms: O_18  and  C_19
REMARK    9  A    between atoms: C_22  and  C_23
REMARK   10  A    between atoms: C_22  and  C_24
REMARK                            x       y       z     vdW  Elec       q    Type
REMARK                         _______ _______ _______ _____ _____    ______ ____
ROOT
ATOM      1  C   UNL     1       3.431   3.804  18.833  0.00  0.00    +0.000 C 
ENDROOT
BRANCH   1   7
ATOM      2  C   UNL     1       6.999   4.674  14.082  0.00  0.00    +0.000 A 
ATOM      3  N   UNL     1       7.692   5.400  14.938  0.00  0.00    +0.000 NA
ATOM      4  N   UNL     1       7.153   5.349  16.215  0.00  0.00    +0.000 NA
ATOM      5  C   UNL     1       6.056   4.624  16.261  0.00  0.00    +0.000 A 
ATOM      6  N   UNL     1       5.299   4.453  17.396  0.00  0.00    +0.000 N 
ATOM      7  C   UNL     1       4.010   3.960  17.409  0.00  0.00    +0.000 C 
ATOM      8  O   UNL     1       3.302   3.763  16.423  0.00  0.00    +0.000 OA
ATOM      9  S   UNL     1       5.692   3.824  14.795  0.00  0.00    +0.000 S 
ATOM     10  H   UNL     1       5.646   4.930  18.224  0.00  0.00    +0.000 HD
BRANCH   2  12
ATOM     11  C   UNL     1       6.520   3.401  11.999  0.00  0.00    +0.000 C 
ATOM     12  C   UNL     1       7.264   4.577  12.617  0.00  0.00    +0.000 C 
ENDBRANCH   2  12
ENDBRANCH   1   7
BRANCH   1  13
ATOM     13  N   UNL     1       2.654   5.019  19.079  0.00  0.00    +0.000 N 
ATOM     14  C   UNL     1       3.261   6.216  19.395  0.00  0.00    +0.000 C 
ATOM     15  O   UNL     1       4.477   6.328  19.495  0.00  0.00    +0.000 OA
ATOM     16  H   UNL     1       1.733   5.055  18.658  0.00  0.00    +0.000 HD
BRANCH  14  17
ATOM     17  C   UNL     1       2.348   7.387  19.536  0.00  0.00    +0.000 A 
ATOM     18  C   UNL     1       1.672   7.648  20.735  0.00  0.00    +0.000 A 
ATOM     19  C   UNL     1       0.779   8.718  20.815  0.00  0.00    +0.000 A 
ATOM     20  C   UNL     1       0.574   9.559  19.718  0.00  0.00    +0.000 A 
ATOM     21  C   UNL     1       1.270   9.320  18.531  0.00  0.00    +0.000 A 
ATOM     22  C   UNL     1       2.158   8.240  18.442  0.00  0.00    +0.000 A 
BRANCH  20  23
ATOM     23  O   UNL     1      -0.356  10.541  19.915  0.00  0.00    +0.000 OA
ATOM     24  C   UNL     1      -0.505  11.004  21.252  0.00  0.00    +0.000 C 
ENDBRANCH  20  23
ENDBRANCH  14  17
ENDBRANCH   1  13
BRANCH   1  25
ATOM     25  C   UNL     1       2.522   2.553  18.911  0.00  0.00    +0.000 C 
ATOM     26  C   UNL     1       3.333   1.265  18.727  0.00  0.00    +0.000 C 
ATOM     27  C   UNL     1       1.758   2.481  20.237  0.00  0.00    +0.000 C 
ENDBRANCH   1  25
TORSDOF 6
ENDMDL
MODEL 4
REMARK VINA RESULT:      -6.9      2.867      5.005
REMARK  Name = 
REMARK  10 active torsions:
REMARK  status: ('A' for Active; 'I' for Inactive)
REMARK    1  A    between atoms: C_1  and  C_2
REMARK    2  A    between atoms: C_2  and  C_3
REMARK    3  A    between atoms: C_8  and  C_10
REMARK    4  A    between atoms: C_10  and  N_11
REMARK    5  A    between atoms: C_10  and  C_22
REMARK    6  A    between atoms: C_12  and  C_14
REMARK    7  A    between atoms: C_17  and  O_18
REMARK    8  A    between atoms: O_18  and  C_19
REMARK    9  A    between atoms: C_22  and  C_23
REMARK   10  A    between atoms: C_22  and  C_24
REMARK                            x       y       z     vdW  Elec       q    Type
REMARK                         _______ _______ _______ _____ _____    ______ ____
ROOT
ATOM      1  C   UNL     1       3.052   3.858  19.086  0.00  0.00    +0.000 C 
ENDROOT
BRANCH   1   7
ATOM      2  C   UNL     1       6.429   4.444  14.154  0.00  0.00    +0.000 A 
ATOM      3  N   UNL     1       6.657   5.645  14.649  0.00  0.00    +0.000 NA
ATOM      4  N   UNL     1       6.052   5.820  15.884  0.00  0.00    +0.000 NA
ATOM      5  C   UNL     1       5.360   4.763  16.250  0.00  0.00    +0.000 A 
ATOM      6  N   UNL     1       4.624   4.694  17.410  0.00  0.00    +0.000 N 
ATOM      7  C   UNL     1       3.666   3.737  17.673  0.00  0.00    +0.000 C 
ATOM      8  O   UNL     1       3.218   2.923  16.867  0.00  0.00    +0.000 OA
ATOM      9  S   UNL     1       5.527   3.426  15.198  0.00  0.00    +0.000 S 
ATOM     10  H   UNL     1       4.647   5.531  17.988  0.00  0.00    +0.000 HD
BRANCH   2  12
ATOM     11  C   UNL     1       5.766   3.173  12.121  0.00  0.00    +0.000 C 
ATOM     12  C   UNL     1       6.869   3.963  12.813  0.00  0.00    +0.000 C 
ENDBRANCH   2  12
ENDBRANCH   1   7
BRANCH   1  13
ATOM     13  N   UNL     1       2.368   5.151  19.110  0.00  0.00    +0.000 N 
ATOM     14  C   UNL     1       3.037   6.319  19.411  0.00  0.00    +0.000 C 
ATOM     15  O   UNL     1       4.231   6.340  19.682  0.00  0.00    +0.000 OA
ATOM     16  H   UNL     1       1.524   5.222  18.554  0.00  0.00    +0.000 HD
BRANCH  14  17
ATOM     17  C   UNL     1       2.229   7.570  19.314  0.00  0.00    +0.000 A 
ATOM     18  C   UNL     1       1.582   8.111  20.433  0.00  0.00    +0.000 A 
ATOM     19  C   UNL     1       0.786   9.250  20.297  0.00  0.00    +0.000 A 
ATOM     20  C   UNL     1       0.651   9.880  19.057  0.00  0.00    +0.000 A 
ATOM     21  C   UNL     1       1.319   9.361  17.946  0.00  0.00    +0.000 A 
ATOM     22  C   UNL     1       2.110   8.211  18.077  0.00  0.00    +0.000 A 
BRANCH  20  23
ATOM     23  O   UNL     1      -0.190  10.958  19.052  0.00  0.00    +0.000 OA
ATOM     24  C   UNL     1      -1.535  10.703  18.666  0.00  0.00    +0.000 C 
ENDBRANCH  20  23
ENDBRANCH  14  17
ENDBRANCH   1  13
BRANCH   1  25
ATOM     25  C   UNL     1       2.048   2.707  19.338  0.00  0.00    +0.000 C 
ATOM     26  C   UNL     1       1.876   2.438  20.837  0.00  0.00    +0.000 C 
ATOM     27  C   UNL     1       0.677   2.996  18.719  0.00  0.00    +0.000 C 
ENDBRANCH   1  25
TORSDOF 6
ENDMDL
MODEL 5
REMARK VINA RESULT:      -6.9      2.905      5.024
REMARK  Name = 
REMARK  10 active torsions:
REMARK  status: ('A' for Active; 'I' for Inactive)
REMARK    1  A    between atoms: C_1  and  C_2
REMARK    2  A    between atoms: C_2  and  C_3
REMARK    3  A    between atoms: C_8  and  C_10
REMARK    4  A    between atoms: C_10  and  N_11
REMARK    5  A    between atoms: C_10  and  C_22
REMARK    6  A    between atoms: C_12  and  C_14
REMARK    7  A    between atoms: C_17  and  O_18
REMARK    8  A    between atoms: O_18  and  C_19
REMARK    9  A    between atoms: C_22  and  C_23
REMARK   10  A    between atoms: C_22  and  C_24
REMARK                            x       y       z     vdW  Elec       q    Type
REMARK                         _______ _______ _______ _____ _____    ______ ____
ROOT
ATOM      1  C   UNL     1       3.345   3.857  18.421  0.00  0.00    +0.000 C 
ENDROOT
BRANCH   1   7
ATOM      2  C   UNL     1       7.159   4.769  13.873  0.00  0.00    +0.000 A 
ATOM      3  N   UNL     1       7.754   5.562  14.743  0.00  0.00    +0.000 NA
ATOM      4  N   UNL     1       7.137   5.524  15.984  0.00  0.00    +0.000 NA
ATOM      5  C   UNL     1       6.082   4.739  15.988  0.00  0.00    +0.000 A 
ATOM      6  N   UNL     1       5.263   4.564  17.079  0.00  0.00    +0.000 N 
ATOM      7  C   UNL     1       4.006   3.997  17.031  0.00  0.00    +0.000 C 
ATOM      8  O   UNL     1       3.375   3.726  16.011  0.00  0.00    +0.000 OA
ATOM      9  S   UNL     1       5.858   3.870  14.534  0.00  0.00    +0.000 S 
ATOM     10  H   UNL     1       5.529   5.088  17.909  0.00  0.00    +0.000 HD
BRANCH   2  12
ATOM     11  C   UNL     1       7.979   5.971  11.855  0.00  0.00    +0.000 C 
ATOM     12  C   UNL     1       7.523   4.638  12.432  0.00  0.00    +0.000 C 
ENDBRANCH   2  12
ENDBRANCH   1   7
BRANCH   1  13
ATOM     13  N   UNL     1       2.593   5.095  18.628  0.00  0.00    +0.000 N 
ATOM     14  C   UNL     1       3.174   6.209  19.194  0.00  0.00    +0.000 C 
ATOM     15  O   UNL     1       4.342   6.225  19.562  0.00  0.00    +0.000 OA
ATOM     16  H   UNL     1       1.789   5.236  18.027  0.00  0.00    +0.000 HD
BRANCH  14  17
ATOM     17  C   UNL     1       2.310   7.424  19.266  0.00  0.00    +0.000 A 
ATOM     18  C   UNL     1       2.072   8.219  18.137  0.00  0.00    +0.000 A 
ATOM     19  C   UNL     1       1.307   9.382  18.251  0.00  0.00    +0.000 A 
ATOM     20  C   UNL     1       0.745   9.748  19.477  0.00  0.00    +0.000 A 
ATOM     21  C   UNL     1       0.954   8.940  20.596  0.00  0.00    +0.000 A 
ATOM     22  C   UNL     1       1.731   7.778  20.489  0.00  0.00    +0.000 A 
BRANCH  20  23
ATOM     23  O   UNL     1       0.056  10.928  19.461  0.00  0.00    +0.000 OA
ATOM     24  C   UNL     1       0.842  12.113  19.441  0.00  0.00    +0.000 C 
ENDBRANCH  20  23
ENDBRANCH  14  17
ENDBRANCH   1  13
BRANCH   1  25
ATOM     25  C   UNL     1       2.396   2.634  18.445  0.00  0.00    +0.000 C 
ATOM     26  C   UNL     1       3.177   1.329  18.646  0.00  0.00    +0.000 C 
ATOM     27  C   UNL     1       1.331   2.756  19.539  0.00  0.00    +0.000 C 
ENDBRANCH   1  25
TORSDOF 6
ENDMDL
MODEL 6
REMARK VINA RESULT:      -6.8      4.207      6.369
REMARK  Name = 
REMARK  10 active torsions:
REMARK  status: ('A' for Active; 'I' for Inactive)
REMARK    1  A    between atoms: C_1  and  C_2
REMARK    2  A    between atoms: C_2  and  C_3
REMARK    3  A    between atoms: C_8  and  C_10
REMARK    4  A    between atoms: C_10  and  N_11
REMARK    5  A    between atoms: C_10  and  C_22
REMARK    6  A    between atoms: C_12  and  C_14
REMARK    7  A    between atoms: C_17  and  O_18
REMARK    8  A    between atoms: O_18  and  C_19
REMARK    9  A    between atoms: C_22  and  C_23
REMARK   10  A    between atoms: C_22  and  C_24
REMARK                            x       y       z     vdW  Elec       q    Type
REMARK                         _______ _______ _______ _____ _____    ______ ____
ROOT
ATOM      1  C   UNL     1       2.361   6.184  20.294  0.00  0.00    +0.000 C 
ENDROOT
BRANCH   1   7
ATOM      2  C   UNL     1       6.624   4.702  16.332  0.00  0.00    +0.000 A 
ATOM      3  N   UNL     1       7.339   4.500  17.421  0.00  0.00    +0.000 NA
ATOM      4  N   UNL     1       6.594   4.692  18.574  0.00  0.00    +0.000 NA
ATOM      5  C   UNL     1       5.362   5.070  18.309  0.00  0.00    +0.000 A 
ATOM      6  N   UNL     1       4.431   5.375  19.274  0.00  0.00    +0.000 N 
ATOM      7  C   UNL     1       3.250   6.049  19.037  0.00  0.00    +0.000 C 
ATOM      8  O   UNL     1       2.939   6.613  17.989  0.00  0.00    +0.000 OA
ATOM      9  S   UNL     1       4.977   5.064  16.643  0.00  0.00    +0.000 S 
ATOM     10  H   UNL     1       4.756   5.285  20.233  0.00  0.00    +0.000 HD
BRANCH   2  12
ATOM     11  C   UNL     1       6.146   3.985  13.998  0.00  0.00    +0.000 C 
ATOM     12  C   UNL     1       7.143   4.655  14.934  0.00  0.00    +0.000 C 
ENDBRANCH   2  12
ENDBRANCH   1   7
BRANCH   1  13
ATOM     13  N   UNL     1       1.486   7.328  20.037  0.00  0.00    +0.000 N 
ATOM     14  C   UNL     1       1.324   8.337  20.962  0.00  0.00    +0.000 C 
ATOM     15  O   UNL     1       1.893   8.331  22.047  0.00  0.00    +0.000 OA
ATOM     16  H   UNL     1       1.309   7.547  19.064  0.00  0.00    +0.000 HD
BRANCH  14  17
ATOM     17  C   UNL     1       0.466   9.479  20.529  0.00  0.00    +0.000 A 
ATOM     18  C   UNL     1      -0.264  10.238  21.455  0.00  0.00    +0.000 A 
ATOM     19  C   UNL     1      -1.102  11.262  21.011  0.00  0.00    +0.000 A 
ATOM     20  C   UNL     1      -1.200  11.564  19.650  0.00  0.00    +0.000 A 
ATOM     21  C   UNL     1      -0.450  10.831  18.729  0.00  0.00    +0.000 A 
ATOM     22  C   UNL     1       0.385   9.794  19.168  0.00  0.00    +0.000 A 
BRANCH  20  23
ATOM     23  O   UNL     1      -2.087  12.559  19.347  0.00  0.00    +0.000 OA
ATOM     24  C   UNL     1      -2.730  13.183  20.452  0.00  0.00    +0.000 C 
ENDBRANCH  20  23
ENDBRANCH  14  17
ENDBRANCH   1  13
BRANCH   1  25
ATOM     25  C   UNL     1       1.527   4.897  20.504  0.00  0.00    +0.000 C 
ATOM     26  C   UNL     1       1.315   4.150  19.182  0.00  0.00    +0.000 C 
ATOM     27  C   UNL     1       2.178   3.951  21.517  0.00  0.00    +0.000 C 
ENDBRANCH   1  25
TORSDOF 6
ENDMDL
MODEL 7
REMARK VINA RESULT:      -6.8      3.140      5.347
REMARK  Name = 
REMARK  10 active torsions:
REMARK  status: ('A' for Active; 'I' for Inactive)
REMARK    1  A    between atoms: C_1  and  C_2
REMARK    2  A    between atoms: C_2  and  C_3
REMARK    3  A    between atoms: C_8  and  C_10
REMARK    4  A    between atoms: C_10  and  N_11
REMARK    5  A    between atoms: C_10  and  C_22
REMARK    6  A    between atoms: C_12  and  C_14
REMARK    7  A    between atoms: C_17  and  O_18
REMARK    8  A    between atoms: O_18  and  C_19
REMARK    9  A    between atoms: C_22  and  C_23
REMARK   10  A    between atoms: C_22  and  C_24
REMARK                            x       y       z     vdW  Elec       q    Type
REMARK                         _______ _______ _______ _____ _____    ______ ____
ROOT
ATOM      1  C   UNL     1       3.077   4.316  19.854  0.00  0.00    +0.000 C 
ENDROOT
BRANCH   1   7
ATOM      2  C   UNL     1       6.636   4.349  15.018  0.00  0.00    +0.000 A 
ATOM      3  N   UNL     1       7.512   4.852  15.865  0.00  0.00    +0.000 NA
ATOM      4  N   UNL     1       7.009   4.912  17.156  0.00  0.00    +0.000 NA
ATOM      5  C   UNL     1       5.763   4.493  17.221  0.00  0.00    +0.000 A 
ATOM      6  N   UNL     1       5.014   4.496  18.375  0.00  0.00    +0.000 N 
ATOM      7  C   UNL     1       3.643   4.350  18.418  0.00  0.00    +0.000 C 
ATOM      8  O   UNL     1       2.885   4.364  17.449  0.00  0.00    +0.000 OA
ATOM      9  S   UNL     1       5.171   3.847  15.754  0.00  0.00    +0.000 S 
ATOM     10  H   UNL     1       5.492   4.849  19.201  0.00  0.00    +0.000 HD
BRANCH   2  12
ATOM     11  C   UNL     1       5.641   3.539  12.887  0.00  0.00    +0.000 C 
ATOM     12  C   UNL     1       6.832   4.221  13.545  0.00  0.00    +0.000 C 
ENDBRANCH   2  12
ENDBRANCH   1   7
BRANCH   1  13
ATOM     13  N   UNL     1       2.271   5.529  19.991  0.00  0.00    +0.000 N 
ATOM     14  C   UNL     1       2.773   6.772  19.670  0.00  0.00    +0.000 C 
ATOM     15  O   UNL     1       3.917   6.932  19.263  0.00  0.00    +0.000 OA
ATOM     16  H   UNL     1       1.265   5.405  19.961  0.00  0.00    +0.000 HD
BRANCH  14  17
ATOM     17  C   UNL     1       1.810   7.907  19.780  0.00  0.00    +0.000 A 
ATOM     18  C   UNL     1       1.084   8.139  20.956  0.00  0.00    +0.000 A 
ATOM     19  C   UNL     1       0.148   9.174  21.006  0.00  0.00    +0.000 A 
ATOM     20  C   UNL     1      -0.053  10.006  19.901  0.00  0.00    +0.000 A 
ATOM     21  C   UNL     1       0.691   9.796  18.738  0.00  0.00    +0.000 A 
ATOM     22  C   UNL     1       1.623   8.752  18.680  0.00  0.00    +0.000 A 
BRANCH  20  23
ATOM     23  O   UNL     1      -1.027  10.951  20.067  0.00  0.00    +0.000 OA
ATOM     24  C   UNL     1      -0.757  12.234  19.517  0.00  0.00    +0.000 C 
ENDBRANCH  20  23
ENDBRANCH  14  17
ENDBRANCH   1  13
BRANCH   1  25
ATOM     25  C   UNL     1       2.200   3.055  20.058  0.00  0.00    +0.000 C 
ATOM     26  C   UNL     1       2.307   2.531  21.495  0.00  0.00    +0.000 C 
ATOM     27  C   UNL     1       0.729   3.320  19.727  0.00  0.00    +0.000 C 
ENDBRANCH   1  25
TORSDOF 6
ENDMDL
MODEL 8
REMARK VINA RESULT:      -6.7      3.146      5.448
REMARK  Name = 
REMARK  10 active torsions:
REMARK  status: ('A' for Active; 'I' for Inactive)
REMARK    1  A    between atoms: C_1  and  C_2
REMARK    2  A    between atoms: C_2  and  C_3
REMARK    3  A    between atoms: C_8  and  C_10
REMARK    4  A    between atoms: C_10  and  N_11
REMARK    5  A    between atoms: C_10  and  C_22
REMARK    6  A    between atoms: C_12  and  C_14
REMARK    7  A    between atoms: C_17  and  O_18
REMARK    8  A    between atoms: O_18  and  C_19
REMARK    9  A    between atoms: C_22  and  C_23
REMARK   10  A    between atoms: C_22  and  C_24
REMARK                            x       y       z     vdW  Elec       q    Type
REMARK                         _______ _______ _______ _____ _____    ______ ____
ROOT
ATOM      1  C   UNL     1       2.972   4.238  19.900  0.00  0.00    +0.000 C 
ENDROOT
BRANCH   1   7
ATOM      2  C   UNL     1       6.632   4.404  15.142  0.00  0.00    +0.000 A 
ATOM      3  N   UNL     1       7.509   4.820  16.034  0.00  0.00    +0.000 NA
ATOM      4  N   UNL     1       6.981   4.826  17.316  0.00  0.00    +0.000 NA
ATOM      5  C   UNL     1       5.719   4.456  17.333  0.00  0.00    +0.000 A 
ATOM      6  N   UNL     1       4.946   4.423  18.471  0.00  0.00    +0.000 N 
ATOM      7  C   UNL     1       3.569   4.332  18.479  0.00  0.00    +0.000 C 
ATOM      8  O   UNL     1       2.833   4.435  17.498  0.00  0.00    +0.000 OA
ATOM      9  S   UNL     1       5.133   3.922  15.819  0.00  0.00    +0.000 S 
ATOM     10  H   UNL     1       5.420   4.707  19.325  0.00  0.00    +0.000 HD
BRANCH   2  12
ATOM     11  C   UNL     1       5.791   3.510  12.978  0.00  0.00    +0.000 C 
ATOM     12  C   UNL     1       6.854   4.354  13.668  0.00  0.00    +0.000 C 
ENDBRANCH   2  12
ENDBRANCH   1   7
BRANCH   1  13
ATOM     13  N   UNL     1       2.171   5.450  20.074  0.00  0.00    +0.000 N 
ATOM     14  C   UNL     1       2.683   6.701  19.803  0.00  0.00    +0.000 C 
ATOM     15  O   UNL     1       3.832   6.870  19.413  0.00  0.00    +0.000 OA
ATOM     16  H   UNL     1       1.166   5.333  20.030  0.00  0.00    +0.000 HD
BRANCH  14  17
ATOM     17  C   UNL     1       1.725   7.837  19.946  0.00  0.00    +0.000 A 
ATOM     18  C   UNL     1       1.574   8.797  18.936  0.00  0.00    +0.000 A 
ATOM     19  C   UNL     1       0.712   9.879  19.126  0.00  0.00    +0.000 A 
ATOM     20  C   UNL     1      -0.030  10.002  20.304  0.00  0.00    +0.000 A 
ATOM     21  C   UNL     1       0.096   9.030  21.298  0.00  0.00    +0.000 A 
ATOM     22  C   UNL     1       0.968   7.948  21.117  0.00  0.00    +0.000 A 
BRANCH  20  23
ATOM     23  O   UNL     1      -0.800  11.128  20.379  0.00  0.00    +0.000 OA
ATOM     24  C   UNL     1      -0.105  12.368  20.331  0.00  0.00    +0.000 C 
ENDBRANCH  20  23
ENDBRANCH  14  17
ENDBRANCH   1  13
BRANCH   1  25
ATOM     25  C   UNL     1       2.083   2.977  20.028  0.00  0.00    +0.000 C 
ATOM     26  C   UNL     1       1.932   2.550  21.493  0.00  0.00    +0.000 C 
ATOM     27  C   UNL     1       0.693   3.190  19.421  0.00  0.00    +0.000 C 
ENDBRANCH   1  25
TORSDOF 6
ENDMDL
MODEL 9
REMARK VINA RESULT:      -6.7      4.205      6.490
REMARK  Name = 
REMARK  10 active torsions:
REMARK  status: ('A' for Active; 'I' for Inactive)
REMARK    1  A    between atoms: C_1  and  C_2
REMARK    2  A    between atoms: C_2  and  C_3
REMARK    3  A    between atoms: C_8  and  C_10
REMARK    4  A    between atoms: C_10  and  N_11
REMARK    5  A    between atoms: C_10  and  C_22
REMARK    6  A    between atoms: C_12  and  C_14
REMARK    7  A    between atoms: C_17  and  O_18
REMARK    8  A    between atoms: O_18  and  C_19
REMARK    9  A    between atoms: C_22  and  C_23
REMARK   10  A    between atoms: C_22  and  C_24
REMARK                            x       y       z     vdW  Elec       q    Type
REMARK                         _______ _______ _______ _____ _____    ______ ____
ROOT
ATOM      1  C   UNL     1       2.258   6.053  20.335  0.00  0.00    +0.000 C 
ENDROOT
BRANCH   1   7
ATOM      2  C   UNL     1       6.578   4.782  16.362  0.00  0.00    +0.000 A 
ATOM      3  N   UNL     1       7.282   4.538  17.449  0.00  0.00    +0.000 NA
ATOM      4  N   UNL     1       6.522   4.672  18.601  0.00  0.00    +0.000 NA
ATOM      5  C   UNL     1       5.290   5.052  18.338  0.00  0.00    +0.000 A 
ATOM      6  N   UNL     1       4.345   5.306  19.305  0.00  0.00    +0.000 N 
ATOM      7  C   UNL     1       3.162   5.981  19.084  0.00  0.00    +0.000 C 
ATOM      8  O   UNL     1       2.858   6.589  18.059  0.00  0.00    +0.000 OA
ATOM      9  S   UNL     1       4.925   5.117  16.670  0.00  0.00    +0.000 S 
ATOM     10  H   UNL     1       4.660   5.177  20.263  0.00  0.00    +0.000 HD
BRANCH   2  12
ATOM     11  C   UNL     1       6.203   4.039  14.018  0.00  0.00    +0.000 C 
ATOM     12  C   UNL     1       7.113   4.802  14.970  0.00  0.00    +0.000 C 
ENDBRANCH   2  12
ENDBRANCH   1   7
BRANCH   1  13
ATOM     13  N   UNL     1       1.382   7.206  20.124  0.00  0.00    +0.000 N 
ATOM     14  C   UNL     1       1.333   8.252  21.021  0.00  0.00    +0.000 C 
ATOM     15  O   UNL     1       2.008   8.272  22.042  0.00  0.00    +0.000 OA
ATOM     16  H   UNL     1       1.112   7.394  19.165  0.00  0.00    +0.000 HD
BRANCH  14  17
ATOM     17  C   UNL     1       0.458   9.396  20.632  0.00  0.00    +0.000 A 
ATOM     18  C   UNL     1       0.284   9.762  19.291  0.00  0.00    +0.000 A 
ATOM     19  C   UNL     1      -0.495  10.874  18.965  0.00  0.00    +0.000 A 
ATOM     20  C   UNL     1      -1.133  11.614  19.965  0.00  0.00    +0.000 A 
ATOM     21  C   UNL     1      -0.986  11.234  21.300  0.00  0.00    +0.000 A 
ATOM     22  C   UNL     1      -0.197  10.125  21.632  0.00  0.00    +0.000 A 
BRANCH  20  23
ATOM     23  O   UNL     1      -1.827  12.702  19.515  0.00  0.00    +0.000 OA
ATOM     24  C   UNL     1      -1.878  13.821  20.393  0.00  0.00    +0.000 C 
ENDBRANCH  20  23
ENDBRANCH  14  17
ENDBRANCH   1  13
BRANCH   1  25
ATOM     25  C   UNL     1       1.424   4.756  20.472  0.00  0.00    +0.000 C 
ATOM     26  C   UNL     1       1.284   4.039  19.124  0.00  0.00    +0.000 C 
ATOM     27  C   UNL     1       2.031   3.789  21.494  0.00  0.00    +0.000 C 
ENDBRANCH   1  25
TORSDOF 6
ENDMDL
