MODEL 1
REMARK VINA RESULT:      -8.6      0.000      0.000
REMARK  Name = 
REMARK  6 active torsions:
REMARK  status: ('A' for Active; 'I' for Inactive)
REMARK    1  A    between atoms: C_1  and  C_2
REMARK    2  A    between atoms: C_10  and  N_11
REMARK    3  A    between atoms: C_12  and  C_14
REMARK    4  A    between atoms: C_14  and  N_15
REMARK    5  A    between atoms: N_18  and  C_19
REMARK    6  A    between atoms: C_19  and  C_20
REMARK                            x       y       z     vdW  Elec       q    Type
REMARK                         _______ _______ _______ _____ _____    ______ ____
ROOT
ATOM      1  C   UNL     1       8.208   7.696  18.118  0.00  0.00    +0.000 C 
ENDROOT
BRANCH   1   2
ATOM      2  N   UNL     1       7.062   7.323  17.250  0.00  0.00    +0.000 NA
ATOM      3  C   UNL     1       7.369   6.162  16.379  0.00  0.00    +0.000 C 
ATOM      4  C   UNL     1       7.429   4.781  17.082  0.00  0.00    +0.000 C 
ATOM      5  N   UNL     1       6.275   4.454  17.949  0.00  0.00    +0.000 NA
ATOM      6  C   UNL     1       6.003   5.608  18.832  0.00  0.00    +0.000 C 
ATOM      7  C   UNL     1       5.892   6.971  18.094  0.00  0.00    +0.000 C 
BRANCH   5   8
ATOM      8  C   UNL     1       5.061   4.085  17.201  0.00  0.00    +0.000 C 
BRANCH   8   9
ATOM      9  C   UNL     1       3.838   3.843  18.065  0.00  0.00    +0.000 A 
ATOM     10  C   UNL     1       2.541   4.164  17.601  0.00  0.00    +0.000 A 
ATOM     11  C   UNL     1       1.417   3.953  18.403  0.00  0.00    +0.000 A 
ATOM     12  C   UNL     1       1.613   3.410  19.655  0.00  0.00    +0.000 A 
ATOM     13  C   UNL     1       2.866   3.076  20.108  0.00  0.00    +0.000 A 
ATOM     14  C   UNL     1       3.993   3.275  19.341  0.00  0.00    +0.000 A 
ATOM     15  O   UNL     1       2.845   2.548  21.361  0.00  0.00    +0.000 OA
ATOM     16  C   UNL     1       1.430   2.573  21.639  0.00  0.00    +0.000 C 
ATOM     17  O   UNL     1       0.644   3.145  20.572  0.00  0.00    +0.000 OA
ENDBRANCH   8   9
ENDBRANCH   5   8
ENDBRANCH   1   2
BRANCH   1  19
ATOM     18  N   UNL     1       9.289   9.543  19.314  0.00  0.00    +0.000 N 
ATOM     19  C   UNL     1       8.374   9.204  18.334  0.00  0.00    +0.000 C 
ATOM     20  O   UNL     1       7.799   9.996  17.589  0.00  0.00    +0.000 OA
ATOM     21  H   UNL     1       9.970   8.829  19.538  0.00  0.00    +0.000 HD
BRANCH  18  31
ATOM     22  C   UNL     1      10.951  11.648  17.496  0.00  0.00    +0.000 C 
ATOM     23  C   UNL     1      10.348  11.745  18.852  0.00  0.00    +0.000 A 
ATOM     24  N   UNL     1      10.402  12.932  19.544  0.00  0.00    +0.000 N 
ATOM     25  C   UNL     1       9.721  12.839  20.733  0.00  0.00    +0.000 A 
ATOM     26  C   UNL     1       9.536  13.797  21.736  0.00  0.00    +0.000 A 
ATOM     27  C   UNL     1       8.829  13.405  22.877  0.00  0.00    +0.000 A 
ATOM     28  C   UNL     1       8.326  12.112  22.999  0.00  0.00    +0.000 A 
ATOM     29  C   UNL     1       8.502  11.176  21.972  0.00  0.00    +0.000 A 
ATOM     30  C   UNL     1       9.209  11.545  20.808  0.00  0.00    +0.000 A 
ATOM     31  C   UNL     1       9.620  10.855  19.626  0.00  0.00    +0.000 A 
ATOM     32  H   UNL     1      10.875  13.763  19.224  0.00  0.00    +0.000 HD
ENDBRANCH  18  31
ENDBRANCH   1  19
TORSDOF 5
ENDMDL
MODEL 2
REMARK VINA RESULT:      -8.2      8.092     11.193
REMARK  Name = 
REMARK  6 active torsions:
REMARK  status: ('A' for Active; 'I' for Inactive)
REMARK    1  A    between atoms: C_1  and  C_2
REMARK    2  A    between atoms: C_10  and  N_11
REMARK    3  A    between atoms: C_12  and  C_14
REMARK    4  A    between atoms: C_14  and  N_15
REMARK    5  A    between atoms: N_18  and  C_19
REMARK    6  A    between atoms: C_19  and  C_20
REMARK                            x       y       z     vdW  Elec       q    Type
REMARK                         _______ _______ _______ _____ _____    ______ ____
ROOT
ATOM      1  C   UNL     1       1.390   9.461  19.922  0.00  0.00    +0.000 C 
ENDROOT
BRANCH   1   2
ATOM      2  N   UNL     1      -0.051   9.475  20.281  0.00  0.00    +0.000 NA
ATOM      3  C   UNL     1      -0.290   9.001  21.667  0.00  0.00    +0.000 C 
ATOM      4  C   UNL     1       0.116   9.979  22.800  0.00  0.00    +0.000 C 
ATOM      5  N   UNL     1      -0.386  11.364  22.660  0.00  0.00    +0.000 NA
ATOM      6  C   UNL     1      -0.110  11.832  21.285  0.00  0.00    +0.000 C 
ATOM      7  C   UNL     1      -0.579  10.858  20.169  0.00  0.00    +0.000 C 
BRANCH   5   8
ATOM      8  C   UNL     1      -1.819  11.507  22.972  0.00  0.00    +0.000 C 
BRANCH   8   9
ATOM      9  C   UNL     1      -2.236  12.904  23.387  0.00  0.00    +0.000 A 
ATOM     10  C   UNL     1      -1.273  13.903  23.664  0.00  0.00    +0.000 A 
ATOM     11  C   UNL     1      -1.659  15.185  24.060  0.00  0.00    +0.000 A 
ATOM     12  C   UNL     1      -3.009  15.450  24.159  0.00  0.00    +0.000 A 
ATOM     13  C   UNL     1      -3.953  14.493  23.872  0.00  0.00    +0.000 A 
ATOM     14  C   UNL     1      -3.603  13.219  23.483  0.00  0.00    +0.000 A 
ATOM     15  O   UNL     1      -5.225  14.953  24.021  0.00  0.00    +0.000 OA
ATOM     16  C   UNL     1      -4.971  16.316  24.420  0.00  0.00    +0.000 C 
ATOM     17  O   UNL     1      -3.568  16.630  24.536  0.00  0.00    +0.000 OA
ENDBRANCH   8   9
ENDBRANCH   5   8
ENDBRANCH   1   2
BRANCH   1  19
ATOM     18  N   UNL     1       2.319   7.226  19.528  0.00  0.00    +0.000 N 
ATOM     19  C   UNL     1       1.787   8.356  18.936  0.00  0.00    +0.000 C 
ATOM     20  O   UNL     1       1.521   8.479  17.741  0.00  0.00    +0.000 OA
ATOM     21  H   UNL     1       2.093   7.101  20.507  0.00  0.00    +0.000 HD
BRANCH  18  31
ATOM     22  C   UNL     1       4.620   6.993  17.260  0.00  0.00    +0.000 C 
ATOM     23  C   UNL     1       3.665   6.006  17.831  0.00  0.00    +0.000 A 
ATOM     24  N   UNL     1       3.710   4.693  17.425  0.00  0.00    +0.000 N 
ATOM     25  C   UNL     1       2.807   3.931  18.125  0.00  0.00    +0.000 A 
ATOM     26  C   UNL     1       2.519   2.566  18.025  0.00  0.00    +0.000 A 
ATOM     27  C   UNL     1       1.503   2.060  18.841  0.00  0.00    +0.000 A 
ATOM     28  C   UNL     1       0.813   2.890  19.723  0.00  0.00    +0.000 A 
ATOM     29  C   UNL     1       1.134   4.249  19.825  0.00  0.00    +0.000 A 
ATOM     30  C   UNL     1       2.158   4.785  19.014  0.00  0.00    +0.000 A 
ATOM     31  C   UNL     1       2.692   6.096  18.814  0.00  0.00    +0.000 A 
ATOM     32  H   UNL     1       4.324   4.333  16.712  0.00  0.00    +0.000 HD
ENDBRANCH  18  31
ENDBRANCH   1  19
TORSDOF 5
ENDMDL
MODEL 3
REMARK VINA RESULT:      -8.2      7.686     10.698
REMARK  Name = 
REMARK  6 active torsions:
REMARK  status: ('A' for Active; 'I' for Inactive)
REMARK    1  A    between atoms: C_1  and  C_2
REMARK    2  A    between atoms: C_10  and  N_11
REMARK    3  A    between atoms: C_12  and  C_14
REMARK    4  A    between atoms: C_14  and  N_15
REMARK    5  A    between atoms: N_18  and  C_19
REMARK    6  A    between atoms: C_19  and  C_20
REMARK                            x       y       z     vdW  Elec       q    Type
REMARK                         _______ _______ _______ _____ _____    ______ ____
ROOT
ATOM      1  C   UNL     1       1.565   9.277  19.938  0.00  0.00    +0.000 C 
ENDROOT
BRANCH   1   2
ATOM      2  N   UNL     1       0.455  10.175  19.528  0.00  0.00    +0.000 NA
ATOM      3  C   UNL     1      -0.661  10.173  20.506  0.00  0.00    +0.000 C 
ATOM      4  C   UNL     1      -0.400  10.922  21.838  0.00  0.00    +0.000 C 
ATOM      5  N   UNL     1       0.136  12.295  21.706  0.00  0.00    +0.000 NA
ATOM      6  C   UNL     1       1.267  12.273  20.756  0.00  0.00    +0.000 C 
ATOM      7  C   UNL     1       0.960  11.566  19.406  0.00  0.00    +0.000 C 
BRANCH   5   8
ATOM      8  C   UNL     1      -0.870  13.283  21.282  0.00  0.00    +0.000 C 
BRANCH   8   9
ATOM      9  C   UNL     1      -2.159  13.253  22.080  0.00  0.00    +0.000 A 
ATOM     10  C   UNL     1      -2.190  13.663  23.434  0.00  0.00    +0.000 A 
ATOM     11  C   UNL     1      -3.375  13.621  24.172  0.00  0.00    +0.000 A 
ATOM     12  C   UNL     1      -4.515  13.180  23.534  0.00  0.00    +0.000 A 
ATOM     13  C   UNL     1      -4.500  12.799  22.214  0.00  0.00    +0.000 A 
ATOM     14  C   UNL     1      -3.347  12.826  21.462  0.00  0.00    +0.000 A 
ATOM     15  O   UNL     1      -5.725  12.406  21.770  0.00  0.00    +0.000 OA
ATOM     16  C   UNL     1      -6.516  12.599  22.961  0.00  0.00    +0.000 C 
ATOM     17  O   UNL     1      -5.749  13.064  24.092  0.00  0.00    +0.000 OA
ENDBRANCH   8   9
ENDBRANCH   5   8
ENDBRANCH   1   2
BRANCH   1  19
ATOM     18  N   UNL     1       2.483   7.055  19.455  0.00  0.00    +0.000 N 
ATOM     19  C   UNL     1       1.914   8.192  18.913  0.00  0.00    +0.000 C 
ATOM     20  O   UNL     1       1.584   8.336  17.736  0.00  0.00    +0.000 OA
ATOM     21  H   UNL     1       2.310   6.911  20.442  0.00  0.00    +0.000 HD
BRANCH  18  31
ATOM     22  C   UNL     1       4.775   6.837  17.176  0.00  0.00    +0.000 C 
ATOM     23  C   UNL     1       3.793   5.858  17.714  0.00  0.00    +0.000 A 
ATOM     24  N   UNL     1       3.801   4.559  17.263  0.00  0.00    +0.000 N 
ATOM     25  C   UNL     1       2.877   3.799  17.938  0.00  0.00    +0.000 A 
ATOM     26  C   UNL     1       2.551   2.446  17.790  0.00  0.00    +0.000 A 
ATOM     27  C   UNL     1       1.521   1.942  18.590  0.00  0.00    +0.000 A 
ATOM     28  C   UNL     1       0.855   2.759  19.501  0.00  0.00    +0.000 A 
ATOM     29  C   UNL     1       1.215   4.105  19.649  0.00  0.00    +0.000 A 
ATOM     30  C   UNL     1       2.252   4.639  18.857  0.00  0.00    +0.000 A 
ATOM     31  C   UNL     1       2.824   5.941  18.701  0.00  0.00    +0.000 A 
ATOM     32  H   UNL     1       4.404   4.206  16.537  0.00  0.00    +0.000 HD
ENDBRANCH  18  31
ENDBRANCH   1  19
TORSDOF 5
ENDMDL
MODEL 4
REMARK VINA RESULT:      -8.1      7.554     10.506
REMARK  Name = 
REMARK  6 active torsions:
REMARK  status: ('A' for Active; 'I' for Inactive)
REMARK    1  A    between atoms: C_1  and  C_2
REMARK    2  A    between atoms: C_10  and  N_11
REMARK    3  A    between atoms: C_12  and  C_14
REMARK    4  A    between atoms: C_14  and  N_15
REMARK    5  A    between atoms: N_18  and  C_19
REMARK    6  A    between atoms: C_19  and  C_20
REMARK                            x       y       z     vdW  Elec       q    Type
REMARK                         _______ _______ _______ _____ _____    ______ ____
ROOT
ATOM      1  C   UNL     1       1.743   9.315  19.571  0.00  0.00    +0.000 C 
ENDROOT
BRANCH   1   2
ATOM      2  N   UNL     1       0.719  10.275  19.083  0.00  0.00    +0.000 NA
ATOM      3  C   UNL     1      -0.565  10.149  19.816  0.00  0.00    +0.000 C 
ATOM      4  C   UNL     1      -0.578  10.702  21.265  0.00  0.00    +0.000 C 
ATOM      5  N   UNL     1      -0.048  12.073  21.432  0.00  0.00    +0.000 NA
ATOM      6  C   UNL     1       1.246  12.171  20.724  0.00  0.00    +0.000 C 
ATOM      7  C   UNL     1       1.216  11.663  19.256  0.00  0.00    +0.000 C 
BRANCH   5   8
ATOM      8  C   UNL     1      -0.969  13.123  20.962  0.00  0.00    +0.000 C 
BRANCH   8   9
ATOM      9  C   UNL     1      -2.398  12.968  21.444  0.00  0.00    +0.000 A 
ATOM     10  C   UNL     1      -3.472  12.873  20.528  0.00  0.00    +0.000 A 
ATOM     11  C   UNL     1      -4.789  12.744  20.973  0.00  0.00    +0.000 A 
ATOM     12  C   UNL     1      -5.007  12.700  22.334  0.00  0.00    +0.000 A 
ATOM     13  C   UNL     1      -3.970  12.772  23.233  0.00  0.00    +0.000 A 
ATOM     14  C   UNL     1      -2.661  12.902  22.823  0.00  0.00    +0.000 A 
ATOM     15  O   UNL     1      -4.392  12.703  24.524  0.00  0.00    +0.000 OA
ATOM     16  C   UNL     1      -5.815  12.563  24.334  0.00  0.00    +0.000 C 
ATOM     17  O   UNL     1      -6.215  12.589  22.948  0.00  0.00    +0.000 OA
ENDBRANCH   8   9
ENDBRANCH   5   8
ENDBRANCH   1   2
BRANCH   1  19
ATOM     18  N   UNL     1       2.623   7.054  19.215  0.00  0.00    +0.000 N 
ATOM     19  C   UNL     1       2.020   8.147  18.619  0.00  0.00    +0.000 C 
ATOM     20  O   UNL     1       1.613   8.194  17.459  0.00  0.00    +0.000 OA
ATOM     21  H   UNL     1       2.516   6.995  20.220  0.00  0.00    +0.000 HD
BRANCH  18  31
ATOM     22  C   UNL     1       4.857   6.597  16.915  0.00  0.00    +0.000 C 
ATOM     23  C   UNL     1       3.855   5.693  17.539  0.00  0.00    +0.000 A 
ATOM     24  N   UNL     1       3.810   4.366  17.182  0.00  0.00    +0.000 N 
ATOM     25  C   UNL     1       2.876   3.687  17.926  0.00  0.00    +0.000 A 
ATOM     26  C   UNL     1       2.502   2.340  17.882  0.00  0.00    +0.000 A 
ATOM     27  C   UNL     1       1.474   1.929  18.734  0.00  0.00    +0.000 A 
ATOM     28  C   UNL     1       0.855   2.831  19.597  0.00  0.00    +0.000 A 
ATOM     29  C   UNL     1       1.262   4.171  19.643  0.00  0.00    +0.000 A 
ATOM     30  C   UNL     1       2.299   4.612  18.795  0.00  0.00    +0.000 A 
ATOM     31  C   UNL     1       2.910   5.879  18.537  0.00  0.00    +0.000 A 
ATOM     32  H   UNL     1       4.386   3.942  16.471  0.00  0.00    +0.000 HD
ENDBRANCH  18  31
ENDBRANCH   1  19
TORSDOF 5
ENDMDL
MODEL 5
REMARK VINA RESULT:      -8.1      7.454     10.580
REMARK  Name = 
REMARK  6 active torsions:
REMARK  status: ('A' for Active; 'I' for Inactive)
REMARK    1  A    between atoms: C_1  and  C_2
REMARK    2  A    between atoms: C_10  and  N_11
REMARK    3  A    between atoms: C_12  and  C_14
REMARK    4  A    between atoms: C_14  and  N_15
REMARK    5  A    between atoms: N_18  and  C_19
REMARK    6  A    between atoms: C_19  and  C_20
REMARK                            x       y       z     vdW  Elec       q    Type
REMARK                         _______ _______ _______ _____ _____    ______ ____
ROOT
ATOM      1  C   UNL     1       1.743   8.294  20.403  0.00  0.00    +0.000 C 
ENDROOT
BRANCH   1   2
ATOM      2  N   UNL     1       0.307   8.669  20.343  0.00  0.00    +0.000 NA
ATOM      3  C   UNL     1      -0.343   8.623  21.676  0.00  0.00    +0.000 C 
ATOM      4  C   UNL     1       0.029   9.767  22.654  0.00  0.00    +0.000 C 
ATOM      5  N   UNL     1      -0.071  11.137  22.104  0.00  0.00    +0.000 NA
ATOM      6  C   UNL     1       0.609  11.174  20.793  0.00  0.00    +0.000 C 
ATOM      7  C   UNL     1       0.175  10.049  19.812  0.00  0.00    +0.000 C 
BRANCH   5   8
ATOM      8  C   UNL     1      -1.457  11.621  21.976  0.00  0.00    +0.000 C 
BRANCH   8   9
ATOM      9  C   UNL     1      -1.839  12.708  22.962  0.00  0.00    +0.000 A 
ATOM     10  C   UNL     1      -3.114  12.723  23.575  0.00  0.00    +0.000 A 
ATOM     11  C   UNL     1      -3.469  13.733  24.472  0.00  0.00    +0.000 A 
ATOM     12  C   UNL     1      -2.532  14.705  24.751  0.00  0.00    +0.000 A 
ATOM     13  C   UNL     1      -1.284  14.688  24.176  0.00  0.00    +0.000 A 
ATOM     14  C   UNL     1      -0.906  13.708  23.285  0.00  0.00    +0.000 A 
ATOM     15  O   UNL     1      -0.506  15.727  24.586  0.00  0.00    +0.000 OA
ATOM     16  C   UNL     1      -1.405  16.390  25.499  0.00  0.00    +0.000 C 
ATOM     17  O   UNL     1      -2.702  15.764  25.587  0.00  0.00    +0.000 OA
ENDBRANCH   8   9
ENDBRANCH   5   8
ENDBRANCH   1   2
BRANCH   1  19
ATOM     18  N   UNL     1       2.743   6.244  19.501  0.00  0.00    +0.000 N 
ATOM     19  C   UNL     1       2.240   7.495  19.193  0.00  0.00    +0.000 C 
ATOM     20  O   UNL     1       2.072   7.938  18.058  0.00  0.00    +0.000 OA
ATOM     21  H   UNL     1       2.439   5.861  20.387  0.00  0.00    +0.000 HD
BRANCH  18  31
ATOM     22  C   UNL     1       1.270   3.553  18.462  0.00  0.00    +0.000 C 
ATOM     23  C   UNL     1       2.570   4.188  18.116  0.00  0.00    +0.000 A 
ATOM     24  N   UNL     1       3.364   3.637  17.138  0.00  0.00    +0.000 N 
ATOM     25  C   UNL     1       4.474   4.412  16.911  0.00  0.00    +0.000 A 
ATOM     26  C   UNL     1       5.536   4.219  16.020  0.00  0.00    +0.000 A 
ATOM     27  C   UNL     1       6.570   5.159  16.038  0.00  0.00    +0.000 A 
ATOM     28  C   UNL     1       6.535   6.247  16.907  0.00  0.00    +0.000 A 
ATOM     29  C   UNL     1       5.451   6.435  17.774  0.00  0.00    +0.000 A 
ATOM     30  C   UNL     1       4.391   5.503  17.775  0.00  0.00    +0.000 A 
ATOM     31  C   UNL     1       3.195   5.348  18.543  0.00  0.00    +0.000 A 
ATOM     32  H   UNL     1       3.160   2.780  16.647  0.00  0.00    +0.000 HD
ENDBRANCH  18  31
ENDBRANCH   1  19
TORSDOF 5
ENDMDL
MODEL 6
REMARK VINA RESULT:      -8.1      5.548      7.576
REMARK  Name = 
REMARK  6 active torsions:
REMARK  status: ('A' for Active; 'I' for Inactive)
REMARK    1  A    between atoms: C_1  and  C_2
REMARK    2  A    between atoms: C_10  and  N_11
REMARK    3  A    between atoms: C_12  and  C_14
REMARK    4  A    between atoms: C_14  and  N_15
REMARK    5  A    between atoms: N_18  and  C_19
REMARK    6  A    between atoms: C_19  and  C_20
REMARK                            x       y       z     vdW  Elec       q    Type
REMARK                         _______ _______ _______ _____ _____    ______ ____
ROOT
ATOM      1  C   UNL     1       0.924   7.043  20.561  0.00  0.00    +0.000 C 
ENDROOT
BRANCH   1   2
ATOM      2  N   UNL     1       2.107   6.178  20.801  0.00  0.00    +0.000 NA
ATOM      3  C   UNL     1       1.755   4.736  20.824  0.00  0.00    +0.000 C 
ATOM      4  C   UNL     1       1.425   4.094  19.452  0.00  0.00    +0.000 C 
ATOM      5  N   UNL     1       2.410   4.343  18.376  0.00  0.00    +0.000 NA
ATOM      6  C   UNL     1       2.725   5.786  18.345  0.00  0.00    +0.000 C 
ATOM      7  C   UNL     1       3.107   6.391  19.724  0.00  0.00    +0.000 C 
BRANCH   5   8
ATOM      8  C   UNL     1       3.646   3.553  18.513  0.00  0.00    +0.000 C 
BRANCH   8   9
ATOM      9  C   UNL     1       4.784   4.003  17.619  0.00  0.00    +0.000 A 
ATOM     10  C   UNL     1       5.980   4.527  18.166  0.00  0.00    +0.000 A 
ATOM     11  C   UNL     1       7.022   4.955  17.341  0.00  0.00    +0.000 A 
ATOM     12  C   UNL     1       6.853   4.837  15.977  0.00  0.00    +0.000 A 
ATOM     13  C   UNL     1       5.704   4.311  15.436  0.00  0.00    +0.000 A 
ATOM     14  C   UNL     1       4.659   3.884  16.225  0.00  0.00    +0.000 A 
ATOM     15  O   UNL     1       5.737   4.273  14.077  0.00  0.00    +0.000 OA
ATOM     16  C   UNL     1       7.047   4.822  13.825  0.00  0.00    +0.000 C 
ATOM     17  O   UNL     1       7.750   5.208  15.025  0.00  0.00    +0.000 OA
ENDBRANCH   8   9
ENDBRANCH   5   8
ENDBRANCH   1   2
BRANCH   1  19
ATOM     18  N   UNL     1       0.334   9.415  20.370  0.00  0.00    +0.000 N 
ATOM     19  C   UNL     1       1.078   8.482  21.067  0.00  0.00    +0.000 C 
ATOM     20  O   UNL     1       1.733   8.704  22.084  0.00  0.00    +0.000 OA
ATOM     21  H   UNL     1      -0.453   9.045  19.852  0.00  0.00    +0.000 HD
BRANCH  18  31
ATOM     22  C   UNL     1      -1.048  10.770  22.968  0.00  0.00    +0.000 C 
ATOM     23  C   UNL     1      -0.313  11.338  21.807  0.00  0.00    +0.000 A 
ATOM     24  N   UNL     1      -0.069  12.690  21.744  0.00  0.00    +0.000 N 
ATOM     25  C   UNL     1       0.690  13.002  20.643  0.00  0.00    +0.000 A 
ATOM     26  C   UNL     1       1.152  14.244  20.196  0.00  0.00    +0.000 A 
ATOM     27  C   UNL     1       1.872  14.271  18.998  0.00  0.00    +0.000 A 
ATOM     28  C   UNL     1       2.122  13.099  18.287  0.00  0.00    +0.000 A 
ATOM     29  C   UNL     1       1.671  11.862  18.765  0.00  0.00    +0.000 A 
ATOM     30  C   UNL     1       0.944  11.807  19.972  0.00  0.00    +0.000 A 
ATOM     31  C   UNL     1       0.297  10.762  20.704  0.00  0.00    +0.000 A 
ATOM     32  H   UNL     1      -0.398  13.365  22.416  0.00  0.00    +0.000 HD
ENDBRANCH  18  31
ENDBRANCH   1  19
TORSDOF 5
ENDMDL
MODEL 7
REMARK VINA RESULT:      -8.1      5.688      7.588
REMARK  Name = 
REMARK  6 active torsions:
REMARK  status: ('A' for Active; 'I' for Inactive)
REMARK    1  A    between atoms: C_1  and  C_2
REMARK    2  A    between atoms: C_10  and  N_11
REMARK    3  A    between atoms: C_12  and  C_14
REMARK    4  A    between atoms: C_14  and  N_15
REMARK    5  A    between atoms: N_18  and  C_19
REMARK    6  A    between atoms: C_19  and  C_20
REMARK                            x       y       z     vdW  Elec       q    Type
REMARK                         _______ _______ _______ _____ _____    ______ ____
ROOT
ATOM      1  C   UNL     1       0.920   6.934  20.590  0.00  0.00    +0.000 C 
ENDROOT
BRANCH   1   2
ATOM      2  N   UNL     1       2.111   6.074  20.814  0.00  0.00    +0.000 NA
ATOM      3  C   UNL     1       1.775   4.629  20.788  0.00  0.00    +0.000 C 
ATOM      4  C   UNL     1       1.467   4.028  19.393  0.00  0.00    +0.000 C 
ATOM      5  N   UNL     1       2.460   4.322  18.336  0.00  0.00    +0.000 NA
ATOM      6  C   UNL     1       2.758   5.769  18.354  0.00  0.00    +0.000 C 
ATOM      7  C   UNL     1       3.119   6.333  19.756  0.00  0.00    +0.000 C 
BRANCH   5   8
ATOM      8  C   UNL     1       3.704   3.541  18.461  0.00  0.00    +0.000 C 
BRANCH   8   9
ATOM      9  C   UNL     1       4.832   4.006  17.561  0.00  0.00    +0.000 A 
ATOM     10  C   UNL     1       6.010   4.574  18.101  0.00  0.00    +0.000 A 
ATOM     11  C   UNL     1       7.042   5.014  17.270  0.00  0.00    +0.000 A 
ATOM     12  C   UNL     1       6.882   4.864  15.908  0.00  0.00    +0.000 A 
ATOM     13  C   UNL     1       5.751   4.295  15.375  0.00  0.00    +0.000 A 
ATOM     14  C   UNL     1       4.714   3.855  16.169  0.00  0.00    +0.000 A 
ATOM     15  O   UNL     1       5.789   4.230  14.017  0.00  0.00    +0.000 OA
ATOM     16  C   UNL     1       7.084   4.810  13.758  0.00  0.00    +0.000 C 
ATOM     17  O   UNL     1       7.771   5.241  14.952  0.00  0.00    +0.000 OA
ENDBRANCH   8   9
ENDBRANCH   5   8
ENDBRANCH   1   2
BRANCH   1  19
ATOM     18  N   UNL     1       0.522   9.309  20.128  0.00  0.00    +0.000 N 
ATOM     19  C   UNL     1       1.114   8.401  20.987  0.00  0.00    +0.000 C 
ATOM     20  O   UNL     1       1.662   8.678  22.053  0.00  0.00    +0.000 OA
ATOM     21  H   UNL     1      -0.224   8.939  19.552  0.00  0.00    +0.000 HD
BRANCH  18  31
ATOM     22  C   UNL     1       2.064  11.558  18.379  0.00  0.00    +0.000 C 
ATOM     23  C   UNL     1       1.217  11.636  19.599  0.00  0.00    +0.000 A 
ATOM     24  N   UNL     1       0.923  12.860  20.153  0.00  0.00    +0.000 N 
ATOM     25  C   UNL     1       0.066  12.725  21.218  0.00  0.00    +0.000 A 
ATOM     26  C   UNL     1      -0.474  13.700  22.063  0.00  0.00    +0.000 A 
ATOM     27  C   UNL     1      -1.290  13.264  23.110  0.00  0.00    +0.000 A 
ATOM     28  C   UNL     1      -1.556  11.909  23.294  0.00  0.00    +0.000 A 
ATOM     29  C   UNL     1      -1.025  10.951  22.422  0.00  0.00    +0.000 A 
ATOM     30  C   UNL     1      -0.200  11.364  21.354  0.00  0.00    +0.000 A 
ATOM     31  C   UNL     1       0.540  10.681  20.340  0.00  0.00    +0.000 A 
ATOM     32  H   UNL     1       1.282  13.742  19.822  0.00  0.00    +0.000 HD
ENDBRANCH  18  31
ENDBRANCH   1  19
TORSDOF 5
ENDMDL
MODEL 8
REMARK VINA RESULT:      -8.0      7.451     10.306
REMARK  Name = 
REMARK  6 active torsions:
REMARK  status: ('A' for Active; 'I' for Inactive)
REMARK    1  A    between atoms: C_1  and  C_2
REMARK    2  A    between atoms: C_10  and  N_11
REMARK    3  A    between atoms: C_12  and  C_14
REMARK    4  A    between atoms: C_14  and  N_15
REMARK    5  A    between atoms: N_18  and  C_19
REMARK    6  A    between atoms: C_19  and  C_20
REMARK                            x       y       z     vdW  Elec       q    Type
REMARK                         _______ _______ _______ _____ _____    ______ ____
ROOT
ATOM      1  C   UNL     1       1.563   9.455  18.445  0.00  0.00    +0.000 C 
ENDROOT
BRANCH   1   2
ATOM      2  N   UNL     1       1.137  10.158  19.682  0.00  0.00    +0.000 NA
ATOM      3  C   UNL     1       1.255  11.632  19.561  0.00  0.00    +0.000 C 
ATOM      4  C   UNL     1       0.196  12.328  18.669  0.00  0.00    +0.000 C 
ATOM      5  N   UNL     1      -1.212  11.969  18.948  0.00  0.00    +0.000 NA
ATOM      6  C   UNL     1      -1.318  10.497  19.032  0.00  0.00    +0.000 C 
ATOM      7  C   UNL     1      -0.280   9.831  19.977  0.00  0.00    +0.000 C 
BRANCH   5   8
ATOM      8  C   UNL     1      -1.749  12.592  20.170  0.00  0.00    +0.000 C 
BRANCH   8   9
ATOM      9  C   UNL     1      -3.256  12.506  20.310  0.00  0.00    +0.000 A 
ATOM     10  C   UNL     1      -4.084  12.289  19.183  0.00  0.00    +0.000 A 
ATOM     11  C   UNL     1      -5.473  12.224  19.312  0.00  0.00    +0.000 A 
ATOM     12  C   UNL     1      -6.010  12.365  20.575  0.00  0.00    +0.000 A 
ATOM     13  C   UNL     1      -5.214  12.557  21.679  0.00  0.00    +0.000 A 
ATOM     14  C   UNL     1      -3.842  12.628  21.582  0.00  0.00    +0.000 A 
ATOM     15  O   UNL     1      -5.933  12.664  22.829  0.00  0.00    +0.000 OA
ATOM     16  C   UNL     1      -7.274  12.501  22.322  0.00  0.00    +0.000 C 
ATOM     17  O   UNL     1      -7.332  12.340  20.889  0.00  0.00    +0.000 OA
ENDBRANCH   8   9
ENDBRANCH   5   8
ENDBRANCH   1   2
BRANCH   1  19
ATOM     18  N   UNL     1       2.829   7.546  17.569  0.00  0.00    +0.000 N 
ATOM     19  C   UNL     1       2.222   8.093  18.685  0.00  0.00    +0.000 C 
ATOM     20  O   UNL     1       2.273   7.631  19.824  0.00  0.00    +0.000 OA
ATOM     21  H   UNL     1       3.066   8.204  16.838  0.00  0.00    +0.000 HD
BRANCH  18  31
ATOM     22  C   UNL     1       6.024   7.104  17.275  0.00  0.00    +0.000 C 
ATOM     23  C   UNL     1       4.888   6.159  17.446  0.00  0.00    +0.000 A 
ATOM     24  N   UNL     1       5.129   4.811  17.565  0.00  0.00    +0.000 N 
ATOM     25  C   UNL     1       3.963   4.122  17.796  0.00  0.00    +0.000 A 
ATOM     26  C   UNL     1       3.752   2.749  17.966  0.00  0.00    +0.000 A 
ATOM     27  C   UNL     1       2.435   2.317  18.140  0.00  0.00    +0.000 A 
ATOM     28  C   UNL     1       1.378   3.225  18.150  0.00  0.00    +0.000 A 
ATOM     29  C   UNL     1       1.614   4.598  18.002  0.00  0.00    +0.000 A 
ATOM     30  C   UNL     1       2.935   5.062  17.827  0.00  0.00    +0.000 A 
ATOM     31  C   UNL     1       3.522   6.344  17.592  0.00  0.00    +0.000 A 
ATOM     32  H   UNL     1       6.038   4.380  17.496  0.00  0.00    +0.000 HD
ENDBRANCH  18  31
ENDBRANCH   1  19
TORSDOF 5
ENDMDL
MODEL 9
REMARK VINA RESULT:      -8.0      7.377     10.004
REMARK  Name = 
REMARK  6 active torsions:
REMARK  status: ('A' for Active; 'I' for Inactive)
REMARK    1  A    between atoms: C_1  and  C_2
REMARK    2  A    between atoms: C_10  and  N_11
REMARK    3  A    between atoms: C_12  and  C_14
REMARK    4  A    between atoms: C_14  and  N_15
REMARK    5  A    between atoms: N_18  and  C_19
REMARK    6  A    between atoms: C_19  and  C_20
REMARK                            x       y       z     vdW  Elec       q    Type
REMARK                         _______ _______ _______ _____ _____    ______ ____
ROOT
ATOM      1  C   UNL     1       1.906   8.992  19.291  0.00  0.00    +0.000 C 
ENDROOT
BRANCH   1   2
ATOM      2  N   UNL     1       0.954   9.973  18.711  0.00  0.00    +0.000 NA
ATOM      3  C   UNL     1      -0.432   9.769  19.200  0.00  0.00    +0.000 C 
ATOM      4  C   UNL     1      -0.707  10.200  20.664  0.00  0.00    +0.000 C 
ATOM      5  N   UNL     1      -0.252  11.560  21.027  0.00  0.00    +0.000 NA
ATOM      6  C   UNL     1       1.140  11.735  20.563  0.00  0.00    +0.000 C 
ATOM      7  C   UNL     1       1.374  11.349  19.076  0.00  0.00    +0.000 C 
BRANCH   5   8
ATOM      8  C   UNL     1      -1.109  12.632  20.491  0.00  0.00    +0.000 C 
BRANCH   8   9
ATOM      9  C   UNL     1      -2.483  12.718  21.127  0.00  0.00    +0.000 A 
ATOM     10  C   UNL     1      -3.623  13.055  20.361  0.00  0.00    +0.000 A 
ATOM     11  C   UNL     1      -4.885  13.147  20.952  0.00  0.00    +0.000 A 
ATOM     12  C   UNL     1      -4.985  12.886  22.302  0.00  0.00    +0.000 A 
ATOM     13  C   UNL     1      -3.887  12.538  23.051  0.00  0.00    +0.000 A 
ATOM     14  C   UNL     1      -2.629  12.442  22.498  0.00  0.00    +0.000 A 
ATOM     15  O   UNL     1      -4.196  12.313  24.357  0.00  0.00    +0.000 OA
ATOM     16  C   UNL     1      -5.620  12.545  24.339  0.00  0.00    +0.000 C 
ATOM     17  O   UNL     1      -6.123  12.936  23.044  0.00  0.00    +0.000 OA
ENDBRANCH   8   9
ENDBRANCH   5   8
ENDBRANCH   1   2
BRANCH   1  19
ATOM     18  N   UNL     1       2.889   6.797  18.810  0.00  0.00    +0.000 N 
ATOM     19  C   UNL     1       2.502   8.011  18.274  0.00  0.00    +0.000 C 
ATOM     20  O   UNL     1       2.502   8.296  17.078  0.00  0.00    +0.000 OA
ATOM     21  H   UNL     1       2.456   6.554  19.693  0.00  0.00    +0.000 HD
BRANCH  18  31
ATOM     22  C   UNL     1       1.390   4.065  17.927  0.00  0.00    +0.000 C 
ATOM     23  C   UNL     1       2.764   4.582  17.689  0.00  0.00    +0.000 A 
ATOM     24  N   UNL     1       3.642   3.864  16.912  0.00  0.00    +0.000 N 
ATOM     25  C   UNL     1       4.823   4.546  16.748  0.00  0.00    +0.000 A 
ATOM     26  C   UNL     1       5.978   4.180  16.048  0.00  0.00    +0.000 A 
ATOM     27  C   UNL     1       7.063   5.061  16.091  0.00  0.00    +0.000 A 
ATOM     28  C   UNL     1       6.985   6.258  16.801  0.00  0.00    +0.000 A 
ATOM     29  C   UNL     1       5.810   6.616  17.474  0.00  0.00    +0.000 A 
ATOM     30  C   UNL     1       4.700   5.746  17.444  0.00  0.00    +0.000 A 
ATOM     31  C   UNL     1       3.404   5.757  18.048  0.00  0.00    +0.000 A 
ATOM     32  H   UNL     1       3.449   2.959  16.511  0.00  0.00    +0.000 HD
ENDBRANCH  18  31
ENDBRANCH   1  19
TORSDOF 5
ENDMDL
