MODEL 1
REMARK VINA RESULT:      -8.4      0.000      0.000
REMARK  Name = 
REMARK  8 active torsions:
REMARK  status: ('A' for Active; 'I' for Inactive)
REMARK    1  A    between atoms: C_2  and  C_15
REMARK    2  A    between atoms: N_3  and  N_4
REMARK    3  A    between atoms: C_5  and  C_6
REMARK    4  A    between atoms: C_18  and  C_19
REMARK    5  A    between atoms: C_19  and  O_20
REMARK    6  A    between atoms: O_20  and  C_21
REMARK    7  A    between atoms: C_21  and  C_22
REMARK    8  A    between atoms: C_22  and  C_25
REMARK                            x       y       z     vdW  Elec       q    Type
REMARK                         _______ _______ _______ _____ _____    ______ ____
ROOT
ATOM      1  O   UNL     1       8.107   6.321  18.888  0.00  0.00    +0.000 OA
ATOM      2  C   UNL     1       7.257   6.726  18.122  0.00  0.00    +0.000 C 
ATOM      3  N   UNL     1       7.279   7.957  17.456  0.00  0.00    +0.000 N 
ATOM      4  H   UNL     1       6.479   8.293  16.940  0.00  0.00    +0.000 HD
ENDROOT
BRANCH   2   5
ATOM      5  C   UNL     1       6.048   5.883  17.856  0.00  0.00    +0.000 A 
ATOM      6  C   UNL     1       4.782   6.469  17.725  0.00  0.00    +0.000 A 
ATOM      7  C   UNL     1       3.671   5.666  17.455  0.00  0.00    +0.000 A 
ATOM      8  C   UNL     1       3.808   4.279  17.277  0.00  0.00    +0.000 A 
ATOM      9  C   UNL     1       5.077   3.702  17.421  0.00  0.00    +0.000 A 
ATOM     10  C   UNL     1       6.183   4.501  17.709  0.00  0.00    +0.000 A 
BRANCH   8  11
ATOM     11  C   UNL     1       2.609   3.435  16.906  0.00  0.00    +0.000 C 
BRANCH  11  12
ATOM     12  O   UNL     1       1.450   3.784  17.674  0.00  0.00    +0.000 OA
BRANCH  12  13
ATOM     13  C   UNL     1       1.225   2.884  18.773  0.00  0.00    +0.000 C 
BRANCH  13  14
ATOM     14  C   UNL     1       1.601   3.533  20.100  0.00  0.00    +0.000 C 
ATOM     15  F   UNL     1       1.676   4.880  19.938  0.00  0.00    +0.000 F 
ATOM     16  F   UNL     1       0.608   3.308  21.001  0.00  0.00    +0.000 F 
BRANCH  14  17
ATOM     17  C   UNL     1       2.915   2.974  20.622  0.00  0.00    +0.000 C 
ATOM     18  F   UNL     1       2.743   2.383  21.834  0.00  0.00    +0.000 F 
ATOM     19  F   UNL     1       3.403   2.015  19.793  0.00  0.00    +0.000 F 
ENDBRANCH  14  17
ENDBRANCH  13  14
ENDBRANCH  12  13
ENDBRANCH  11  12
ENDBRANCH   8  11
ENDBRANCH   2   5
BRANCH   3  20
ATOM     20  N   UNL     1       8.330   8.802  17.677  0.00  0.00    +0.000 NA
ATOM     21  C   UNL     1       8.054  10.001  18.084  0.00  0.00    +0.000 C 
BRANCH  21  22
ATOM     22  C   UNL     1       9.138  10.969  18.385  0.00  0.00    +0.000 A 
ATOM     23  C   UNL     1      10.078  10.690  19.399  0.00  0.00    +0.000 A 
ATOM     24  C   UNL     1      11.084  11.612  19.710  0.00  0.00    +0.000 A 
ATOM     25  C   UNL     1      11.102  12.800  19.012  0.00  0.00    +0.000 A 
ATOM     26  C   UNL     1      10.183  13.075  18.025  0.00  0.00    +0.000 A 
ATOM     27  C   UNL     1       9.193  12.176  17.676  0.00  0.00    +0.000 A 
ATOM     28  O   UNL     1      10.364  14.311  17.484  0.00  0.00    +0.000 OA
ATOM     29  C   UNL     1      11.457  14.806  18.290  0.00  0.00    +0.000 C 
ATOM     30  O   UNL     1      11.981  13.820  19.203  0.00  0.00    +0.000 OA
ENDBRANCH  21  22
ENDBRANCH   3  20
TORSDOF 8
ENDMDL
MODEL 2
REMARK VINA RESULT:      -8.1      0.782      1.273
REMARK  Name = 
REMARK  8 active torsions:
REMARK  status: ('A' for Active; 'I' for Inactive)
REMARK    1  A    between atoms: C_2  and  C_15
REMARK    2  A    between atoms: N_3  and  N_4
REMARK    3  A    between atoms: C_5  and  C_6
REMARK    4  A    between atoms: C_18  and  C_19
REMARK    5  A    between atoms: C_19  and  O_20
REMARK    6  A    between atoms: O_20  and  C_21
REMARK    7  A    between atoms: C_21  and  C_22
REMARK    8  A    between atoms: C_22  and  C_25
REMARK                            x       y       z     vdW  Elec       q    Type
REMARK                         _______ _______ _______ _____ _____    ______ ____
ROOT
ATOM      1  O   UNL     1       8.196   6.309  19.066  0.00  0.00    +0.000 OA
ATOM      2  C   UNL     1       7.360   6.756  18.307  0.00  0.00    +0.000 C 
ATOM      3  N   UNL     1       7.387   8.027  17.720  0.00  0.00    +0.000 N 
ATOM      4  H   UNL     1       6.597   8.389  17.207  0.00  0.00    +0.000 HD
ENDROOT
BRANCH   2   5
ATOM      5  C   UNL     1       6.165   5.922  17.958  0.00  0.00    +0.000 A 
ATOM      6  C   UNL     1       6.150   4.548  18.228  0.00  0.00    +0.000 A 
ATOM      7  C   UNL     1       5.017   3.793  17.914  0.00  0.00    +0.000 A 
ATOM      8  C   UNL     1       3.874   4.399  17.364  0.00  0.00    +0.000 A 
ATOM      9  C   UNL     1       3.905   5.772  17.090  0.00  0.00    +0.000 A 
ATOM     10  C   UNL     1       5.043   6.522  17.385  0.00  0.00    +0.000 A 
BRANCH   8  11
ATOM     11  C   UNL     1       2.628   3.582  17.106  0.00  0.00    +0.000 C 
BRANCH  11  12
ATOM     12  O   UNL     1       1.553   3.956  17.977  0.00  0.00    +0.000 OA
BRANCH  12  13
ATOM     13  C   UNL     1       1.244   2.937  18.944  0.00  0.00    +0.000 C 
BRANCH  13  14
ATOM     14  C   UNL     1       1.166   3.519  20.350  0.00  0.00    +0.000 C 
ATOM     15  F   UNL     1       0.333   4.592  20.349  0.00  0.00    +0.000 F 
ATOM     16  F   UNL     1       0.607   2.598  21.180  0.00  0.00    +0.000 F 
BRANCH  14  17
ATOM     17  C   UNL     1       2.549   3.903  20.853  0.00  0.00    +0.000 C 
ATOM     18  F   UNL     1       2.858   5.178  20.492  0.00  0.00    +0.000 F 
ATOM     19  F   UNL     1       2.606   3.863  22.208  0.00  0.00    +0.000 F 
ENDBRANCH  14  17
ENDBRANCH  13  14
ENDBRANCH  12  13
ENDBRANCH  11  12
ENDBRANCH   8  11
ENDBRANCH   2   5
BRANCH   3  20
ATOM     20  N   UNL     1       8.425   8.864  18.019  0.00  0.00    +0.000 NA
ATOM     21  C   UNL     1       8.181  10.137  18.027  0.00  0.00    +0.000 C 
BRANCH  21  22
ATOM     22  C   UNL     1       9.241  11.112  18.379  0.00  0.00    +0.000 A 
ATOM     23  C   UNL     1      10.104  10.861  19.466  0.00  0.00    +0.000 A 
ATOM     24  C   UNL     1      11.087  11.791  19.825  0.00  0.00    +0.000 A 
ATOM     25  C   UNL     1      11.159  12.959  19.098  0.00  0.00    +0.000 A 
ATOM     26  C   UNL     1      10.315  13.207  18.039  0.00  0.00    +0.000 A 
ATOM     27  C   UNL     1       9.351  12.299  17.643  0.00  0.00    +0.000 A 
ATOM     28  O   UNL     1      10.538  14.427  17.479  0.00  0.00    +0.000 OA
ATOM     29  C   UNL     1      11.571  14.944  18.348  0.00  0.00    +0.000 C 
ATOM     30  O   UNL     1      12.024  13.984  19.325  0.00  0.00    +0.000 OA
ENDBRANCH  21  22
ENDBRANCH   3  20
TORSDOF 8
ENDMDL
MODEL 3
REMARK VINA RESULT:      -8.1      0.721      1.577
REMARK  Name = 
REMARK  8 active torsions:
REMARK  status: ('A' for Active; 'I' for Inactive)
REMARK    1  A    between atoms: C_2  and  C_15
REMARK    2  A    between atoms: N_3  and  N_4
REMARK    3  A    between atoms: C_5  and  C_6
REMARK    4  A    between atoms: C_18  and  C_19
REMARK    5  A    between atoms: C_19  and  O_20
REMARK    6  A    between atoms: O_20  and  C_21
REMARK    7  A    between atoms: C_21  and  C_22
REMARK    8  A    between atoms: C_22  and  C_25
REMARK                            x       y       z     vdW  Elec       q    Type
REMARK                         _______ _______ _______ _____ _____    ______ ____
ROOT
ATOM      1  O   UNL     1       8.100   6.115  18.955  0.00  0.00    +0.000 OA
ATOM      2  C   UNL     1       7.262   6.586  18.212  0.00  0.00    +0.000 C 
ATOM      3  N   UNL     1       7.269   7.887  17.694  0.00  0.00    +0.000 N 
ATOM      4  H   UNL     1       6.477   8.261  17.193  0.00  0.00    +0.000 HD
ENDROOT
BRANCH   2   5
ATOM      5  C   UNL     1       6.087   5.749  17.807  0.00  0.00    +0.000 A 
ATOM      6  C   UNL     1       6.274   4.497  17.209  0.00  0.00    +0.000 A 
ATOM      7  C   UNL     1       5.164   3.723  16.859  0.00  0.00    +0.000 A 
ATOM      8  C   UNL     1       3.859   4.168  17.132  0.00  0.00    +0.000 A 
ATOM      9  C   UNL     1       3.684   5.426  17.721  0.00  0.00    +0.000 A 
ATOM     10  C   UNL     1       4.791   6.206  18.053  0.00  0.00    +0.000 A 
BRANCH   8  11
ATOM     11  C   UNL     1       2.672   3.284  16.821  0.00  0.00    +0.000 C 
BRANCH  11  12
ATOM     12  O   UNL     1       2.502   2.250  17.800  0.00  0.00    +0.000 OA
BRANCH  12  13
ATOM     13  C   UNL     1       1.484   2.565  18.766  0.00  0.00    +0.000 C 
BRANCH  13  14
ATOM     14  C   UNL     1       2.095   2.865  20.130  0.00  0.00    +0.000 C 
ATOM     15  F   UNL     1       1.557   2.030  21.058  0.00  0.00    +0.000 F 
ATOM     16  F   UNL     1       3.426   2.589  20.089  0.00  0.00    +0.000 F 
BRANCH  14  17
ATOM     17  C   UNL     1       1.875   4.319  20.513  0.00  0.00    +0.000 C 
ATOM     18  F   UNL     1       0.548   4.603  20.597  0.00  0.00    +0.000 F 
ATOM     19  F   UNL     1       2.404   4.589  21.734  0.00  0.00    +0.000 F 
ENDBRANCH  14  17
ENDBRANCH  13  14
ENDBRANCH  12  13
ENDBRANCH  11  12
ENDBRANCH   8  11
ENDBRANCH   2   5
BRANCH   3  20
ATOM     20  N   UNL     1       8.288   8.726  18.048  0.00  0.00    +0.000 NA
ATOM     21  C   UNL     1       8.104   9.996  17.866  0.00  0.00    +0.000 C 
BRANCH  21  22
ATOM     22  C   UNL     1       9.143  10.979  18.259  0.00  0.00    +0.000 A 
ATOM     23  C   UNL     1      10.113  10.639  19.224  0.00  0.00    +0.000 A 
ATOM     24  C   UNL     1      11.077  11.571  19.624  0.00  0.00    +0.000 A 
ATOM     25  C   UNL     1      11.026  12.827  19.061  0.00  0.00    +0.000 A 
ATOM     26  C   UNL     1      10.077  13.162  18.121  0.00  0.00    +0.000 A 
ATOM     27  C   UNL     1       9.127  12.258  17.686  0.00  0.00    +0.000 A 
ATOM     28  O   UNL     1      10.188  14.457  17.718  0.00  0.00    +0.000 OA
ATOM     29  C   UNL     1      11.269  14.916  18.560  0.00  0.00    +0.000 C 
ATOM     30  O   UNL     1      11.856  13.864  19.353  0.00  0.00    +0.000 OA
ENDBRANCH  21  22
ENDBRANCH   3  20
TORSDOF 8
ENDMDL
MODEL 4
REMARK VINA RESULT:      -7.8      1.480      1.906
REMARK  Name = 
REMARK  8 active torsions:
REMARK  status: ('A' for Active; 'I' for Inactive)
REMARK    1  A    between atoms: C_2  and  C_15
REMARK    2  A    between atoms: N_3  and  N_4
REMARK    3  A    between atoms: C_5  and  C_6
REMARK    4  A    between atoms: C_18  and  C_19
REMARK    5  A    between atoms: C_19  and  O_20
REMARK    6  A    between atoms: O_20  and  C_21
REMARK    7  A    between atoms: C_21  and  C_22
REMARK    8  A    between atoms: C_22  and  C_25
REMARK                            x       y       z     vdW  Elec       q    Type
REMARK                         _______ _______ _______ _____ _____    ______ ____
ROOT
ATOM      1  O   UNL     1       6.372   8.113  16.565  0.00  0.00    +0.000 OA
ATOM      2  C   UNL     1       6.770   7.340  17.413  0.00  0.00    +0.000 C 
ATOM      3  N   UNL     1       7.875   7.543  18.248  0.00  0.00    +0.000 N 
ATOM      4  H   UNL     1       8.235   6.806  18.837  0.00  0.00    +0.000 HD
ENDROOT
BRANCH   2   5
ATOM      5  C   UNL     1       6.065   6.032  17.600  0.00  0.00    +0.000 A 
ATOM      6  C   UNL     1       6.068   5.391  18.846  0.00  0.00    +0.000 A 
ATOM      7  C   UNL     1       5.385   4.181  19.004  0.00  0.00    +0.000 A 
ATOM      8  C   UNL     1       4.664   3.614  17.940  0.00  0.00    +0.000 A 
ATOM      9  C   UNL     1       4.678   4.258  16.696  0.00  0.00    +0.000 A 
ATOM     10  C   UNL     1       5.374   5.455  16.533  0.00  0.00    +0.000 A 
BRANCH   8  11
ATOM     11  C   UNL     1       3.865   2.348  18.150  0.00  0.00    +0.000 C 
BRANCH  11  12
ATOM     12  O   UNL     1       3.219   2.328  19.430  0.00  0.00    +0.000 OA
BRANCH  12  13
ATOM     13  C   UNL     1       1.804   2.568  19.339  0.00  0.00    +0.000 C 
BRANCH  13  14
ATOM     14  C   UNL     1       1.357   3.610  20.356  0.00  0.00    +0.000 C 
ATOM     15  F   UNL     1       0.013   3.786  20.262  0.00  0.00    +0.000 F 
ATOM     16  F   UNL     1       1.597   3.138  21.609  0.00  0.00    +0.000 F 
BRANCH  14  17
ATOM     17  C   UNL     1       2.094   4.923  20.144  0.00  0.00    +0.000 C 
ATOM     18  F   UNL     1       2.000   5.327  18.849  0.00  0.00    +0.000 F 
ATOM     19  F   UNL     1       1.553   5.915  20.896  0.00  0.00    +0.000 F 
ENDBRANCH  14  17
ENDBRANCH  13  14
ENDBRANCH  12  13
ENDBRANCH  11  12
ENDBRANCH   8  11
ENDBRANCH   2   5
BRANCH   3  20
ATOM     20  N   UNL     1       8.595   8.695  18.112  0.00  0.00    +0.000 NA
ATOM     21  C   UNL     1       8.840   9.376  19.188  0.00  0.00    +0.000 C 
BRANCH  21  22
ATOM     22  C   UNL     1       9.648  10.619  19.134  0.00  0.00    +0.000 A 
ATOM     23  C   UNL     1      10.030  11.270  20.326  0.00  0.00    +0.000 A 
ATOM     24  C   UNL     1      10.765  12.460  20.283  0.00  0.00    +0.000 A 
ATOM     25  C   UNL     1      11.076  12.976  19.044  0.00  0.00    +0.000 A 
ATOM     26  C   UNL     1      10.700  12.344  17.881  0.00  0.00    +0.000 A 
ATOM     27  C   UNL     1       9.996  11.156  17.887  0.00  0.00    +0.000 A 
ATOM     28  O   UNL     1      11.083  13.037  16.773  0.00  0.00    +0.000 OA
ATOM     29  C   UNL     1      11.680  14.208  17.374  0.00  0.00    +0.000 C 
ATOM     30  O   UNL     1      11.750  14.135  18.812  0.00  0.00    +0.000 OA
ENDBRANCH  21  22
ENDBRANCH   3  20
TORSDOF 8
ENDMDL
MODEL 5
REMARK VINA RESULT:      -7.5      1.181      1.420
REMARK  Name = 
REMARK  8 active torsions:
REMARK  status: ('A' for Active; 'I' for Inactive)
REMARK    1  A    between atoms: C_2  and  C_15
REMARK    2  A    between atoms: N_3  and  N_4
REMARK    3  A    between atoms: C_5  and  C_6
REMARK    4  A    between atoms: C_18  and  C_19
REMARK    5  A    between atoms: C_19  and  O_20
REMARK    6  A    between atoms: O_20  and  C_21
REMARK    7  A    between atoms: C_21  and  C_22
REMARK    8  A    between atoms: C_22  and  C_25
REMARK                            x       y       z     vdW  Elec       q    Type
REMARK                         _______ _______ _______ _____ _____    ______ ____
ROOT
ATOM      1  O   UNL     1       8.233   7.391  16.395  0.00  0.00    +0.000 OA
ATOM      2  C   UNL     1       7.358   7.506  17.230  0.00  0.00    +0.000 C 
ATOM      3  N   UNL     1       7.160   8.617  18.058  0.00  0.00    +0.000 N 
ATOM      4  H   UNL     1       6.502   8.597  18.822  0.00  0.00    +0.000 HD
ENDROOT
BRANCH   2   5
ATOM      5  C   UNL     1       6.398   6.376  17.446  0.00  0.00    +0.000 A 
ATOM      6  C   UNL     1       5.451   6.046  16.468  0.00  0.00    +0.000 A 
ATOM      7  C   UNL     1       4.579   4.974  16.681  0.00  0.00    +0.000 A 
ATOM      8  C   UNL     1       4.662   4.197  17.849  0.00  0.00    +0.000 A 
ATOM      9  C   UNL     1       5.606   4.543  18.825  0.00  0.00    +0.000 A 
ATOM     10  C   UNL     1       6.463   5.624  18.620  0.00  0.00    +0.000 A 
BRANCH   8  11
ATOM     11  C   UNL     1       3.767   2.992  18.028  0.00  0.00    +0.000 C 
BRANCH  11  12
ATOM     12  O   UNL     1       2.378   3.347  17.999  0.00  0.00    +0.000 OA
BRANCH  12  13
ATOM     13  C   UNL     1       1.948   3.996  19.208  0.00  0.00    +0.000 C 
BRANCH  13  14
ATOM     14  C   UNL     1       1.387   2.987  20.203  0.00  0.00    +0.000 C 
ATOM     15  F   UNL     1       0.030   3.053  20.197  0.00  0.00    +0.000 F 
ATOM     16  F   UNL     1       1.714   1.732  19.793  0.00  0.00    +0.000 F 
BRANCH  14  17
ATOM     17  C   UNL     1       1.938   3.240  21.598  0.00  0.00    +0.000 C 
ATOM     18  F   UNL     1       2.947   2.374  21.885  0.00  0.00    +0.000 F 
ATOM     19  F   UNL     1       2.462   4.488  21.698  0.00  0.00    +0.000 F 
ENDBRANCH  14  17
ENDBRANCH  13  14
ENDBRANCH  12  13
ENDBRANCH  11  12
ENDBRANCH   8  11
ENDBRANCH   2   5
BRANCH   3  20
ATOM     20  N   UNL     1       8.019   9.674  17.949  0.00  0.00    +0.000 NA
ATOM     21  C   UNL     1       8.777   9.933  18.968  0.00  0.00    +0.000 C 
BRANCH  21  22
ATOM     22  C   UNL     1       9.765  11.039  18.920  0.00  0.00    +0.000 A 
ATOM     23  C   UNL     1      10.654  11.245  19.995  0.00  0.00    +0.000 A 
ATOM     24  C   UNL     1      11.567  12.305  19.971  0.00  0.00    +0.000 A 
ATOM     25  C   UNL     1      11.546  13.144  18.879  0.00  0.00    +0.000 A 
ATOM     26  C   UNL     1      10.676  12.947  17.831  0.00  0.00    +0.000 A 
ATOM     27  C   UNL     1       9.779  11.896  17.811  0.00  0.00    +0.000 A 
ATOM     28  O   UNL     1      10.801  13.904  16.871  0.00  0.00    +0.000 OA
ATOM     29  C   UNL     1      11.800  14.762  17.468  0.00  0.00    +0.000 C 
ATOM     30  O   UNL     1      12.333  14.239  18.702  0.00  0.00    +0.000 OA
ENDBRANCH  21  22
ENDBRANCH   3  20
TORSDOF 8
ENDMDL
MODEL 6
REMARK VINA RESULT:      -7.5      1.274      1.431
REMARK  Name = 
REMARK  8 active torsions:
REMARK  status: ('A' for Active; 'I' for Inactive)
REMARK    1  A    between atoms: C_2  and  C_15
REMARK    2  A    between atoms: N_3  and  N_4
REMARK    3  A    between atoms: C_5  and  C_6
REMARK    4  A    between atoms: C_18  and  C_19
REMARK    5  A    between atoms: C_19  and  O_20
REMARK    6  A    between atoms: O_20  and  C_21
REMARK    7  A    between atoms: C_21  and  C_22
REMARK    8  A    between atoms: C_22  and  C_25
REMARK                            x       y       z     vdW  Elec       q    Type
REMARK                         _______ _______ _______ _____ _____    ______ ____
ROOT
ATOM      1  O   UNL     1       7.919   6.763  16.102  0.00  0.00    +0.000 OA
ATOM      2  C   UNL     1       7.290   6.731  17.141  0.00  0.00    +0.000 C 
ATOM      3  N   UNL     1       7.464   7.596  18.227  0.00  0.00    +0.000 N 
ATOM      4  H   UNL     1       7.005   7.434  19.111  0.00  0.00    +0.000 HD
ENDROOT
BRANCH   2   5
ATOM      5  C   UNL     1       6.244   5.675  17.333  0.00  0.00    +0.000 A 
ATOM      6  C   UNL     1       5.346   5.363  16.303  0.00  0.00    +0.000 A 
ATOM      7  C   UNL     1       4.392   4.360  16.496  0.00  0.00    +0.000 A 
ATOM      8  C   UNL     1       4.342   3.632  17.696  0.00  0.00    +0.000 A 
ATOM      9  C   UNL     1       5.238   3.960  18.723  0.00  0.00    +0.000 A 
ATOM     10  C   UNL     1       6.177   4.973  18.537  0.00  0.00    +0.000 A 
BRANCH   8  11
ATOM     11  C   UNL     1       3.357   2.496  17.858  0.00  0.00    +0.000 C 
BRANCH  11  12
ATOM     12  O   UNL     1       2.129   2.932  18.454  0.00  0.00    +0.000 OA
BRANCH  12  13
ATOM     13  C   UNL     1       1.861   2.282  19.709  0.00  0.00    +0.000 C 
BRANCH  13  14
ATOM     14  C   UNL     1       1.241   3.251  20.708  0.00  0.00    +0.000 C 
ATOM     15  F   UNL     1       0.158   3.848  20.145  0.00  0.00    +0.000 F 
ATOM     16  F   UNL     1       0.781   2.550  21.778  0.00  0.00    +0.000 F 
BRANCH  14  17
ATOM     17  C   UNL     1       2.259   4.286  21.160  0.00  0.00    +0.000 C 
ATOM     18  F   UNL     1       3.513   3.762  21.166  0.00  0.00    +0.000 F 
ATOM     19  F   UNL     1       2.289   5.346  20.313  0.00  0.00    +0.000 F 
ENDBRANCH  14  17
ENDBRANCH  13  14
ENDBRANCH  12  13
ENDBRANCH  11  12
ENDBRANCH   8  11
ENDBRANCH   2   5
BRANCH   3  20
ATOM     20  N   UNL     1       8.426   8.562  18.146  0.00  0.00    +0.000 NA
ATOM     21  C   UNL     1       8.030   9.796  18.097  0.00  0.00    +0.000 C 
BRANCH  21  22
ATOM     22  C   UNL     1       9.010  10.908  18.047  0.00  0.00    +0.000 A 
ATOM     23  C   UNL     1      10.378  10.661  18.289  0.00  0.00    +0.000 A 
ATOM     24  C   UNL     1      11.304  11.709  18.275  0.00  0.00    +0.000 A 
ATOM     25  C   UNL     1      10.828  12.981  18.043  0.00  0.00    +0.000 A 
ATOM     26  C   UNL     1       9.494  13.224  17.811  0.00  0.00    +0.000 A 
ATOM     27  C   UNL     1       8.557  12.209  17.793  0.00  0.00    +0.000 A 
ATOM     28  O   UNL     1       9.236  14.549  17.634  0.00  0.00    +0.000 OA
ATOM     29  C   UNL     1      10.548  15.115  17.849  0.00  0.00    +0.000 C 
ATOM     30  O   UNL     1      11.575  14.118  18.028  0.00  0.00    +0.000 OA
ENDBRANCH  21  22
ENDBRANCH   3  20
TORSDOF 8
ENDMDL
MODEL 7
REMARK VINA RESULT:      -7.5      7.912      9.205
REMARK  Name = 
REMARK  8 active torsions:
REMARK  status: ('A' for Active; 'I' for Inactive)
REMARK    1  A    between atoms: C_2  and  C_15
REMARK    2  A    between atoms: N_3  and  N_4
REMARK    3  A    between atoms: C_5  and  C_6
REMARK    4  A    between atoms: C_18  and  C_19
REMARK    5  A    between atoms: C_19  and  O_20
REMARK    6  A    between atoms: O_20  and  C_21
REMARK    7  A    between atoms: C_21  and  C_22
REMARK    8  A    between atoms: C_22  and  C_25
REMARK                            x       y       z     vdW  Elec       q    Type
REMARK                         _______ _______ _______ _____ _____    ______ ____
ROOT
ATOM      1  O   UNL     1       0.502  11.204  19.487  0.00  0.00    +0.000 OA
ATOM      2  C   UNL     1       0.764  10.277  20.225  0.00  0.00    +0.000 C 
ATOM      3  N   UNL     1       0.534  10.241  21.605  0.00  0.00    +0.000 N 
ATOM      4  H   UNL     1       0.897   9.498  22.183  0.00  0.00    +0.000 HD
ENDROOT
BRANCH   2   5
ATOM      5  C   UNL     1       1.416   9.051  19.659  0.00  0.00    +0.000 A 
ATOM      6  C   UNL     1       1.653   7.931  20.466  0.00  0.00    +0.000 A 
ATOM      7  C   UNL     1       2.242   6.791  19.913  0.00  0.00    +0.000 A 
ATOM      8  C   UNL     1       2.568   6.737  18.548  0.00  0.00    +0.000 A 
ATOM      9  C   UNL     1       2.337   7.867  17.753  0.00  0.00    +0.000 A 
ATOM     10  C   UNL     1       1.766   9.011  18.309  0.00  0.00    +0.000 A 
BRANCH   8  11
ATOM     11  C   UNL     1       3.130   5.467  17.948  0.00  0.00    +0.000 C 
BRANCH  11  12
ATOM     12  O   UNL     1       2.099   4.525  17.624  0.00  0.00    +0.000 OA
BRANCH  12  13
ATOM     13  C   UNL     1       2.300   3.248  18.253  0.00  0.00    +0.000 C 
BRANCH  13  14
ATOM     14  C   UNL     1       1.230   2.980  19.305  0.00  0.00    +0.000 C 
ATOM     15  F   UNL     1       0.530   4.121  19.536  0.00  0.00    +0.000 F 
ATOM     16  F   UNL     1       0.342   2.075  18.813  0.00  0.00    +0.000 F 
BRANCH  14  17
ATOM     17  C   UNL     1       1.854   2.454  20.588  0.00  0.00    +0.000 C 
ATOM     18  F   UNL     1       3.065   3.031  20.810  0.00  0.00    +0.000 F 
ATOM     19  F   UNL     1       1.083   2.752  21.665  0.00  0.00    +0.000 F 
ENDBRANCH  14  17
ENDBRANCH  13  14
ENDBRANCH  12  13
ENDBRANCH  11  12
ENDBRANCH   8  11
ENDBRANCH   2   5
BRANCH   3  20
ATOM     20  N   UNL     1      -0.021  11.336  22.204  0.00  0.00    +0.000 NA
ATOM     21  C   UNL     1      -1.273  11.265  22.534  0.00  0.00    +0.000 C 
BRANCH  21  22
ATOM     22  C   UNL     1      -1.943  12.395  23.223  0.00  0.00    +0.000 A 
ATOM     23  C   UNL     1      -3.258  12.248  23.713  0.00  0.00    +0.000 A 
ATOM     24  C   UNL     1      -3.909  13.319  24.335  0.00  0.00    +0.000 A 
ATOM     25  C   UNL     1      -3.231  14.515  24.428  0.00  0.00    +0.000 A 
ATOM     26  C   UNL     1      -1.950  14.660  23.947  0.00  0.00    +0.000 A 
ATOM     27  C   UNL     1      -1.269  13.616  23.350  0.00  0.00    +0.000 A 
ATOM     28  O   UNL     1      -1.478  15.926  24.114  0.00  0.00    +0.000 OA
ATOM     29  C   UNL     1      -2.633  16.575  24.691  0.00  0.00    +0.000 C 
ATOM     30  O   UNL     1      -3.718  15.665  24.967  0.00  0.00    +0.000 OA
ENDBRANCH  21  22
ENDBRANCH   3  20
TORSDOF 8
ENDMDL
MODEL 8
REMARK VINA RESULT:      -7.4      1.132      1.254
REMARK  Name = 
REMARK  8 active torsions:
REMARK  status: ('A' for Active; 'I' for Inactive)
REMARK    1  A    between atoms: C_2  and  C_15
REMARK    2  A    between atoms: N_3  and  N_4
REMARK    3  A    between atoms: C_5  and  C_6
REMARK    4  A    between atoms: C_18  and  C_19
REMARK    5  A    between atoms: C_19  and  O_20
REMARK    6  A    between atoms: O_20  and  C_21
REMARK    7  A    between atoms: C_21  and  C_22
REMARK    8  A    between atoms: C_22  and  C_25
REMARK                            x       y       z     vdW  Elec       q    Type
REMARK                         _______ _______ _______ _____ _____    ______ ____
ROOT
ATOM      1  O   UNL     1       7.927   6.657  16.490  0.00  0.00    +0.000 OA
ATOM      2  C   UNL     1       7.013   7.102  17.155  0.00  0.00    +0.000 C 
ATOM      3  N   UNL     1       7.017   8.328  17.830  0.00  0.00    +0.000 N 
ATOM      4  H   UNL     1       6.282   8.579  18.474  0.00  0.00    +0.000 HD
ENDROOT
BRANCH   2   5
ATOM      5  C   UNL     1       5.762   6.293  17.316  0.00  0.00    +0.000 A 
ATOM      6  C   UNL     1       4.551   6.910  17.656  0.00  0.00    +0.000 A 
ATOM      7  C   UNL     1       3.392   6.140  17.780  0.00  0.00    +0.000 A 
ATOM      8  C   UNL     1       3.413   4.757  17.532  0.00  0.00    +0.000 A 
ATOM      9  C   UNL     1       4.632   4.149  17.203  0.00  0.00    +0.000 A 
ATOM     10  C   UNL     1       5.792   4.915  17.098  0.00  0.00    +0.000 A 
BRANCH   8  11
ATOM     11  C   UNL     1       2.135   3.952  17.592  0.00  0.00    +0.000 C 
BRANCH  11  12
ATOM     12  O   UNL     1       1.471   4.093  18.854  0.00  0.00    +0.000 OA
BRANCH  12  13
ATOM     13  C   UNL     1       2.390   4.146  19.960  0.00  0.00    +0.000 C 
BRANCH  13  14
ATOM     14  C   UNL     1       2.692   2.749  20.490  0.00  0.00    +0.000 C 
ATOM     15  F   UNL     1       2.506   2.728  21.836  0.00  0.00    +0.000 F 
ATOM     16  F   UNL     1       1.796   1.872  19.963  0.00  0.00    +0.000 F 
BRANCH  14  17
ATOM     17  C   UNL     1       4.107   2.329  20.129  0.00  0.00    +0.000 C 
ATOM     18  F   UNL     1       4.719   1.730  21.186  0.00  0.00    +0.000 F 
ATOM     19  F   UNL     1       4.106   1.420  19.120  0.00  0.00    +0.000 F 
ENDBRANCH  14  17
ENDBRANCH  13  14
ENDBRANCH  12  13
ENDBRANCH  11  12
ENDBRANCH   8  11
ENDBRANCH   2   5
BRANCH   3  20
ATOM     20  N   UNL     1       8.137   9.107  17.766  0.00  0.00    +0.000 NA
ATOM     21  C   UNL     1       8.031  10.338  18.159  0.00  0.00    +0.000 C 
BRANCH  21  22
ATOM     22  C   UNL     1       9.208  11.240  18.158  0.00  0.00    +0.000 A 
ATOM     23  C   UNL     1      10.461  10.775  18.609  0.00  0.00    +0.000 A 
ATOM     24  C   UNL     1      11.569  11.629  18.641  0.00  0.00    +0.000 A 
ATOM     25  C   UNL     1      11.382  12.934  18.242  0.00  0.00    +0.000 A 
ATOM     26  C   UNL     1      10.160  13.391  17.805  0.00  0.00    +0.000 A 
ATOM     27  C   UNL     1       9.052  12.568  17.737  0.00  0.00    +0.000 A 
ATOM     28  O   UNL     1      10.189  14.714  17.487  0.00  0.00    +0.000 OA
ATOM     29  C   UNL     1      11.550  15.051  17.839  0.00  0.00    +0.000 C 
ATOM     30  O   UNL     1      12.332  13.908  18.240  0.00  0.00    +0.000 OA
ENDBRANCH  21  22
ENDBRANCH   3  20
TORSDOF 8
ENDMDL
MODEL 9
REMARK VINA RESULT:      -7.4      6.556      8.943
REMARK  Name = 
REMARK  8 active torsions:
REMARK  status: ('A' for Active; 'I' for Inactive)
REMARK    1  A    between atoms: C_2  and  C_15
REMARK    2  A    between atoms: N_3  and  N_4
REMARK    3  A    between atoms: C_5  and  C_6
REMARK    4  A    between atoms: C_18  and  C_19
REMARK    5  A    between atoms: C_19  and  O_20
REMARK    6  A    between atoms: O_20  and  C_21
REMARK    7  A    between atoms: C_21  and  C_22
REMARK    8  A    between atoms: C_22  and  C_25
REMARK                            x       y       z     vdW  Elec       q    Type
REMARK                         _______ _______ _______ _____ _____    ______ ____
ROOT
ATOM      1  O   UNL     1       1.973   8.073  17.873  0.00  0.00    +0.000 OA
ATOM      2  C   UNL     1       2.623   7.256  18.494  0.00  0.00    +0.000 C 
ATOM      3  N   UNL     1       2.458   6.940  19.848  0.00  0.00    +0.000 N 
ATOM      4  H   UNL     1       3.116   6.353  20.338  0.00  0.00    +0.000 HD
ENDROOT
BRANCH   2   5
ATOM      5  C   UNL     1       3.726   6.516  17.800  0.00  0.00    +0.000 A 
ATOM      6  C   UNL     1       3.680   5.122  17.672  0.00  0.00    +0.000 A 
ATOM      7  C   UNL     1       4.709   4.454  17.003  0.00  0.00    +0.000 A 
ATOM      8  C   UNL     1       5.773   5.164  16.422  0.00  0.00    +0.000 A 
ATOM      9  C   UNL     1       5.814   6.556  16.565  0.00  0.00    +0.000 A 
ATOM     10  C   UNL     1       4.797   7.222  17.250  0.00  0.00    +0.000 A 
BRANCH   8  11
ATOM     11  C   UNL     1       6.835   4.433  15.631  0.00  0.00    +0.000 C 
BRANCH  11  12
ATOM     12  O   UNL     1       6.640   4.569  14.217  0.00  0.00    +0.000 OA
BRANCH  12  13
ATOM     13  C   UNL     1       6.006   3.417  13.633  0.00  0.00    +0.000 C 
BRANCH  13  14
ATOM     14  C   UNL     1       6.242   3.365  12.129  0.00  0.00    +0.000 C 
ATOM     15  F   UNL     1       5.104   3.728  11.481  0.00  0.00    +0.000 F 
ATOM     16  F   UNL     1       7.185   4.286  11.796  0.00  0.00    +0.000 F 
BRANCH  14  17
ATOM     17  C   UNL     1       6.694   1.978  11.700  0.00  0.00    +0.000 C 
ATOM     18  F   UNL     1       5.679   1.303  11.096  0.00  0.00    +0.000 F 
ATOM     19  F   UNL     1       7.702   2.049  10.794  0.00  0.00    +0.000 F 
ENDBRANCH  14  17
ENDBRANCH  13  14
ENDBRANCH  12  13
ENDBRANCH  11  12
ENDBRANCH   8  11
ENDBRANCH   2   5
BRANCH   3  20
ATOM     20  N   UNL     1       1.499   7.601  20.561  0.00  0.00    +0.000 NA
ATOM     21  C   UNL     1       1.635   8.883  20.698  0.00  0.00    +0.000 C 
BRANCH  21  22
ATOM     22  C   UNL     1       0.618   9.682  21.425  0.00  0.00    +0.000 A 
ATOM     23  C   UNL     1       0.229   9.319  22.731  0.00  0.00    +0.000 A 
ATOM     24  C   UNL     1      -0.752  10.048  23.411  0.00  0.00    +0.000 A 
ATOM     25  C   UNL     1      -1.333  11.109  22.751  0.00  0.00    +0.000 A 
ATOM     26  C   UNL     1      -0.958  11.463  21.476  0.00  0.00    +0.000 A 
ATOM     27  C   UNL     1       0.025  10.779  20.785  0.00  0.00    +0.000 A 
ATOM     28  O   UNL     1      -1.676  12.518  21.002  0.00  0.00    +0.000 OA
ATOM     29  C   UNL     1      -2.590  12.742  22.099  0.00  0.00    +0.000 C 
ATOM     30  O   UNL     1      -2.322  11.904  23.242  0.00  0.00    +0.000 OA
ENDBRANCH  21  22
ENDBRANCH   3  20
TORSDOF 8
ENDMDL
