MODEL 1
REMARK VINA RESULT:      -8.1      0.000      0.000
REMARK  Name = 
REMARK  5 active torsions:
REMARK  status: ('A' for Active; 'I' for Inactive)
REMARK    1  A    between atoms: C_2  and  C_3
REMARK    2  A    between atoms: C_3  and  C_4
REMARK    3  A    between atoms: C_15  and  C_16
REMARK    4  A    between atoms: C_16  and  O_17
REMARK    5  A    between atoms: O_17  and  C_18
REMARK                            x       y       z     vdW  Elec       q    Type
REMARK                         _______ _______ _______ _____ _____    ______ ____
ROOT
ATOM      1  O   UNL     1       4.998   7.046  17.456  0.00  0.00    +0.000 OA
ATOM      2  C   UNL     1       5.280   5.888  17.780  0.00  0.00    +0.000 C 
ATOM      3  N   UNL     1       4.413   5.118  18.526  0.00  0.00    +0.000 N 
ATOM      4  C   UNL     1       4.589   3.785  18.964  0.00  0.00    +0.000 C 
ATOM      5  C   UNL     1       3.260   3.525  19.636  0.00  0.00    +0.000 C 
ATOM      6  C   UNL     1       3.453   2.457  20.712  0.00  0.00    +0.000 C 
ATOM      7  C   UNL     1       2.281   2.690  21.615  0.00  0.00    +0.000 C 
ATOM      8  C   UNL     1       1.527   3.789  20.886  0.00  0.00    +0.000 C 
ATOM      9  C   UNL     1       2.663   4.846  20.373  0.00  0.00    +0.000 C 
ATOM     10  C   UNL     1       3.199   5.662  19.077  0.00  0.00    +0.000 C 
ENDROOT
BRANCH   2  11
ATOM     11  C   UNL     1       6.620   5.287  17.395  0.00  0.00    +0.000 C 
BRANCH  11  12
ATOM     12  C   UNL     1       6.570   4.831  15.979  0.00  0.00    +0.000 A 
ATOM     13  C   UNL     1       5.828   3.882  15.315  0.00  0.00    +0.000 A 
ATOM     14  C   UNL     1       6.260   3.916  13.965  0.00  0.00    +0.000 A 
ATOM     15  C   UNL     1       7.242   4.878  13.900  0.00  0.00    +0.000 A 
ATOM     16  O   UNL     1       7.436   5.441  15.120  0.00  0.00    +0.000 OA
ENDBRANCH  11  12
ENDBRANCH   2  11
BRANCH   9  17
ATOM     17  C   UNL     1       1.537   6.005  20.490  0.00  0.00    +0.000 C 
BRANCH  17  18
ATOM     18  O   UNL     1       2.183   7.235  20.096  0.00  0.00    +0.000 OA
BRANCH  18  19
ATOM     19  C   UNL     1       1.489   8.381  20.331  0.00  0.00    +0.000 A 
ATOM     20  C   UNL     1       1.125   8.620  21.653  0.00  0.00    +0.000 A 
ATOM     21  C   UNL     1       0.543   9.836  21.996  0.00  0.00    +0.000 A 
ATOM     22  C   UNL     1       0.350  10.771  20.995  0.00  0.00    +0.000 A 
ATOM     23  N   UNL     1       0.668  10.562  19.699  0.00  0.00    +0.000 NA
ATOM     24  C   UNL     1       1.235   9.374  19.395  0.00  0.00    +0.000 A 
ENDBRANCH  18  19
ENDBRANCH  17  18
ENDBRANCH   9  17
TORSDOF 5
ENDMDL
MODEL 2
REMARK VINA RESULT:      -8.0      1.183      1.645
REMARK  Name = 
REMARK  5 active torsions:
REMARK  status: ('A' for Active; 'I' for Inactive)
REMARK    1  A    between atoms: C_2  and  C_3
REMARK    2  A    between atoms: C_3  and  C_4
REMARK    3  A    between atoms: C_15  and  C_16
REMARK    4  A    between atoms: C_16  and  O_17
REMARK    5  A    between atoms: O_17  and  C_18
REMARK                            x       y       z     vdW  Elec       q    Type
REMARK                         _______ _______ _______ _____ _____    ______ ____
ROOT
ATOM      1  O   UNL     1       5.300   6.441  15.674  0.00  0.00    +0.000 OA
ATOM      2  C   UNL     1       5.306   5.344  16.243  0.00  0.00    +0.000 C 
ATOM      3  N   UNL     1       4.409   5.053  17.250  0.00  0.00    +0.000 N 
ATOM      4  C   UNL     1       4.287   3.851  17.985  0.00  0.00    +0.000 C 
ATOM      5  C   UNL     1       3.083   4.161  18.845  0.00  0.00    +0.000 C 
ATOM      6  C   UNL     1       3.165   3.330  20.125  0.00  0.00    +0.000 C 
ATOM      7  C   UNL     1       2.288   4.096  21.067  0.00  0.00    +0.000 C 
ATOM      8  C   UNL     1       1.747   5.201  20.175  0.00  0.00    +0.000 C 
ATOM      9  C   UNL     1       3.018   5.724  19.290  0.00  0.00    +0.000 C 
ATOM     10  C   UNL     1       3.514   6.048  17.780  0.00  0.00    +0.000 C 
ENDROOT
BRANCH   2  11
ATOM     11  C   UNL     1       6.334   4.291  15.873  0.00  0.00    +0.000 C 
BRANCH  11  12
ATOM     12  C   UNL     1       6.668   4.410  14.428  0.00  0.00    +0.000 A 
ATOM     13  C   UNL     1       6.177   3.812  13.290  0.00  0.00    +0.000 A 
ATOM     14  C   UNL     1       6.928   4.341  12.210  0.00  0.00    +0.000 A 
ATOM     15  C   UNL     1       7.830   5.220  12.764  0.00  0.00    +0.000 A 
ATOM     16  O   UNL     1       7.679   5.270  14.113  0.00  0.00    +0.000 OA
ENDBRANCH  11  12
ENDBRANCH   2  11
BRANCH   9  17
ATOM     17  C   UNL     1       2.297   7.173  19.238  0.00  0.00    +0.000 C 
BRANCH  17  18
ATOM     18  O   UNL     1       1.727   7.387  20.548  0.00  0.00    +0.000 OA
BRANCH  18  19
ATOM     19  C   UNL     1       1.318   8.654  20.826  0.00  0.00    +0.000 A 
ATOM     20  C   UNL     1       0.911   9.422  19.740  0.00  0.00    +0.000 A 
ATOM     21  C   UNL     1       0.343  10.673  19.958  0.00  0.00    +0.000 A 
ATOM     22  C   UNL     1       0.203  11.107  21.264  0.00  0.00    +0.000 A 
ATOM     23  N   UNL     1       0.610  10.398  22.339  0.00  0.00    +0.000 NA
ATOM     24  C   UNL     1       1.155   9.185  22.099  0.00  0.00    +0.000 A 
ENDBRANCH  18  19
ENDBRANCH  17  18
ENDBRANCH   9  17
TORSDOF 5
ENDMDL
MODEL 3
REMARK VINA RESULT:      -7.8      0.913      1.175
REMARK  Name = 
REMARK  5 active torsions:
REMARK  status: ('A' for Active; 'I' for Inactive)
REMARK    1  A    between atoms: C_2  and  C_3
REMARK    2  A    between atoms: C_3  and  C_4
REMARK    3  A    between atoms: C_15  and  C_16
REMARK    4  A    between atoms: C_16  and  O_17
REMARK    5  A    between atoms: O_17  and  C_18
REMARK                            x       y       z     vdW  Elec       q    Type
REMARK                         _______ _______ _______ _____ _____    ______ ____
ROOT
ATOM      1  O   UNL     1       5.071   7.090  17.169  0.00  0.00    +0.000 OA
ATOM      2  C   UNL     1       5.240   5.940  17.586  0.00  0.00    +0.000 C 
ATOM      3  N   UNL     1       4.283   5.306  18.351  0.00  0.00    +0.000 N 
ATOM      4  C   UNL     1       4.326   3.999  18.891  0.00  0.00    +0.000 C 
ATOM      5  C   UNL     1       2.959   3.906  19.528  0.00  0.00    +0.000 C 
ATOM      6  C   UNL     1       3.021   2.909  20.685  0.00  0.00    +0.000 C 
ATOM      7  C   UNL     1       1.846   3.310  21.522  0.00  0.00    +0.000 C 
ATOM      8  C   UNL     1       1.216   4.411  20.687  0.00  0.00    +0.000 C 
ATOM      9  C   UNL     1       2.457   5.325  20.144  0.00  0.00    +0.000 C 
ATOM     10  C   UNL     1       3.105   5.992  18.814  0.00  0.00    +0.000 C 
ENDROOT
BRANCH   2  11
ATOM     11  C   UNL     1       6.533   5.199  17.298  0.00  0.00    +0.000 C 
BRANCH  11  12
ATOM     12  C   UNL     1       6.582   4.827  15.858  0.00  0.00    +0.000 A 
ATOM     13  C   UNL     1       5.863   3.947  15.082  0.00  0.00    +0.000 A 
ATOM     14  C   UNL     1       6.403   4.042  13.774  0.00  0.00    +0.000 A 
ATOM     15  C   UNL     1       7.419   4.967  13.845  0.00  0.00    +0.000 A 
ATOM     16  O   UNL     1       7.534   5.452  15.108  0.00  0.00    +0.000 OA
ENDBRANCH  11  12
ENDBRANCH   2  11
BRANCH   9  17
ATOM     17  C   UNL     1       1.435   6.582  20.131  0.00  0.00    +0.000 C 
BRANCH  17  18
ATOM     18  O   UNL     1       2.131   7.674  20.770  0.00  0.00    +0.000 OA
BRANCH  18  19
ATOM     19  C   UNL     1       1.359   8.700  21.218  0.00  0.00    +0.000 A 
ATOM     20  C   UNL     1       0.532   9.304  20.276  0.00  0.00    +0.000 A 
ATOM     21  C   UNL     1      -0.392  10.260  20.686  0.00  0.00    +0.000 A 
ATOM     22  C   UNL     1      -0.452  10.573  22.032  0.00  0.00    +0.000 A 
ATOM     23  N   UNL     1       0.352  10.024  22.968  0.00  0.00    +0.000 NA
ATOM     24  C   UNL     1       1.238   9.097  22.542  0.00  0.00    +0.000 A 
ENDBRANCH  18  19
ENDBRANCH  17  18
ENDBRANCH   9  17
TORSDOF 5
ENDMDL
MODEL 4
REMARK VINA RESULT:      -7.8      2.400      7.238
REMARK  Name = 
REMARK  5 active torsions:
REMARK  status: ('A' for Active; 'I' for Inactive)
REMARK    1  A    between atoms: C_2  and  C_3
REMARK    2  A    between atoms: C_3  and  C_4
REMARK    3  A    between atoms: C_15  and  C_16
REMARK    4  A    between atoms: C_16  and  O_17
REMARK    5  A    between atoms: O_17  and  C_18
REMARK                            x       y       z     vdW  Elec       q    Type
REMARK                         _______ _______ _______ _____ _____    ______ ____
ROOT
ATOM      1  O   UNL     1       2.173   9.464  17.351  0.00  0.00    +0.000 OA
ATOM      2  C   UNL     1       1.780   9.105  18.466  0.00  0.00    +0.000 C 
ATOM      3  N   UNL     1       2.083   7.856  18.966  0.00  0.00    +0.000 N 
ATOM      4  C   UNL     1       1.716   7.307  20.217  0.00  0.00    +0.000 C 
ATOM      5  C   UNL     1       2.430   5.976  20.168  0.00  0.00    +0.000 C 
ATOM      6  C   UNL     1       1.680   4.982  21.054  0.00  0.00    +0.000 C 
ATOM      7  C   UNL     1       2.124   3.660  20.507  0.00  0.00    +0.000 C 
ATOM      8  C   UNL     1       3.137   4.072  19.453  0.00  0.00    +0.000 C 
ATOM      9  C   UNL     1       2.474   5.345  18.670  0.00  0.00    +0.000 C 
ATOM     10  C   UNL     1       2.756   6.862  18.171  0.00  0.00    +0.000 C 
ENDROOT
BRANCH   2  11
ATOM     11  C   UNL     1       0.910  10.022  19.306  0.00  0.00    +0.000 C 
BRANCH  11  12
ATOM     12  C   UNL     1      -0.316  10.380  18.542  0.00  0.00    +0.000 A 
ATOM     13  C   UNL     1      -1.095   9.707  17.630  0.00  0.00    +0.000 A 
ATOM     14  C   UNL     1      -2.125  10.604  17.251  0.00  0.00    +0.000 A 
ATOM     15  C   UNL     1      -1.900  11.766  17.953  0.00  0.00    +0.000 A 
ATOM     16  O   UNL     1      -0.803  11.639  18.743  0.00  0.00    +0.000 OA
ENDBRANCH  11  12
ENDBRANCH   2  11
BRANCH   9  17
ATOM     17  C   UNL     1       3.311   4.885  17.361  0.00  0.00    +0.000 C 
BRANCH  17  18
ATOM     18  O   UNL     1       4.672   5.312  17.583  0.00  0.00    +0.000 OA
BRANCH  18  19
ATOM     19  C   UNL     1       5.545   5.095  16.562  0.00  0.00    +0.000 A 
ATOM     20  C   UNL     1       5.065   4.346  15.492  0.00  0.00    +0.000 A 
ATOM     21  C   UNL     1       5.845   4.205  14.348  0.00  0.00    +0.000 A 
ATOM     22  C   UNL     1       7.082   4.824  14.322  0.00  0.00    +0.000 A 
ATOM     23  N   UNL     1       7.588   5.536  15.352  0.00  0.00    +0.000 NA
ATOM     24  C   UNL     1       6.807   5.660  16.449  0.00  0.00    +0.000 A 
ENDBRANCH  18  19
ENDBRANCH  17  18
ENDBRANCH   9  17
TORSDOF 5
ENDMDL
MODEL 5
REMARK VINA RESULT:      -7.7      1.210      1.580
REMARK  Name = 
REMARK  5 active torsions:
REMARK  status: ('A' for Active; 'I' for Inactive)
REMARK    1  A    between atoms: C_2  and  C_3
REMARK    2  A    between atoms: C_3  and  C_4
REMARK    3  A    between atoms: C_15  and  C_16
REMARK    4  A    between atoms: C_16  and  O_17
REMARK    5  A    between atoms: O_17  and  C_18
REMARK                            x       y       z     vdW  Elec       q    Type
REMARK                         _______ _______ _______ _____ _____    ______ ____
ROOT
ATOM      1  O   UNL     1       6.325   6.637  17.605  0.00  0.00    +0.000 OA
ATOM      2  C   UNL     1       6.087   5.436  17.443  0.00  0.00    +0.000 C 
ATOM      3  N   UNL     1       4.888   4.881  17.840  0.00  0.00    +0.000 N 
ATOM      4  C   UNL     1       4.468   3.536  17.716  0.00  0.00    +0.000 C 
ATOM      5  C   UNL     1       3.058   3.624  18.251  0.00  0.00    +0.000 C 
ATOM      6  C   UNL     1       2.659   2.262  18.818  0.00  0.00    +0.000 C 
ATOM      7  C   UNL     1       1.547   2.613  19.757  0.00  0.00    +0.000 C 
ATOM      8  C   UNL     1       1.394   4.107  19.530  0.00  0.00    +0.000 C 
ATOM      9  C   UNL     1       2.913   4.706  19.457  0.00  0.00    +0.000 C 
ATOM     10  C   UNL     1       3.910   5.637  18.578  0.00  0.00    +0.000 C 
ENDROOT
BRANCH   2  11
ATOM     11  C   UNL     1       7.133   4.520  16.834  0.00  0.00    +0.000 C 
BRANCH  11  12
ATOM     12  C   UNL     1       6.960   4.484  15.356  0.00  0.00    +0.000 A 
ATOM     13  C   UNL     1       6.128   3.782  14.516  0.00  0.00    +0.000 A 
ATOM     14  C   UNL     1       6.463   4.185  13.199  0.00  0.00    +0.000 A 
ATOM     15  C   UNL     1       7.481   5.101  13.325  0.00  0.00    +0.000 A 
ATOM     16  O   UNL     1       7.790   5.292  14.634  0.00  0.00    +0.000 OA
ENDBRANCH  11  12
ENDBRANCH   2  11
BRANCH   9  17
ATOM     17  C   UNL     1       2.317   6.097  20.036  0.00  0.00    +0.000 C 
BRANCH  17  18
ATOM     18  O   UNL     1       2.275   7.012  18.919  0.00  0.00    +0.000 OA
BRANCH  18  19
ATOM     19  C   UNL     1       1.862   8.279  19.195  0.00  0.00    +0.000 A 
ATOM     20  C   UNL     1       1.976   9.202  18.160  0.00  0.00    +0.000 A 
ATOM     21  C   UNL     1       1.441  10.477  18.315  0.00  0.00    +0.000 A 
ATOM     22  C   UNL     1       0.808  10.777  19.508  0.00  0.00    +0.000 A 
ATOM     23  N   UNL     1       0.702   9.914  20.541  0.00  0.00    +0.000 NA
ATOM     24  C   UNL     1       1.227   8.682  20.362  0.00  0.00    +0.000 A 
ENDBRANCH  18  19
ENDBRANCH  17  18
ENDBRANCH   9  17
TORSDOF 5
ENDMDL
MODEL 6
REMARK VINA RESULT:      -7.7      1.962      7.031
REMARK  Name = 
REMARK  5 active torsions:
REMARK  status: ('A' for Active; 'I' for Inactive)
REMARK    1  A    between atoms: C_2  and  C_3
REMARK    2  A    between atoms: C_3  and  C_4
REMARK    3  A    between atoms: C_15  and  C_16
REMARK    4  A    between atoms: C_16  and  O_17
REMARK    5  A    between atoms: O_17  and  C_18
REMARK                            x       y       z     vdW  Elec       q    Type
REMARK                         _______ _______ _______ _____ _____    ______ ____
ROOT
ATOM      1  O   UNL     1       2.439   8.734  18.287  0.00  0.00    +0.000 OA
ATOM      2  C   UNL     1       1.986   8.182  19.295  0.00  0.00    +0.000 C 
ATOM      3  N   UNL     1       2.201   6.842  19.538  0.00  0.00    +0.000 N 
ATOM      4  C   UNL     1       1.758   6.075  20.642  0.00  0.00    +0.000 C 
ATOM      5  C   UNL     1       2.398   4.740  20.340  0.00  0.00    +0.000 C 
ATOM      6  C   UNL     1       1.562   3.635  20.986  0.00  0.00    +0.000 C 
ATOM      7  C   UNL     1       1.951   2.426  20.193  0.00  0.00    +0.000 C 
ATOM      8  C   UNL     1       3.023   2.979  19.270  0.00  0.00    +0.000 C 
ATOM      9  C   UNL     1       2.462   4.423  18.746  0.00  0.00    +0.000 C 
ATOM     10  C   UNL     1       2.845   5.989  18.574  0.00  0.00    +0.000 C 
ENDROOT
BRANCH   2  11
ATOM     11  C   UNL     1       1.138   8.962  20.284  0.00  0.00    +0.000 C 
BRANCH  11  12
ATOM     12  C   UNL     1       0.498  10.112  19.589  0.00  0.00    +0.000 A 
ATOM     13  C   UNL     1      -0.610  10.234  18.783  0.00  0.00    +0.000 A 
ATOM     14  C   UNL     1      -0.687  11.602  18.421  0.00  0.00    +0.000 A 
ATOM     15  C   UNL     1       0.383  12.220  19.026  0.00  0.00    +0.000 A 
ATOM     16  O   UNL     1       1.109  11.322  19.741  0.00  0.00    +0.000 OA
ENDBRANCH  11  12
ENDBRANCH   2  11
BRANCH   9  17
ATOM     17  C   UNL     1       3.318   4.186  17.392  0.00  0.00    +0.000 C 
BRANCH  17  18
ATOM     18  O   UNL     1       4.708   4.235  17.780  0.00  0.00    +0.000 OA
BRANCH  18  19
ATOM     19  C   UNL     1       5.606   4.445  16.780  0.00  0.00    +0.000 A 
ATOM     20  C   UNL     1       5.423   3.694  15.623  0.00  0.00    +0.000 A 
ATOM     21  C   UNL     1       6.208   3.955  14.504  0.00  0.00    +0.000 A 
ATOM     22  C   UNL     1       7.149   4.966  14.589  0.00  0.00    +0.000 A 
ATOM     23  N   UNL     1       7.368   5.697  15.704  0.00  0.00    +0.000 NA
ATOM     24  C   UNL     1       6.590   5.424  16.775  0.00  0.00    +0.000 A 
ENDBRANCH  18  19
ENDBRANCH  17  18
ENDBRANCH   9  17
TORSDOF 5
ENDMDL
MODEL 7
REMARK VINA RESULT:      -7.5      1.199      1.640
REMARK  Name = 
REMARK  5 active torsions:
REMARK  status: ('A' for Active; 'I' for Inactive)
REMARK    1  A    between atoms: C_2  and  C_3
REMARK    2  A    between atoms: C_3  and  C_4
REMARK    3  A    between atoms: C_15  and  C_16
REMARK    4  A    between atoms: C_16  and  O_17
REMARK    5  A    between atoms: O_17  and  C_18
REMARK                            x       y       z     vdW  Elec       q    Type
REMARK                         _______ _______ _______ _____ _____    ______ ____
ROOT
ATOM      1  O   UNL     1       5.490   6.796  15.436  0.00  0.00    +0.000 OA
ATOM      2  C   UNL     1       5.649   5.718  16.019  0.00  0.00    +0.000 C 
ATOM      3  N   UNL     1       4.779   5.298  17.003  0.00  0.00    +0.000 N 
ATOM      4  C   UNL     1       4.823   4.098  17.749  0.00  0.00    +0.000 C 
ATOM      5  C   UNL     1       3.560   4.222  18.570  0.00  0.00    +0.000 C 
ATOM      6  C   UNL     1       3.732   3.425  19.863  0.00  0.00    +0.000 C 
ATOM      7  C   UNL     1       2.717   4.052  20.769  0.00  0.00    +0.000 C 
ATOM      8  C   UNL     1       2.038   5.051  19.849  0.00  0.00    +0.000 C 
ATOM      9  C   UNL     1       3.239   5.760  18.994  0.00  0.00    +0.000 C 
ATOM     10  C   UNL     1       3.724   6.145  17.495  0.00  0.00    +0.000 C 
ENDROOT
BRANCH   2  11
ATOM     11  C   UNL     1       6.840   4.835  15.692  0.00  0.00    +0.000 C 
BRANCH  11  12
ATOM     12  C   UNL     1       6.833   4.510  14.240  0.00  0.00    +0.000 A 
ATOM     13  C   UNL     1       7.592   4.927  13.172  0.00  0.00    +0.000 A 
ATOM     14  C   UNL     1       7.078   4.255  12.034  0.00  0.00    +0.000 A 
ATOM     15  C   UNL     1       6.035   3.480  12.486  0.00  0.00    +0.000 A 
ATOM     16  O   UNL     1       5.879   3.626  13.827  0.00  0.00    +0.000 OA
ENDBRANCH  11  12
ENDBRANCH   2  11
BRANCH   9  17
ATOM     17  C   UNL     1       2.302   7.078  18.903  0.00  0.00    +0.000 C 
BRANCH  17  18
ATOM     18  O   UNL     1       1.996   7.449  20.265  0.00  0.00    +0.000 OA
BRANCH  18  19
ATOM     19  C   UNL     1       1.264   8.584  20.429  0.00  0.00    +0.000 A 
ATOM     20  C   UNL     1       0.813   8.844  21.719  0.00  0.00    +0.000 A 
ATOM     21  C   UNL     1       0.186  10.054  21.996  0.00  0.00    +0.000 A 
ATOM     22  C   UNL     1       0.036  10.963  20.963  0.00  0.00    +0.000 A 
ATOM     23  N   UNL     1       0.440  10.732  19.695  0.00  0.00    +0.000 NA
ATOM     24  C   UNL     1       1.049   9.550  19.455  0.00  0.00    +0.000 A 
ENDBRANCH  18  19
ENDBRANCH  17  18
ENDBRANCH   9  17
TORSDOF 5
ENDMDL
MODEL 8
REMARK VINA RESULT:      -7.3      1.342      1.560
REMARK  Name = 
REMARK  5 active torsions:
REMARK  status: ('A' for Active; 'I' for Inactive)
REMARK    1  A    between atoms: C_2  and  C_3
REMARK    2  A    between atoms: C_3  and  C_4
REMARK    3  A    between atoms: C_15  and  C_16
REMARK    4  A    between atoms: C_16  and  O_17
REMARK    5  A    between atoms: O_17  and  C_18
REMARK                            x       y       z     vdW  Elec       q    Type
REMARK                         _______ _______ _______ _____ _____    ______ ____
ROOT
ATOM      1  O   UNL     1       5.105   5.829  16.468  0.00  0.00    +0.000 OA
ATOM      2  C   UNL     1       4.864   4.644  16.722  0.00  0.00    +0.000 C 
ATOM      3  N   UNL     1       3.856   4.286  17.592  0.00  0.00    +0.000 N 
ATOM      4  C   UNL     1       3.458   2.984  17.974  0.00  0.00    +0.000 C 
ATOM      5  C   UNL     1       2.271   3.293  18.857  0.00  0.00    +0.000 C 
ATOM      6  C   UNL     1       2.101   2.160  19.869  0.00  0.00    +0.000 C 
ATOM      7  C   UNL     1       1.312   2.815  20.960  0.00  0.00    +0.000 C 
ATOM      8  C   UNL     1       1.054   4.197  20.386  0.00  0.00    +0.000 C 
ATOM      9  C   UNL     1       2.464   4.668  19.705  0.00  0.00    +0.000 C 
ATOM     10  C   UNL     1       3.124   5.267  18.349  0.00  0.00    +0.000 C 
ENDROOT
BRANCH   2  11
ATOM     11  C   UNL     1       5.705   3.540  16.107  0.00  0.00    +0.000 C 
BRANCH  11  12
ATOM     12  C   UNL     1       6.253   4.002  14.803  0.00  0.00    +0.000 A 
ATOM     13  C   UNL     1       5.907   3.767  13.492  0.00  0.00    +0.000 A 
ATOM     14  C   UNL     1       6.834   4.492  12.702  0.00  0.00    +0.000 A 
ATOM     15  C   UNL     1       7.687   5.113  13.585  0.00  0.00    +0.000 A 
ATOM     16  O   UNL     1       7.341   4.823  14.865  0.00  0.00    +0.000 OA
ENDBRANCH  11  12
ENDBRANCH   2  11
BRANCH   9  17
ATOM     17  C   UNL     1       2.030   6.195  20.027  0.00  0.00    +0.000 C 
BRANCH  17  18
ATOM     18  O   UNL     1       2.562   7.000  18.953  0.00  0.00    +0.000 OA
BRANCH  18  19
ATOM     19  C   UNL     1       2.042   8.251  18.824  0.00  0.00    +0.000 A 
ATOM     20  C   UNL     1       1.310   8.727  19.907  0.00  0.00    +0.000 A 
ATOM     21  C   UNL     1       0.871  10.047  19.912  0.00  0.00    +0.000 A 
ATOM     22  C   UNL     1       1.187  10.843  18.826  0.00  0.00    +0.000 A 
ATOM     23  N   UNL     1       1.875  10.406  17.748  0.00  0.00    +0.000 NA
ATOM     24  C   UNL     1       2.291   9.121  17.771  0.00  0.00    +0.000 A 
ENDBRANCH  18  19
ENDBRANCH  17  18
ENDBRANCH   9  17
TORSDOF 5
ENDMDL
MODEL 9
REMARK VINA RESULT:      -7.3      1.602      2.199
REMARK  Name = 
REMARK  5 active torsions:
REMARK  status: ('A' for Active; 'I' for Inactive)
REMARK    1  A    between atoms: C_2  and  C_3
REMARK    2  A    between atoms: C_3  and  C_4
REMARK    3  A    between atoms: C_15  and  C_16
REMARK    4  A    between atoms: C_16  and  O_17
REMARK    5  A    between atoms: O_17  and  C_18
REMARK                            x       y       z     vdW  Elec       q    Type
REMARK                         _______ _______ _______ _____ _____    ______ ____
ROOT
ATOM      1  O   UNL     1       3.716   7.628  17.145  0.00  0.00    +0.000 OA
ATOM      2  C   UNL     1       4.168   6.495  17.338  0.00  0.00    +0.000 C 
ATOM      3  N   UNL     1       3.556   5.614  18.204  0.00  0.00    +0.000 N 
ATOM      4  C   UNL     1       3.946   4.293  18.522  0.00  0.00    +0.000 C 
ATOM      5  C   UNL     1       2.821   3.873  19.440  0.00  0.00    +0.000 C 
ATOM      6  C   UNL     1       3.338   2.794  20.391  0.00  0.00    +0.000 C 
ATOM      7  C   UNL     1       2.369   2.873  21.530  0.00  0.00    +0.000 C 
ATOM      8  C   UNL     1       1.377   3.912  21.036  0.00  0.00    +0.000 C 
ATOM      9  C   UNL     1       2.273   5.099  20.358  0.00  0.00    +0.000 C 
ATOM     10  C   UNL     1       2.441   6.010  19.026  0.00  0.00    +0.000 C 
ENDROOT
BRANCH   2  11
ATOM     11  C   UNL     1       5.446   6.050  16.650  0.00  0.00    +0.000 C 
BRANCH  11  12
ATOM     12  C   UNL     1       6.618   6.655  17.340  0.00  0.00    +0.000 A 
ATOM     13  C   UNL     1       7.441   6.232  18.357  0.00  0.00    +0.000 A 
ATOM     14  C   UNL     1       8.373   7.278  18.573  0.00  0.00    +0.000 A 
ATOM     15  C   UNL     1       8.049   8.271  17.677  0.00  0.00    +0.000 A 
ATOM     16  O   UNL     1       6.984   7.901  16.921  0.00  0.00    +0.000 OA
ENDBRANCH  11  12
ENDBRANCH   2  11
BRANCH   9  17
ATOM     17  C   UNL     1       1.093   6.130  20.770  0.00  0.00    +0.000 C 
BRANCH  17  18
ATOM     18  O   UNL     1       1.533   7.437  20.340  0.00  0.00    +0.000 OA
BRANCH  18  19
ATOM     19  C   UNL     1       0.876   8.499  20.880  0.00  0.00    +0.000 A 
ATOM     20  C   UNL     1       0.059   8.227  21.972  0.00  0.00    +0.000 A 
ATOM     21  C   UNL     1      -0.529   9.278  22.668  0.00  0.00    +0.000 A 
ATOM     22  C   UNL     1      -0.273  10.568  22.240  0.00  0.00    +0.000 A 
ATOM     23  N   UNL     1       0.495  10.866  21.169  0.00  0.00    +0.000 NA
ATOM     24  C   UNL     1       1.056   9.826  20.514  0.00  0.00    +0.000 A 
ENDBRANCH  18  19
ENDBRANCH  17  18
ENDBRANCH   9  17
TORSDOF 5
ENDMDL
