MODEL 1
REMARK VINA RESULT:      -7.6      0.000      0.000
REMARK  Name = 
REMARK  6 active torsions:
REMARK  status: ('A' for Active; 'I' for Inactive)
REMARK    1  A    between atoms: C_1  and  C_2
REMARK    2  A    between atoms: C_5  and  C_6
REMARK    3  A    between atoms: C_14  and  C_15
REMARK    4  A    between atoms: C_15  and  O_17
REMARK    5  A    between atoms: O_17  and  C_18
REMARK    6  A    between atoms: C_18  and  C_19
REMARK                            x       y       z     vdW  Elec       q    Type
REMARK                         _______ _______ _______ _____ _____    ______ ____
ROOT
ATOM      1  C   UNL     1       1.795   3.005  21.485  0.00  0.00    +0.000 C 
ATOM      2  C   UNL     1       2.909   3.196  20.534  0.00  0.00    +0.000 A 
ATOM      3  O   UNL     1       3.999   2.418  20.726  0.00  0.00    +0.000 OA
ATOM      4  N   UNL     1       4.953   2.713  19.782  0.00  0.00    +0.000 NA
ATOM      5  C   UNL     1       4.432   3.654  18.977  0.00  0.00    +0.000 A 
ATOM      6  C   UNL     1       3.117   4.010  19.438  0.00  0.00    +0.000 A 
ENDROOT
BRANCH   5   7
ATOM      7  C   UNL     1       5.217   4.219  17.868  0.00  0.00    +0.000 A 
ATOM      8  C   UNL     1       4.827   3.959  16.546  0.00  0.00    +0.000 A 
ATOM      9  F   UNL     1       3.689   3.302  16.293  0.00  0.00    +0.000 F 
ATOM     10  C   UNL     1       5.569   4.384  15.444  0.00  0.00    +0.000 A 
ATOM     11  C   UNL     1       6.707   5.150  15.637  0.00  0.00    +0.000 A 
ATOM     12  C   UNL     1       7.085   5.489  16.935  0.00  0.00    +0.000 A 
ATOM     13  C   UNL     1       6.357   5.022  18.046  0.00  0.00    +0.000 A 
ATOM     14 CL   UNL     1       6.982   5.479  19.594  0.00  0.00    +0.000 Cl
ENDBRANCH   5   7
BRANCH   6  15
ATOM     15  C   UNL     1       2.212   5.011  18.933  0.00  0.00    +0.000 C 
ATOM     16  O   UNL     1       1.517   4.864  17.939  0.00  0.00    +0.000 OA
BRANCH  15  17
ATOM     17  O   UNL     1       2.321   6.180  19.627  0.00  0.00    +0.000 OA
BRANCH  17  18
ATOM     18  C   UNL     1       2.673   7.328  18.846  0.00  0.00    +0.000 C 
BRANCH  18  19
ATOM     19  C   UNL     1       1.757   8.433  19.268  0.00  0.00    +0.000 A 
ATOM     20  C   UNL     1       1.208   8.692  20.511  0.00  0.00    +0.000 A 
ATOM     21  N   UNL     1       0.332   9.761  20.574  0.00  0.00    +0.000 NA
ATOM     22  C   UNL     1       0.234  10.286  19.379  0.00  0.00    +0.000 A 
ATOM     23 CL   UNL     1      -0.790  11.619  19.037  0.00  0.00    +0.000 Cl
ATOM     24  S   UNL     1       1.176   9.601  18.143  0.00  0.00    +0.000 S 
ENDBRANCH  18  19
ENDBRANCH  17  18
ENDBRANCH  15  17
ENDBRANCH   6  15
TORSDOF 5
ENDMDL
MODEL 2
REMARK VINA RESULT:      -7.6      0.987      1.060
REMARK  Name = 
REMARK  6 active torsions:
REMARK  status: ('A' for Active; 'I' for Inactive)
REMARK    1  A    between atoms: C_1  and  C_2
REMARK    2  A    between atoms: C_5  and  C_6
REMARK    3  A    between atoms: C_14  and  C_15
REMARK    4  A    between atoms: C_15  and  O_17
REMARK    5  A    between atoms: O_17  and  C_18
REMARK    6  A    between atoms: C_18  and  C_19
REMARK                            x       y       z     vdW  Elec       q    Type
REMARK                         _______ _______ _______ _____ _____    ______ ____
ROOT
ATOM      1  C   UNL     1       1.349   3.136  20.886  0.00  0.00    +0.000 C 
ATOM      2  C   UNL     1       2.591   3.304  20.105  0.00  0.00    +0.000 A 
ATOM      3  O   UNL     1       3.685   2.661  20.576  0.00  0.00    +0.000 OA
ATOM      4  N   UNL     1       4.761   2.919  19.763  0.00  0.00    +0.000 NA
ATOM      5  C   UNL     1       4.320   3.696  18.760  0.00  0.00    +0.000 A 
ATOM      6  C   UNL     1       2.924   3.986  18.952  0.00  0.00    +0.000 A 
ENDROOT
BRANCH   5   7
ATOM      7  C   UNL     1       5.240   4.183  17.719  0.00  0.00    +0.000 A 
ATOM      8  C   UNL     1       4.984   3.875  16.375  0.00  0.00    +0.000 A 
ATOM      9  F   UNL     1       3.856   3.245  16.027  0.00  0.00    +0.000 F 
ATOM     10  C   UNL     1       5.855   4.224  15.343  0.00  0.00    +0.000 A 
ATOM     11  C   UNL     1       6.994   4.961  15.626  0.00  0.00    +0.000 A 
ATOM     12  C   UNL     1       7.243   5.347  16.942  0.00  0.00    +0.000 A 
ATOM     13  C   UNL     1       6.384   4.956  17.985  0.00  0.00    +0.000 A 
ATOM     14 CL   UNL     1       6.856   5.464  19.572  0.00  0.00    +0.000 Cl
ENDBRANCH   5   7
BRANCH   6  15
ATOM     15  C   UNL     1       2.050   4.826  18.172  0.00  0.00    +0.000 C 
ATOM     16  O   UNL     1       1.131   4.405  17.486  0.00  0.00    +0.000 OA
BRANCH  15  17
ATOM     17  O   UNL     1       2.453   6.129  18.199  0.00  0.00    +0.000 OA
BRANCH  17  18
ATOM     18  C   UNL     1       2.455   6.745  19.492  0.00  0.00    +0.000 C 
BRANCH  18  19
ATOM     19  C   UNL     1       1.863   8.108  19.319  0.00  0.00    +0.000 A 
ATOM     20  C   UNL     1       1.906   8.952  18.224  0.00  0.00    +0.000 A 
ATOM     21  N   UNL     1       1.317  10.192  18.392  0.00  0.00    +0.000 NA
ATOM     22  C   UNL     1       0.843  10.263  19.611  0.00  0.00    +0.000 A 
ATOM     23 CL   UNL     1       0.065  11.665  20.220  0.00  0.00    +0.000 Cl
ATOM     24  S   UNL     1       1.017   8.892  20.599  0.00  0.00    +0.000 S 
ENDBRANCH  18  19
ENDBRANCH  17  18
ENDBRANCH  15  17
ENDBRANCH   6  15
TORSDOF 5
ENDMDL
MODEL 3
REMARK VINA RESULT:      -7.5      2.559      4.233
REMARK  Name = 
REMARK  6 active torsions:
REMARK  status: ('A' for Active; 'I' for Inactive)
REMARK    1  A    between atoms: C_1  and  C_2
REMARK    2  A    between atoms: C_5  and  C_6
REMARK    3  A    between atoms: C_14  and  C_15
REMARK    4  A    between atoms: C_15  and  O_17
REMARK    5  A    between atoms: O_17  and  C_18
REMARK    6  A    between atoms: C_18  and  C_19
REMARK                            x       y       z     vdW  Elec       q    Type
REMARK                         _______ _______ _______ _____ _____    ______ ____
ROOT
ATOM      1  C   UNL     1       7.262   6.585  17.983  0.00  0.00    +0.000 C 
ATOM      2  C   UNL     1       6.190   5.677  18.438  0.00  0.00    +0.000 A 
ATOM      3  O   UNL     1       6.589   4.554  19.078  0.00  0.00    +0.000 OA
ATOM      4  N   UNL     1       5.492   3.804  19.428  0.00  0.00    +0.000 NA
ATOM      5  C   UNL     1       4.405   4.488  19.034  0.00  0.00    +0.000 A 
ATOM      6  C   UNL     1       4.811   5.699  18.371  0.00  0.00    +0.000 A 
ENDROOT
BRANCH   5   7
ATOM      7  C   UNL     1       3.054   3.941  19.233  0.00  0.00    +0.000 A 
ATOM      8  C   UNL     1       2.410   4.127  20.466  0.00  0.00    +0.000 A 
ATOM      9  F   UNL     1       2.968   4.892  21.412  0.00  0.00    +0.000 F 
ATOM     10  C   UNL     1       1.169   3.564  20.761  0.00  0.00    +0.000 A 
ATOM     11  C   UNL     1       0.496   2.840  19.789  0.00  0.00    +0.000 A 
ATOM     12  C   UNL     1       1.072   2.695  18.529  0.00  0.00    +0.000 A 
ATOM     13  C   UNL     1       2.344   3.229  18.250  0.00  0.00    +0.000 A 
ATOM     14 CL   UNL     1       2.952   2.919  16.659  0.00  0.00    +0.000 Cl
ENDBRANCH   5   7
BRANCH   6  15
ATOM     15  C   UNL     1       4.002   6.704  17.731  0.00  0.00    +0.000 C 
ATOM     16  O   UNL     1       4.263   7.203  16.647  0.00  0.00    +0.000 OA
BRANCH  15  17
ATOM     17  O   UNL     1       2.982   7.116  18.539  0.00  0.00    +0.000 OA
BRANCH  17  18
ATOM     18  C   UNL     1       2.199   8.204  18.035  0.00  0.00    +0.000 C 
BRANCH  18  19
ATOM     19  C   UNL     1       1.534   8.838  19.215  0.00  0.00    +0.000 A 
ATOM     20  C   UNL     1       0.953  10.089  19.329  0.00  0.00    +0.000 A 
ATOM     21  N   UNL     1       0.475  10.421  20.584  0.00  0.00    +0.000 NA
ATOM     22  C   UNL     1       0.705   9.418  21.393  0.00  0.00    +0.000 A 
ATOM     23 CL   UNL     1       0.288   9.459  23.056  0.00  0.00    +0.000 Cl
ATOM     24  S   UNL     1       1.443   8.036  20.737  0.00  0.00    +0.000 S 
ENDBRANCH  18  19
ENDBRANCH  17  18
ENDBRANCH  15  17
ENDBRANCH   6  15
TORSDOF 5
ENDMDL
MODEL 4
REMARK VINA RESULT:      -7.4      2.077      3.678
REMARK  Name = 
REMARK  6 active torsions:
REMARK  status: ('A' for Active; 'I' for Inactive)
REMARK    1  A    between atoms: C_1  and  C_2
REMARK    2  A    between atoms: C_5  and  C_6
REMARK    3  A    between atoms: C_14  and  C_15
REMARK    4  A    between atoms: C_15  and  O_17
REMARK    5  A    between atoms: O_17  and  C_18
REMARK    6  A    between atoms: C_18  and  C_19
REMARK                            x       y       z     vdW  Elec       q    Type
REMARK                         _______ _______ _______ _____ _____    ______ ____
ROOT
ATOM      1  C   UNL     1       7.375   6.727  18.145  0.00  0.00    +0.000 C 
ATOM      2  C   UNL     1       6.341   5.733  18.495  0.00  0.00    +0.000 A 
ATOM      3  O   UNL     1       6.757   4.667  19.218  0.00  0.00    +0.000 OA
ATOM      4  N   UNL     1       5.697   3.825  19.456  0.00  0.00    +0.000 NA
ATOM      5  C   UNL     1       4.611   4.394  18.907  0.00  0.00    +0.000 A 
ATOM      6  C   UNL     1       4.985   5.623  18.259  0.00  0.00    +0.000 A 
ENDROOT
BRANCH   5   7
ATOM      7  C   UNL     1       3.301   3.727  18.957  0.00  0.00    +0.000 A 
ATOM      8  C   UNL     1       3.007   2.714  18.031  0.00  0.00    +0.000 A 
ATOM      9  F   UNL     1       3.948   2.278  17.185  0.00  0.00    +0.000 F 
ATOM     10  C   UNL     1       1.758   2.098  17.959  0.00  0.00    +0.000 A 
ATOM     11  C   UNL     1       0.771   2.439  18.869  0.00  0.00    +0.000 A 
ATOM     12  C   UNL     1       1.051   3.389  19.850  0.00  0.00    +0.000 A 
ATOM     13  C   UNL     1       2.298   4.039  19.893  0.00  0.00    +0.000 A 
ATOM     14 CL   UNL     1       2.476   5.235  21.132  0.00  0.00    +0.000 Cl
ENDBRANCH   5   7
BRANCH   6  15
ATOM     15  C   UNL     1       4.175   6.533  17.489  0.00  0.00    +0.000 C 
ATOM     16  O   UNL     1       4.438   6.884  16.349  0.00  0.00    +0.000 OA
BRANCH  15  17
ATOM     17  O   UNL     1       3.152   7.044  18.233  0.00  0.00    +0.000 OA
BRANCH  17  18
ATOM     18  C   UNL     1       2.551   8.236  17.714  0.00  0.00    +0.000 C 
BRANCH  18  19
ATOM     19  C   UNL     1       1.764   8.843  18.832  0.00  0.00    +0.000 A 
ATOM     20  C   UNL     1       1.571   8.381  20.122  0.00  0.00    +0.000 A 
ATOM     21  N   UNL     1       0.726   9.137  20.915  0.00  0.00    +0.000 NA
ATOM     22  C   UNL     1       0.295  10.152  20.208  0.00  0.00    +0.000 A 
ATOM     23 CL   UNL     1      -0.809  11.308  20.832  0.00  0.00    +0.000 Cl
ATOM     24  S   UNL     1       0.875  10.303  18.620  0.00  0.00    +0.000 S 
ENDBRANCH  18  19
ENDBRANCH  17  18
ENDBRANCH  15  17
ENDBRANCH   6  15
TORSDOF 5
ENDMDL
MODEL 5
REMARK VINA RESULT:      -7.3      2.255      3.789
REMARK  Name = 
REMARK  6 active torsions:
REMARK  status: ('A' for Active; 'I' for Inactive)
REMARK    1  A    between atoms: C_1  and  C_2
REMARK    2  A    between atoms: C_5  and  C_6
REMARK    3  A    between atoms: C_14  and  C_15
REMARK    4  A    between atoms: C_15  and  O_17
REMARK    5  A    between atoms: O_17  and  C_18
REMARK    6  A    between atoms: C_18  and  C_19
REMARK                            x       y       z     vdW  Elec       q    Type
REMARK                         _______ _______ _______ _____ _____    ______ ____
ROOT
ATOM      1  C   UNL     1       7.605   6.745  18.207  0.00  0.00    +0.000 C 
ATOM      2  C   UNL     1       6.520   5.807  18.559  0.00  0.00    +0.000 A 
ATOM      3  O   UNL     1       6.844   4.815  19.422  0.00  0.00    +0.000 OA
ATOM      4  N   UNL     1       5.748   4.017  19.644  0.00  0.00    +0.000 NA
ATOM      5  C   UNL     1       4.729   4.543  18.944  0.00  0.00    +0.000 A 
ATOM      6  C   UNL     1       5.189   5.692  18.212  0.00  0.00    +0.000 A 
ENDROOT
BRANCH   5   7
ATOM      7  C   UNL     1       3.404   3.902  18.940  0.00  0.00    +0.000 A 
ATOM      8  C   UNL     1       3.143   2.864  18.033  0.00  0.00    +0.000 A 
ATOM      9  F   UNL     1       4.121   2.381  17.257  0.00  0.00    +0.000 F 
ATOM     10  C   UNL     1       1.887   2.270  17.909  0.00  0.00    +0.000 A 
ATOM     11  C   UNL     1       0.857   2.661  18.749  0.00  0.00    +0.000 A 
ATOM     12  C   UNL     1       1.100   3.639  19.712  0.00  0.00    +0.000 A 
ATOM     13  C   UNL     1       2.357   4.266  19.805  0.00  0.00    +0.000 A 
ATOM     14 CL   UNL     1       2.488   5.500  21.012  0.00  0.00    +0.000 Cl
ENDBRANCH   5   7
BRANCH   6  15
ATOM     15  C   UNL     1       4.473   6.530  17.283  0.00  0.00    +0.000 C 
ATOM     16  O   UNL     1       4.534   6.411  16.069  0.00  0.00    +0.000 OA
BRANCH  15  17
ATOM     17  O   UNL     1       3.821   7.544  17.923  0.00  0.00    +0.000 OA
BRANCH  17  18
ATOM     18  C   UNL     1       2.395   7.426  17.967  0.00  0.00    +0.000 C 
BRANCH  18  19
ATOM     19  C   UNL     1       1.871   8.731  18.477  0.00  0.00    +0.000 A 
ATOM     20  C   UNL     1       1.923   9.986  17.896  0.00  0.00    +0.000 A 
ATOM     21  N   UNL     1       1.408  11.024  18.651  0.00  0.00    +0.000 NA
ATOM     22  C   UNL     1       0.979  10.535  19.788  0.00  0.00    +0.000 A 
ATOM     23 CL   UNL     1       0.298  11.517  21.018  0.00  0.00    +0.000 Cl
ATOM     24  S   UNL     1       1.112   8.857  20.018  0.00  0.00    +0.000 S 
ENDBRANCH  18  19
ENDBRANCH  17  18
ENDBRANCH  15  17
ENDBRANCH   6  15
TORSDOF 5
ENDMDL
MODEL 6
REMARK VINA RESULT:      -7.2      2.521      4.116
REMARK  Name = 
REMARK  6 active torsions:
REMARK  status: ('A' for Active; 'I' for Inactive)
REMARK    1  A    between atoms: C_1  and  C_2
REMARK    2  A    between atoms: C_5  and  C_6
REMARK    3  A    between atoms: C_14  and  C_15
REMARK    4  A    between atoms: C_15  and  O_17
REMARK    5  A    between atoms: O_17  and  C_18
REMARK    6  A    between atoms: C_18  and  C_19
REMARK                            x       y       z     vdW  Elec       q    Type
REMARK                         _______ _______ _______ _____ _____    ______ ____
ROOT
ATOM      1  C   UNL     1       7.618   6.592  18.082  0.00  0.00    +0.000 C 
ATOM      2  C   UNL     1       6.493   5.754  18.545  0.00  0.00    +0.000 A 
ATOM      3  O   UNL     1       6.806   4.752  19.399  0.00  0.00    +0.000 OA
ATOM      4  N   UNL     1       5.670   4.052  19.730  0.00  0.00    +0.000 NA
ATOM      5  C   UNL     1       4.643   4.651  19.106  0.00  0.00    +0.000 A 
ATOM      6  C   UNL     1       5.132   5.747  18.312  0.00  0.00    +0.000 A 
ENDROOT
BRANCH   5   7
ATOM      7  C   UNL     1       3.274   4.125  19.227  0.00  0.00    +0.000 A 
ATOM      8  C   UNL     1       2.357   4.776  20.066  0.00  0.00    +0.000 A 
ATOM      9  F   UNL     1       2.686   5.929  20.662  0.00  0.00    +0.000 F 
ATOM     10  C   UNL     1       1.072   4.288  20.302  0.00  0.00    +0.000 A 
ATOM     11  C   UNL     1       0.639   3.150  19.641  0.00  0.00    +0.000 A 
ATOM     12  C   UNL     1       1.497   2.517  18.744  0.00  0.00    +0.000 A 
ATOM     13  C   UNL     1       2.808   2.989  18.542  0.00  0.00    +0.000 A 
ATOM     14 CL   UNL     1       3.773   2.065  17.441  0.00  0.00    +0.000 Cl
ENDBRANCH   5   7
BRANCH   6  15
ATOM     15  C   UNL     1       4.411   6.627  17.428  0.00  0.00    +0.000 C 
ATOM     16  O   UNL     1       4.494   6.590  16.209  0.00  0.00    +0.000 OA
BRANCH  15  17
ATOM     17  O   UNL     1       3.726   7.582  18.121  0.00  0.00    +0.000 OA
BRANCH  17  18
ATOM     18  C   UNL     1       2.311   7.604  17.901  0.00  0.00    +0.000 C 
BRANCH  18  19
ATOM     19  C   UNL     1       1.806   8.888  18.478  0.00  0.00    +0.000 A 
ATOM     20  C   UNL     1       1.867  10.169  17.957  0.00  0.00    +0.000 A 
ATOM     21  N   UNL     1       1.369  11.175  18.766  0.00  0.00    +0.000 NA
ATOM     22  C   UNL     1       0.944  10.636  19.881  0.00  0.00    +0.000 A 
ATOM     23 CL   UNL     1       0.284  11.566  21.163  0.00  0.00    +0.000 Cl
ATOM     24  S   UNL     1       1.061   8.949  20.030  0.00  0.00    +0.000 S 
ENDBRANCH  18  19
ENDBRANCH  17  18
ENDBRANCH  15  17
ENDBRANCH   6  15
TORSDOF 5
ENDMDL
MODEL 7
REMARK VINA RESULT:      -7.2      1.760      2.055
REMARK  Name = 
REMARK  6 active torsions:
REMARK  status: ('A' for Active; 'I' for Inactive)
REMARK    1  A    between atoms: C_1  and  C_2
REMARK    2  A    between atoms: C_5  and  C_6
REMARK    3  A    between atoms: C_14  and  C_15
REMARK    4  A    between atoms: C_15  and  O_17
REMARK    5  A    between atoms: O_17  and  C_18
REMARK    6  A    between atoms: C_18  and  C_19
REMARK                            x       y       z     vdW  Elec       q    Type
REMARK                         _______ _______ _______ _____ _____    ______ ____
ROOT
ATOM      1  C   UNL     1       1.753   2.733  20.894  0.00  0.00    +0.000 C 
ATOM      2  C   UNL     1       3.003   3.149  20.227  0.00  0.00    +0.000 A 
ATOM      3  O   UNL     1       4.090   2.377  20.460  0.00  0.00    +0.000 OA
ATOM      4  N   UNL     1       5.176   2.889  19.791  0.00  0.00    +0.000 NA
ATOM      5  C   UNL     1       4.747   3.964  19.110  0.00  0.00    +0.000 A 
ATOM      6  C   UNL     1       3.350   4.180  19.378  0.00  0.00    +0.000 A 
ENDROOT
BRANCH   5   7
ATOM      7  C   UNL     1       5.678   4.771  18.305  0.00  0.00    +0.000 A 
ATOM      8  C   UNL     1       6.681   5.512  18.949  0.00  0.00    +0.000 A 
ATOM      9  F   UNL     1       6.863   5.399  20.270  0.00  0.00    +0.000 F 
ATOM     10  C   UNL     1       7.543   6.368  18.263  0.00  0.00    +0.000 A 
ATOM     11  C   UNL     1       7.467   6.457  16.882  0.00  0.00    +0.000 A 
ATOM     12  C   UNL     1       6.531   5.679  16.203  0.00  0.00    +0.000 A 
ATOM     13  C   UNL     1       5.634   4.850  16.902  0.00  0.00    +0.000 A 
ATOM     14 CL   UNL     1       4.494   3.990  15.924  0.00  0.00    +0.000 Cl
ENDBRANCH   5   7
BRANCH   6  15
ATOM     15  C   UNL     1       2.486   5.241  18.924  0.00  0.00    +0.000 C 
ATOM     16  O   UNL     1       1.653   5.113  18.040  0.00  0.00    +0.000 OA
BRANCH  15  17
ATOM     17  O   UNL     1       2.800   6.430  19.516  0.00  0.00    +0.000 OA
BRANCH  17  18
ATOM     18  C   UNL     1       2.343   7.599  18.826  0.00  0.00    +0.000 C 
BRANCH  18  19
ATOM     19  C   UNL     1       1.558   8.401  19.814  0.00  0.00    +0.000 A 
ATOM     20  C   UNL     1       1.255   8.117  21.134  0.00  0.00    +0.000 A 
ATOM     21  N   UNL     1       0.442   9.032  21.778  0.00  0.00    +0.000 NA
ATOM     22  C   UNL     1       0.144   9.988  20.933  0.00  0.00    +0.000 A 
ATOM     23 CL   UNL     1      -0.880  11.300  21.347  0.00  0.00    +0.000 Cl
ATOM     24  S   UNL     1       0.820   9.896  19.378  0.00  0.00    +0.000 S 
ENDBRANCH  18  19
ENDBRANCH  17  18
ENDBRANCH  15  17
ENDBRANCH   6  15
TORSDOF 5
ENDMDL
MODEL 8
REMARK VINA RESULT:      -7.1      3.885      6.645
REMARK  Name = 
REMARK  6 active torsions:
REMARK  status: ('A' for Active; 'I' for Inactive)
REMARK    1  A    between atoms: C_1  and  C_2
REMARK    2  A    between atoms: C_5  and  C_6
REMARK    3  A    between atoms: C_14  and  C_15
REMARK    4  A    between atoms: C_15  and  O_17
REMARK    5  A    between atoms: O_17  and  C_18
REMARK    6  A    between atoms: C_18  and  C_19
REMARK                            x       y       z     vdW  Elec       q    Type
REMARK                         _______ _______ _______ _____ _____    ______ ____
ROOT
ATOM      1  C   UNL     1       7.787   6.954  18.332  0.00  0.00    +0.000 C 
ATOM      2  C   UNL     1       6.695   6.013  18.650  0.00  0.00    +0.000 A 
ATOM      3  O   UNL     1       6.923   5.154  19.671  0.00  0.00    +0.000 OA
ATOM      4  N   UNL     1       5.834   4.335  19.842  0.00  0.00    +0.000 NA
ATOM      5  C   UNL     1       4.909   4.716  18.944  0.00  0.00    +0.000 A 
ATOM      6  C   UNL     1       5.432   5.788  18.139  0.00  0.00    +0.000 A 
ENDROOT
BRANCH   5   7
ATOM      7  C   UNL     1       3.620   4.014  18.841  0.00  0.00    +0.000 A 
ATOM      8  C   UNL     1       3.479   2.966  17.919  0.00  0.00    +0.000 A 
ATOM      9  F   UNL     1       4.536   2.531  17.222  0.00  0.00    +0.000 F 
ATOM     10  C   UNL     1       2.266   2.313  17.700  0.00  0.00    +0.000 A 
ATOM     11  C   UNL     1       1.158   2.653  18.459  0.00  0.00    +0.000 A 
ATOM     12  C   UNL     1       1.279   3.640  19.435  0.00  0.00    +0.000 A 
ATOM     13  C   UNL     1       2.494   4.326  19.622  0.00  0.00    +0.000 A 
ATOM     14 CL   UNL     1       2.474   5.564  20.833  0.00  0.00    +0.000 Cl
ENDBRANCH   5   7
BRANCH   6  15
ATOM     15  C   UNL     1       4.830   6.466  17.020  0.00  0.00    +0.000 C 
ATOM     16  O   UNL     1       4.093   7.435  17.123  0.00  0.00    +0.000 OA
BRANCH  15  17
ATOM     17  O   UNL     1       5.085   5.819  15.846  0.00  0.00    +0.000 OA
BRANCH  17  18
ATOM     18  C   UNL     1       6.461   5.507  15.602  0.00  0.00    +0.000 C 
BRANCH  18  19
ATOM     19  C   UNL     1       6.509   4.750  14.314  0.00  0.00    +0.000 A 
ATOM     20  C   UNL     1       7.377   4.889  13.244  0.00  0.00    +0.000 A 
ATOM     21  N   UNL     1       7.123   4.081  12.151  0.00  0.00    +0.000 NA
ATOM     22  C   UNL     1       6.069   3.349  12.413  0.00  0.00    +0.000 A 
ATOM     23 CL   UNL     1       5.413   2.237  11.284  0.00  0.00    +0.000 Cl
ATOM     24  S   UNL     1       5.352   3.529  13.941  0.00  0.00    +0.000 S 
ENDBRANCH  18  19
ENDBRANCH  17  18
ENDBRANCH  15  17
ENDBRANCH   6  15
TORSDOF 5
ENDMDL
MODEL 9
REMARK VINA RESULT:      -7.1      4.046      6.759
REMARK  Name = 
REMARK  6 active torsions:
REMARK  status: ('A' for Active; 'I' for Inactive)
REMARK    1  A    between atoms: C_1  and  C_2
REMARK    2  A    between atoms: C_5  and  C_6
REMARK    3  A    between atoms: C_14  and  C_15
REMARK    4  A    between atoms: C_15  and  O_17
REMARK    5  A    between atoms: O_17  and  C_18
REMARK    6  A    between atoms: C_18  and  C_19
REMARK                            x       y       z     vdW  Elec       q    Type
REMARK                         _______ _______ _______ _____ _____    ______ ____
ROOT
ATOM      1  C   UNL     1       5.997   7.709  17.143  0.00  0.00    +0.000 C 
ATOM      2  C   UNL     1       4.883   6.901  17.679  0.00  0.00    +0.000 A 
ATOM      3  O   UNL     1       3.635   7.337  17.391  0.00  0.00    +0.000 OA
ATOM      4  N   UNL     1       2.707   6.501  17.963  0.00  0.00    +0.000 NA
ATOM      5  C   UNL     1       3.387   5.520  18.578  0.00  0.00    +0.000 A 
ATOM      6  C   UNL     1       4.800   5.749  18.435  0.00  0.00    +0.000 A 
ENDROOT
BRANCH   5   7
ATOM      7  C   UNL     1       2.684   4.464  19.324  0.00  0.00    +0.000 A 
ATOM      8  C   UNL     1       2.254   4.717  20.635  0.00  0.00    +0.000 A 
ATOM      9  F   UNL     1       2.378   5.940  21.165  0.00  0.00    +0.000 F 
ATOM     10  C   UNL     1       1.661   3.740  21.436  0.00  0.00    +0.000 A 
ATOM     11  C   UNL     1       1.418   2.480  20.914  0.00  0.00    +0.000 A 
ATOM     12  C   UNL     1       1.766   2.214  19.590  0.00  0.00    +0.000 A 
ATOM     13  C   UNL     1       2.403   3.190  18.800  0.00  0.00    +0.000 A 
ATOM     14 CL   UNL     1       2.824   2.693  17.196  0.00  0.00    +0.000 Cl
ENDBRANCH   5   7
BRANCH   6  15
ATOM     15  C   UNL     1       5.906   5.002  18.979  0.00  0.00    +0.000 C 
ATOM     16  O   UNL     1       6.424   5.237  20.060  0.00  0.00    +0.000 OA
BRANCH  15  17
ATOM     17  O   UNL     1       6.378   4.084  18.086  0.00  0.00    +0.000 OA
BRANCH  17  18
ATOM     18  C   UNL     1       7.525   4.494  17.332  0.00  0.00    +0.000 C 
BRANCH  18  19
ATOM     19  C   UNL     1       7.126   4.465  15.891  0.00  0.00    +0.000 A 
ATOM     20  C   UNL     1       7.644   5.174  14.822  0.00  0.00    +0.000 A 
ATOM     21  N   UNL     1       7.012   4.982  13.606  0.00  0.00    +0.000 NA
ATOM     22  C   UNL     1       6.029   4.135  13.781  0.00  0.00    +0.000 A 
ATOM     23 CL   UNL     1       4.979   3.664  12.508  0.00  0.00    +0.000 Cl
ATOM     24  S   UNL     1       5.816   3.492  15.338  0.00  0.00    +0.000 S 
ENDBRANCH  18  19
ENDBRANCH  17  18
ENDBRANCH  15  17
ENDBRANCH   6  15
TORSDOF 5
ENDMDL
