MODEL 1
REMARK VINA RESULT:      -8.2      0.000      0.000
REMARK  Name = 
REMARK  4 active torsions:
REMARK  status: ('A' for Active; 'I' for Inactive)
REMARK    1  A    between atoms: C_1  and  C_2
REMARK    2  A    between atoms: C_2  and  C_3
REMARK    3  A    between atoms: C_2  and  N_9
REMARK    4  A    between atoms: C_12  and  N_13
REMARK                            x       y       z     vdW  Elec       q    Type
REMARK                         _______ _______ _______ _____ _____    ______ ____
ROOT
ATOM      1  N   UNL     1       5.328   4.286  16.771  0.00  0.00    +0.000 NA
ATOM      2  C   UNL     1       5.669   4.384  18.190  0.00  0.00    +0.000 C 
ATOM      3  C   UNL     1       4.809   3.495  19.083  0.00  0.00    +0.000 C 
ATOM      4  C   UNL     1       3.297   3.824  18.999  0.00  0.00    +0.000 C 
ATOM      5  C   UNL     1       2.958   3.636  17.512  0.00  0.00    +0.000 C 
ATOM      6  C   UNL     1       3.875   4.378  16.530  0.00  0.00    +0.000 C 
ENDROOT
BRANCH   4   7
ATOM      7  N   UNL     1       2.913   5.067  19.712  0.00  0.00    +0.000 N 
ATOM      8  C   UNL     1       1.839   5.004  20.662  0.00  0.00    +0.000 C 
ATOM      9  O   UNL     1       1.189   4.032  21.033  0.00  0.00    +0.000 OA
ATOM     10  C   UNL     1       1.542   6.408  21.115  0.00  0.00    +0.000 C 
ATOM     11  C   UNL     1       1.947   7.162  19.905  0.00  0.00    +0.000 A 
ATOM     12  C   UNL     1       1.434   8.378  19.478  0.00  0.00    +0.000 A 
ATOM     13  C   UNL     1       1.927   8.902  18.293  0.00  0.00    +0.000 A 
ATOM     14  C   UNL     1       2.953   8.232  17.611  0.00  0.00    +0.000 A 
ATOM     15  C   UNL     1       3.434   6.976  18.043  0.00  0.00    +0.000 A 
ATOM     16  C   UNL     1       2.863   6.397  19.164  0.00  0.00    +0.000 A 
ENDBRANCH   4   7
BRANCH   1  18
ATOM     17  C   UNL     1       7.262   5.963  16.567  0.00  0.00    +0.000 C 
ATOM     18  C   UNL     1       6.071   5.258  15.900  0.00  0.00    +0.000 C 
BRANCH  18  19
ATOM     19  C   UNL     1       6.496   4.738  14.513  0.00  0.00    +0.000 A 
ATOM     20  C   UNL     1       7.540   5.313  13.774  0.00  0.00    +0.000 A 
ATOM     21  C   UNL     1       7.811   4.929  12.450  0.00  0.00    +0.000 A 
ATOM     22  C   UNL     1       7.018   3.963  11.839  0.00  0.00    +0.000 A 
ATOM     23  C   UNL     1       5.978   3.377  12.549  0.00  0.00    +0.000 A 
ATOM     24  C   UNL     1       5.720   3.751  13.873  0.00  0.00    +0.000 A 
ENDBRANCH  18  19
ENDBRANCH   1  18
TORSDOF 3
ENDMDL
MODEL 2
REMARK VINA RESULT:      -8.1      1.338      2.934
REMARK  Name = 
REMARK  4 active torsions:
REMARK  status: ('A' for Active; 'I' for Inactive)
REMARK    1  A    between atoms: C_1  and  C_2
REMARK    2  A    between atoms: C_2  and  C_3
REMARK    3  A    between atoms: C_2  and  N_9
REMARK    4  A    between atoms: C_12  and  N_13
REMARK                            x       y       z     vdW  Elec       q    Type
REMARK                         _______ _______ _______ _____ _____    ______ ____
ROOT
ATOM      1  N   UNL     1       5.202   3.560  16.962  0.00  0.00    +0.000 NA
ATOM      2  C   UNL     1       5.360   3.600  18.416  0.00  0.00    +0.000 C 
ATOM      3  C   UNL     1       4.207   2.942  19.169  0.00  0.00    +0.000 C 
ATOM      4  C   UNL     1       2.835   3.603  18.886  0.00  0.00    +0.000 C 
ATOM      5  C   UNL     1       2.668   3.474  17.364  0.00  0.00    +0.000 C 
ATOM      6  C   UNL     1       3.853   3.974  16.527  0.00  0.00    +0.000 C 
ENDROOT
BRANCH   4   7
ATOM      7  N   UNL     1       2.649   4.912  19.560  0.00  0.00    +0.000 N 
ATOM      8  C   UNL     1       1.545   5.061  20.465  0.00  0.00    +0.000 C 
ATOM      9  O   UNL     1       0.720   4.227  20.825  0.00  0.00    +0.000 OA
ATOM     10  C   UNL     1       1.482   6.506  20.880  0.00  0.00    +0.000 C 
ATOM     11  C   UNL     1       2.059   7.147  19.675  0.00  0.00    +0.000 A 
ATOM     12  C   UNL     1       1.785   8.423  19.205  0.00  0.00    +0.000 A 
ATOM     13  C   UNL     1       2.408   8.823  18.033  0.00  0.00    +0.000 A 
ATOM     14  C   UNL     1       3.326   7.967  17.406  0.00  0.00    +0.000 A 
ATOM     15  C   UNL     1       3.560   6.657  17.881  0.00  0.00    +0.000 A 
ATOM     16  C   UNL     1       2.854   6.215  18.986  0.00  0.00    +0.000 A 
ENDBRANCH   4   7
BRANCH   1  18
ATOM     17  C   UNL     1       5.804   4.945  14.886  0.00  0.00    +0.000 C 
ATOM     18  C   UNL     1       6.256   4.326  16.217  0.00  0.00    +0.000 C 
BRANCH  18  19
ATOM     19  C   UNL     1       7.033   5.378  17.032  0.00  0.00    +0.000 A 
ATOM     20  C   UNL     1       7.628   5.093  18.269  0.00  0.00    +0.000 A 
ATOM     21  C   UNL     1       8.194   6.099  19.069  0.00  0.00    +0.000 A 
ATOM     22  C   UNL     1       8.156   7.421  18.640  0.00  0.00    +0.000 A 
ATOM     23  C   UNL     1       7.573   7.731  17.418  0.00  0.00    +0.000 A 
ATOM     24  C   UNL     1       7.023   6.725  16.616  0.00  0.00    +0.000 A 
ENDBRANCH  18  19
ENDBRANCH   1  18
TORSDOF 3
ENDMDL
MODEL 3
REMARK VINA RESULT:      -8.1      1.261      2.927
REMARK  Name = 
REMARK  4 active torsions:
REMARK  status: ('A' for Active; 'I' for Inactive)
REMARK    1  A    between atoms: C_1  and  C_2
REMARK    2  A    between atoms: C_2  and  C_3
REMARK    3  A    between atoms: C_2  and  N_9
REMARK    4  A    between atoms: C_12  and  N_13
REMARK                            x       y       z     vdW  Elec       q    Type
REMARK                         _______ _______ _______ _____ _____    ______ ____
ROOT
ATOM      1  N   UNL     1       5.281   3.597  16.989  0.00  0.00    +0.000 NA
ATOM      2  C   UNL     1       5.348   3.533  18.449  0.00  0.00    +0.000 C 
ATOM      3  C   UNL     1       4.123   2.879  19.083  0.00  0.00    +0.000 C 
ATOM      4  C   UNL     1       2.801   3.619  18.764  0.00  0.00    +0.000 C 
ATOM      5  C   UNL     1       2.725   3.601  17.230  0.00  0.00    +0.000 C 
ATOM      6  C   UNL     1       3.981   4.101  16.503  0.00  0.00    +0.000 C 
ENDROOT
BRANCH   4   7
ATOM      7  N   UNL     1       2.626   4.887  19.515  0.00  0.00    +0.000 N 
ATOM      8  C   UNL     1       1.560   4.971  20.473  0.00  0.00    +0.000 C 
ATOM      9  O   UNL     1       0.762   4.106  20.821  0.00  0.00    +0.000 OA
ATOM     10  C   UNL     1       1.496   6.391  20.967  0.00  0.00    +0.000 C 
ATOM     11  C   UNL     1       2.013   7.104  19.776  0.00  0.00    +0.000 A 
ATOM     12  C   UNL     1       1.703   8.399  19.387  0.00  0.00    +0.000 A 
ATOM     13  C   UNL     1       2.270   8.871  18.215  0.00  0.00    +0.000 A 
ATOM     14  C   UNL     1       3.171   8.064  17.504  0.00  0.00    +0.000 A 
ATOM     15  C   UNL     1       3.443   6.734  17.897  0.00  0.00    +0.000 A 
ATOM     16  C   UNL     1       2.790   6.222  19.005  0.00  0.00    +0.000 A 
ENDBRANCH   4   7
BRANCH   1  18
ATOM     17  C   UNL     1       6.199   4.774  14.899  0.00  0.00    +0.000 C 
ATOM     18  C   UNL     1       6.411   4.363  16.364  0.00  0.00    +0.000 C 
BRANCH  18  19
ATOM     19  C   UNL     1       6.934   5.573  17.163  0.00  0.00    +0.000 A 
ATOM     20  C   UNL     1       6.900   6.883  16.665  0.00  0.00    +0.000 A 
ATOM     21  C   UNL     1       7.522   7.948  17.338  0.00  0.00    +0.000 A 
ATOM     22  C   UNL     1       8.206   7.706  18.524  0.00  0.00    +0.000 A 
ATOM     23  C   UNL     1       8.254   6.417  19.040  0.00  0.00    +0.000 A 
ATOM     24  C   UNL     1       7.621   5.360  18.375  0.00  0.00    +0.000 A 
ENDBRANCH  18  19
ENDBRANCH   1  18
TORSDOF 3
ENDMDL
MODEL 4
REMARK VINA RESULT:      -7.1      1.588      3.397
REMARK  Name = 
REMARK  4 active torsions:
REMARK  status: ('A' for Active; 'I' for Inactive)
REMARK    1  A    between atoms: C_1  and  C_2
REMARK    2  A    between atoms: C_2  and  C_3
REMARK    3  A    between atoms: C_2  and  N_9
REMARK    4  A    between atoms: C_12  and  N_13
REMARK                            x       y       z     vdW  Elec       q    Type
REMARK                         _______ _______ _______ _____ _____    ______ ____
ROOT
ATOM      1  N   UNL     1       6.048   5.068  16.691  0.00  0.00    +0.000 NA
ATOM      2  C   UNL     1       4.794   5.795  16.491  0.00  0.00    +0.000 C 
ATOM      3  C   UNL     1       4.571   6.911  17.509  0.00  0.00    +0.000 C 
ATOM      4  C   UNL     1       4.525   6.404  18.972  0.00  0.00    +0.000 C 
ATOM      5  C   UNL     1       5.884   5.715  19.171  0.00  0.00    +0.000 C 
ATOM      6  C   UNL     1       6.260   4.681  18.100  0.00  0.00    +0.000 C 
ENDROOT
BRANCH   4   7
ATOM      7  N   UNL     1       3.264   5.706  19.325  0.00  0.00    +0.000 N 
ATOM      8  C   UNL     1       2.208   6.469  19.930  0.00  0.00    +0.000 C 
ATOM      9  O   UNL     1       2.161   7.672  20.168  0.00  0.00    +0.000 OA
ATOM     10  C   UNL     1       1.122   5.510  20.335  0.00  0.00    +0.000 C 
ATOM     11  C   UNL     1       1.930   4.292  20.582  0.00  0.00    +0.000 A 
ATOM     12  C   UNL     1       1.632   3.267  21.468  0.00  0.00    +0.000 A 
ATOM     13  C   UNL     1       2.541   2.227  21.575  0.00  0.00    +0.000 A 
ATOM     14  C   UNL     1       3.679   2.211  20.755  0.00  0.00    +0.000 A 
ATOM     15  C   UNL     1       3.982   3.284  19.888  0.00  0.00    +0.000 A 
ATOM     16  C   UNL     1       3.134   4.378  19.863  0.00  0.00    +0.000 A 
ENDBRANCH   4   7
BRANCH   1  18
ATOM     17  C   UNL     1       5.093   2.831  15.869  0.00  0.00    +0.000 C 
ATOM     18  C   UNL     1       6.211   3.881  15.787  0.00  0.00    +0.000 C 
BRANCH  18  19
ATOM     19  C   UNL     1       6.511   4.192  14.307  0.00  0.00    +0.000 A 
ATOM     20  C   UNL     1       5.977   3.442  13.250  0.00  0.00    +0.000 A 
ATOM     21  C   UNL     1       6.384   3.640  11.920  0.00  0.00    +0.000 A 
ATOM     22  C   UNL     1       7.354   4.594  11.633  0.00  0.00    +0.000 A 
ATOM     23  C   UNL     1       7.898   5.353  12.662  0.00  0.00    +0.000 A 
ATOM     24  C   UNL     1       7.480   5.163  13.985  0.00  0.00    +0.000 A 
ENDBRANCH  18  19
ENDBRANCH   1  18
TORSDOF 3
ENDMDL
MODEL 5
REMARK VINA RESULT:      -7.0      1.850      7.118
REMARK  Name = 
REMARK  4 active torsions:
REMARK  status: ('A' for Active; 'I' for Inactive)
REMARK    1  A    between atoms: C_1  and  C_2
REMARK    2  A    between atoms: C_2  and  C_3
REMARK    3  A    between atoms: C_2  and  N_9
REMARK    4  A    between atoms: C_12  and  N_13
REMARK                            x       y       z     vdW  Elec       q    Type
REMARK                         _______ _______ _______ _____ _____    ______ ____
ROOT
ATOM      1  N   UNL     1       2.362   6.378  18.963  0.00  0.00    +0.000 NA
ATOM      2  C   UNL     1       2.665   5.837  17.638  0.00  0.00    +0.000 C 
ATOM      3  C   UNL     1       2.739   4.312  17.609  0.00  0.00    +0.000 C 
ATOM      4  C   UNL     1       3.826   3.735  18.549  0.00  0.00    +0.000 C 
ATOM      5  C   UNL     1       3.433   4.259  19.939  0.00  0.00    +0.000 C 
ATOM      6  C   UNL     1       3.187   5.771  20.026  0.00  0.00    +0.000 C 
ENDROOT
BRANCH   4   7
ATOM      7  N   UNL     1       5.211   3.903  18.041  0.00  0.00    +0.000 N 
ATOM      8  C   UNL     1       6.098   4.774  18.757  0.00  0.00    +0.000 C 
ATOM      9  O   UNL     1       5.903   5.395  19.797  0.00  0.00    +0.000 OA
ATOM     10  C   UNL     1       7.366   4.898  17.956  0.00  0.00    +0.000 C 
ATOM     11  C   UNL     1       6.831   4.692  16.590  0.00  0.00    +0.000 A 
ATOM     12  C   UNL     1       7.351   5.208  15.412  0.00  0.00    +0.000 A 
ATOM     13  C   UNL     1       6.678   4.924  14.234  0.00  0.00    +0.000 A 
ATOM     14  C   UNL     1       5.551   4.089  14.262  0.00  0.00    +0.000 A 
ATOM     15  C   UNL     1       5.017   3.606  15.477  0.00  0.00    +0.000 A 
ATOM     16  C   UNL     1       5.622   3.982  16.664  0.00  0.00    +0.000 A 
ENDBRANCH   4   7
BRANCH   1  18
ATOM     17  C   UNL     1       2.510   8.598  17.682  0.00  0.00    +0.000 C 
ATOM     18  C   UNL     1       2.425   7.876  19.035  0.00  0.00    +0.000 C 
BRANCH  18  19
ATOM     19  C   UNL     1       1.357   8.559  19.911  0.00  0.00    +0.000 A 
ATOM     20  C   UNL     1       0.598   9.652  19.470  0.00  0.00    +0.000 A 
ATOM     21  C   UNL     1      -0.257  10.359  20.333  0.00  0.00    +0.000 A 
ATOM     22  C   UNL     1      -0.349   9.983  21.668  0.00  0.00    +0.000 A 
ATOM     23  C   UNL     1       0.392   8.902  22.131  0.00  0.00    +0.000 A 
ATOM     24  C   UNL     1       1.231   8.191  21.266  0.00  0.00    +0.000 A 
ENDBRANCH  18  19
ENDBRANCH   1  18
TORSDOF 3
ENDMDL
MODEL 6
REMARK VINA RESULT:      -7.0      2.114      3.737
REMARK  Name = 
REMARK  4 active torsions:
REMARK  status: ('A' for Active; 'I' for Inactive)
REMARK    1  A    between atoms: C_1  and  C_2
REMARK    2  A    between atoms: C_2  and  C_3
REMARK    3  A    between atoms: C_2  and  N_9
REMARK    4  A    between atoms: C_12  and  N_13
REMARK                            x       y       z     vdW  Elec       q    Type
REMARK                         _______ _______ _______ _____ _____    ______ ____
ROOT
ATOM      1  N   UNL     1       7.195   5.466  14.993  0.00  0.00    +0.000 NA
ATOM      2  C   UNL     1       6.363   6.509  15.593  0.00  0.00    +0.000 C 
ATOM      3  C   UNL     1       6.293   6.429  17.115  0.00  0.00    +0.000 C 
ATOM      4  C   UNL     1       5.708   5.090  17.630  0.00  0.00    +0.000 C 
ATOM      5  C   UNL     1       6.649   4.024  17.046  0.00  0.00    +0.000 C 
ATOM      6  C   UNL     1       6.899   4.125  15.535  0.00  0.00    +0.000 C 
ENDROOT
BRANCH   4   7
ATOM      7  N   UNL     1       4.238   4.973  17.465  0.00  0.00    +0.000 N 
ATOM      8  C   UNL     1       3.421   6.099  17.819  0.00  0.00    +0.000 C 
ATOM      9  O   UNL     1       3.762   7.212  18.209  0.00  0.00    +0.000 OA
ATOM     10  C   UNL     1       1.982   5.673  17.718  0.00  0.00    +0.000 C 
ATOM     11  C   UNL     1       2.118   4.228  18.017  0.00  0.00    +0.000 A 
ATOM     12  C   UNL     1       1.161   3.411  18.601  0.00  0.00    +0.000 A 
ATOM     13  C   UNL     1       1.500   2.087  18.827  0.00  0.00    +0.000 A 
ATOM     14  C   UNL     1       2.751   1.608  18.409  0.00  0.00    +0.000 A 
ATOM     15  C   UNL     1       3.724   2.467  17.852  0.00  0.00    +0.000 A 
ATOM     16  C   UNL     1       3.429   3.814  17.729  0.00  0.00    +0.000 A 
ENDBRANCH   4   7
BRANCH   1  18
ATOM     17  C   UNL     1       8.484   5.794  12.797  0.00  0.00    +0.000 C 
ATOM     18  C   UNL     1       7.158   5.449  13.492  0.00  0.00    +0.000 C 
BRANCH  18  19
ATOM     19  C   UNL     1       6.554   4.188  12.843  0.00  0.00    +0.000 A 
ATOM     20  C   UNL     1       7.330   3.241  12.160  0.00  0.00    +0.000 A 
ATOM     21  C   UNL     1       6.745   2.183  11.442  0.00  0.00    +0.000 A 
ATOM     22  C   UNL     1       5.361   2.072  11.387  0.00  0.00    +0.000 A 
ATOM     23  C   UNL     1       4.569   2.997  12.057  0.00  0.00    +0.000 A 
ATOM     24  C   UNL     1       5.154   4.041  12.783  0.00  0.00    +0.000 A 
ENDBRANCH  18  19
ENDBRANCH   1  18
TORSDOF 3
ENDMDL
MODEL 7
REMARK VINA RESULT:      -6.9      2.376      6.514
REMARK  Name = 
REMARK  4 active torsions:
REMARK  status: ('A' for Active; 'I' for Inactive)
REMARK    1  A    between atoms: C_1  and  C_2
REMARK    2  A    between atoms: C_2  and  C_3
REMARK    3  A    between atoms: C_2  and  N_9
REMARK    4  A    between atoms: C_12  and  N_13
REMARK                            x       y       z     vdW  Elec       q    Type
REMARK                         _______ _______ _______ _____ _____    ______ ____
ROOT
ATOM      1  N   UNL     1       2.097   3.167  19.167  0.00  0.00    +0.000 NA
ATOM      2  C   UNL     1       1.942   3.699  17.813  0.00  0.00    +0.000 C 
ATOM      3  C   UNL     1       2.811   2.989  16.779  0.00  0.00    +0.000 C 
ATOM      4  C   UNL     1       4.327   3.082  17.087  0.00  0.00    +0.000 C 
ATOM      5  C   UNL     1       4.464   2.447  18.479  0.00  0.00    +0.000 C 
ATOM      6  C   UNL     1       3.513   2.999  19.551  0.00  0.00    +0.000 C 
ENDROOT
BRANCH   4   7
ATOM      7  N   UNL     1       4.916   4.414  16.802  0.00  0.00    +0.000 N 
ATOM      8  C   UNL     1       5.369   4.688  15.468  0.00  0.00    +0.000 C 
ATOM      9  O   UNL     1       5.300   3.982  14.466  0.00  0.00    +0.000 OA
ATOM     10  C   UNL     1       6.065   6.022  15.482  0.00  0.00    +0.000 C 
ATOM     11  C   UNL     1       6.562   6.039  16.878  0.00  0.00    +0.000 A 
ATOM     12  C   UNL     1       7.693   6.693  17.345  0.00  0.00    +0.000 A 
ATOM     13  C   UNL     1       8.006   6.555  18.687  0.00  0.00    +0.000 A 
ATOM     14  C   UNL     1       7.153   5.826  19.529  0.00  0.00    +0.000 A 
ATOM     15  C   UNL     1       6.028   5.136  19.025  0.00  0.00    +0.000 A 
ATOM     16  C   UNL     1       5.777   5.179  17.664  0.00  0.00    +0.000 A 
ENDBRANCH   4   7
BRANCH   1  18
ATOM     17  C   UNL     1       1.464   3.401  21.645  0.00  0.00    +0.000 C 
ATOM     18  C   UNL     1       1.355   3.948  20.213  0.00  0.00    +0.000 C 
BRANCH  18  19
ATOM     19  C   UNL     1       1.604   5.468  20.228  0.00  0.00    +0.000 A 
ATOM     20  C   UNL     1       1.012   6.326  21.166  0.00  0.00    +0.000 A 
ATOM     21  C   UNL     1       1.124   7.723  21.069  0.00  0.00    +0.000 A 
ATOM     22  C   UNL     1       1.827   8.283  20.008  0.00  0.00    +0.000 A 
ATOM     23  C   UNL     1       2.425   7.457  19.065  0.00  0.00    +0.000 A 
ATOM     24  C   UNL     1       2.324   6.065  19.173  0.00  0.00    +0.000 A 
ENDBRANCH  18  19
ENDBRANCH   1  18
TORSDOF 3
ENDMDL
MODEL 8
REMARK VINA RESULT:      -6.9      7.313     11.608
REMARK  Name = 
REMARK  4 active torsions:
REMARK  status: ('A' for Active; 'I' for Inactive)
REMARK    1  A    between atoms: C_1  and  C_2
REMARK    2  A    between atoms: C_2  and  C_3
REMARK    3  A    between atoms: C_2  and  N_9
REMARK    4  A    between atoms: C_12  and  N_13
REMARK                            x       y       z     vdW  Elec       q    Type
REMARK                         _______ _______ _______ _____ _____    ______ ____
ROOT
ATOM      1  N   UNL     1      -3.936  13.763  22.227  0.00  0.00    +0.000 NA
ATOM      2  C   UNL     1      -3.887  12.493  22.952  0.00  0.00    +0.000 C 
ATOM      3  C   UNL     1      -2.614  12.314  23.775  0.00  0.00    +0.000 C 
ATOM      4  C   UNL     1      -1.323  12.349  22.919  0.00  0.00    +0.000 C 
ATOM      5  C   UNL     1      -1.369  13.724  22.233  0.00  0.00    +0.000 C 
ATOM      6  C   UNL     1      -2.680  14.053  21.507  0.00  0.00    +0.000 C 
ENDROOT
BRANCH   4   7
ATOM      7  N   UNL     1      -1.094  11.116  22.125  0.00  0.00    +0.000 N 
ATOM      8  C   UNL     1      -0.425  10.014  22.756  0.00  0.00    +0.000 C 
ATOM      9  O   UNL     1      -0.035   9.905  23.915  0.00  0.00    +0.000 OA
ATOM     10  C   UNL     1      -0.173   8.966  21.706  0.00  0.00    +0.000 C 
ATOM     11  C   UNL     1      -0.064   9.826  20.504  0.00  0.00    +0.000 A 
ATOM     12  C   UNL     1       0.676   9.558  19.361  0.00  0.00    +0.000 A 
ATOM     13  C   UNL     1       0.672  10.513  18.357  0.00  0.00    +0.000 A 
ATOM     14  C   UNL     1      -0.113  11.667  18.497  0.00  0.00    +0.000 A 
ATOM     15  C   UNL     1      -0.828  11.937  19.686  0.00  0.00    +0.000 A 
ATOM     16  C   UNL     1      -0.735  11.038  20.734  0.00  0.00    +0.000 A 
ENDBRANCH   4   7
BRANCH   1  18
ATOM     17  C   UNL     1      -5.115  15.133  20.403  0.00  0.00    +0.000 C 
ATOM     18  C   UNL     1      -5.115  13.890  21.307  0.00  0.00    +0.000 C 
BRANCH  18  19
ATOM     19  C   UNL     1      -5.453  12.646  20.463  0.00  0.00    +0.000 A 
ATOM     20  C   UNL     1      -4.725  12.281  19.322  0.00  0.00    +0.000 A 
ATOM     21  C   UNL     1      -5.141  11.237  18.479  0.00  0.00    +0.000 A 
ATOM     22  C   UNL     1      -6.315  10.549  18.765  0.00  0.00    +0.000 A 
ATOM     23  C   UNL     1      -7.056  10.890  19.890  0.00  0.00    +0.000 A 
ATOM     24  C   UNL     1      -6.631  11.921  20.736  0.00  0.00    +0.000 A 
ENDBRANCH  18  19
ENDBRANCH   1  18
TORSDOF 3
ENDMDL
MODEL 9
REMARK VINA RESULT:      -6.9      5.949     10.675
REMARK  Name = 
REMARK  4 active torsions:
REMARK  status: ('A' for Active; 'I' for Inactive)
REMARK    1  A    between atoms: C_1  and  C_2
REMARK    2  A    between atoms: C_2  and  C_3
REMARK    3  A    between atoms: C_2  and  N_9
REMARK    4  A    between atoms: C_12  and  N_13
REMARK                            x       y       z     vdW  Elec       q    Type
REMARK                         _______ _______ _______ _____ _____    ______ ____
ROOT
ATOM      1  N   UNL     1      -2.966  12.341  18.622  0.00  0.00    +0.000 NA
ATOM      2  C   UNL     1      -2.942  11.915  20.022  0.00  0.00    +0.000 C 
ATOM      3  C   UNL     1      -1.702  12.385  20.778  0.00  0.00    +0.000 C 
ATOM      4  C   UNL     1      -0.378  11.862  20.166  0.00  0.00    +0.000 C 
ATOM      5  C   UNL     1      -0.401  12.391  18.723  0.00  0.00    +0.000 C 
ATOM      6  C   UNL     1      -1.683  12.095  17.934  0.00  0.00    +0.000 C 
ENDROOT
BRANCH   4   7
ATOM      7  N   UNL     1      -0.115  10.427  20.441  0.00  0.00    +0.000 N 
ATOM      8  C   UNL     1       0.182  10.035  21.790  0.00  0.00    +0.000 C 
ATOM      9  O   UNL     1       0.206  10.720  22.808  0.00  0.00    +0.000 OA
ATOM     10  C   UNL     1       0.566   8.581  21.772  0.00  0.00    +0.000 C 
ATOM     11  C   UNL     1       1.135   8.480  20.407  0.00  0.00    +0.000 A 
ATOM     12  C   UNL     1       2.121   7.600  19.985  0.00  0.00    +0.000 A 
ATOM     13  C   UNL     1       2.541   7.690  18.668  0.00  0.00    +0.000 A 
ATOM     14  C   UNL     1       1.923   8.606  17.803  0.00  0.00    +0.000 A 
ATOM     15  C   UNL     1       0.948   9.518  18.264  0.00  0.00    +0.000 A 
ATOM     16  C   UNL     1       0.609   9.506  19.606  0.00  0.00    +0.000 A 
ENDBRANCH   4   7
BRANCH   1  18
ATOM     17  C   UNL     1      -3.800  10.466  17.079  0.00  0.00    +0.000 C 
ATOM     18  C   UNL     1      -4.108  11.768  17.834  0.00  0.00    +0.000 C 
BRANCH  18  19
ATOM     19  C   UNL     1      -5.443  11.617  18.588  0.00  0.00    +0.000 A 
ATOM     20  C   UNL     1      -6.058  12.681  19.263  0.00  0.00    +0.000 A 
ATOM     21  C   UNL     1      -7.190  12.490  20.074  0.00  0.00    +0.000 A 
ATOM     22  C   UNL     1      -7.715  11.213  20.231  0.00  0.00    +0.000 A 
ATOM     23  C   UNL     1      -7.125  10.141  19.572  0.00  0.00    +0.000 A 
ATOM     24  C   UNL     1      -6.007  10.336  18.753  0.00  0.00    +0.000 A 
ENDBRANCH  18  19
ENDBRANCH   1  18
TORSDOF 3
ENDMDL
