MODEL 1
REMARK VINA RESULT:      -9.0      0.000      0.000
REMARK  Name = 
REMARK  6 active torsions:
REMARK  status: ('A' for Active; 'I' for Inactive)
REMARK    1  A    between atoms: C_1  and  O_2
REMARK    2  A    between atoms: O_2  and  C_3
REMARK    3  A    between atoms: N_5  and  C_6
REMARK    4  A    between atoms: C_7  and  C_8
REMARK    5  A    between atoms: C_8  and  C_9
REMARK    6  A    between atoms: C_26  and  C_27
REMARK                            x       y       z     vdW  Elec       q    Type
REMARK                         _______ _______ _______ _____ _____    ______ ____
ROOT
ATOM      1  C   UNL     1       2.255   6.946  20.018  0.00  0.00    +0.000 A 
ATOM      2  C   UNL     1       2.728   6.688  18.653  0.00  0.00    +0.000 A 
ATOM      3  C   UNL     1       2.592   7.650  17.718  0.00  0.00    +0.000 A 
ATOM      4  C   UNL     1       2.083   9.006  18.052  0.00  0.00    +0.000 A 
ATOM      5  O   UNL     1       2.180   9.897  17.220  0.00  0.00    +0.000 OA
ATOM      6  N   UNL     1       1.606   9.134  19.337  0.00  0.00    +0.000 N 
ATOM      7  C   UNL     1       1.657   8.129  20.268  0.00  0.00    +0.000 A 
ATOM      8  S   UNL     1       0.954   8.593  21.781  0.00  0.00    +0.000 S 
ATOM      9  C   UNL     1       0.725  10.332  21.244  0.00  0.00    +0.000 C 
ATOM     10  C   UNL     1       0.808  10.308  19.725  0.00  0.00    +0.000 C 
ENDROOT
BRANCH   1  13
ATOM     11  C   UNL     1       1.574   4.771  20.818  0.00  0.00    +0.000 C 
ATOM     12  O   UNL     1       0.519   4.615  20.204  0.00  0.00    +0.000 OA
ATOM     13  N   UNL     1       2.273   5.940  20.966  0.00  0.00    +0.000 N 
ATOM     14  H   UNL     1       3.222   5.695  21.258  0.00  0.00    +0.000 HD
BRANCH  11  16
ATOM     15  C   UNL     1       1.538   2.540  21.627  0.00  0.00    +0.000 C 
ATOM     16  O   UNL     1       2.218   3.789  21.489  0.00  0.00    +0.000 OA
ENDBRANCH  11  16
ENDBRANCH   1  13
BRANCH  10  17
ATOM     17  C   UNL     1      -0.637  10.352  19.160  0.00  0.00    +0.000 C 
ATOM     18  O   UNL     1      -1.445  11.047  19.842  0.00  0.00    +0.000 OA
ATOM     19  O   UNL     1      -0.844   9.680  18.108  0.00  0.00    +0.000 OA
ENDBRANCH  10  17
BRANCH   2  20
ATOM     20  C   UNL     1       3.233   5.324  18.246  0.00  0.00    +0.000 C 
BRANCH  20  21
ATOM     21  C   UNL     1       4.757   5.198  18.159  0.00  0.00    +0.000 A 
ATOM     22  C   UNL     1       5.538   5.447  19.309  0.00  0.00    +0.000 A 
ATOM     23  C   UNL     1       6.925   5.466  19.257  0.00  0.00    +0.000 A 
ATOM     24  C   UNL     1       7.569   5.246  18.047  0.00  0.00    +0.000 A 
ATOM     25  C   UNL     1       6.841   4.984  16.882  0.00  0.00    +0.000 A 
ATOM     26  C   UNL     1       7.524   4.757  15.680  0.00  0.00    +0.000 A 
ATOM     27  C   UNL     1       6.833   4.482  14.504  0.00  0.00    +0.000 A 
ATOM     28  C   UNL     1       5.446   4.444  14.514  0.00  0.00    +0.000 A 
ATOM     29  C   UNL     1       4.749   4.689  15.700  0.00  0.00    +0.000 A 
ATOM     30  C   UNL     1       5.415   4.957  16.915  0.00  0.00    +0.000 A 
ENDBRANCH  20  21
ENDBRANCH   2  20
TORSDOF 5
ENDMDL
MODEL 2
REMARK VINA RESULT:      -8.0      5.287      7.946
REMARK  Name = 
REMARK  6 active torsions:
REMARK  status: ('A' for Active; 'I' for Inactive)
REMARK    1  A    between atoms: C_1  and  O_2
REMARK    2  A    between atoms: O_2  and  C_3
REMARK    3  A    between atoms: N_5  and  C_6
REMARK    4  A    between atoms: C_7  and  C_8
REMARK    5  A    between atoms: C_8  and  C_9
REMARK    6  A    between atoms: C_26  and  C_27
REMARK                            x       y       z     vdW  Elec       q    Type
REMARK                         _______ _______ _______ _____ _____    ______ ____
ROOT
ATOM      1  C   UNL     1      -2.947  13.029  20.579  0.00  0.00    +0.000 A 
ATOM      2  C   UNL     1      -2.019  12.248  19.752  0.00  0.00    +0.000 A 
ATOM      3  C   UNL     1      -2.510  11.502  18.741  0.00  0.00    +0.000 A 
ATOM      4  C   UNL     1      -3.947  11.533  18.365  0.00  0.00    +0.000 A 
ATOM      5  O   UNL     1      -4.297  11.008  17.317  0.00  0.00    +0.000 OA
ATOM      6  N   UNL     1      -4.747  12.240  19.234  0.00  0.00    +0.000 N 
ATOM      7  C   UNL     1      -4.267  12.927  20.319  0.00  0.00    +0.000 A 
ATOM      8  S   UNL     1      -5.526  13.691  21.229  0.00  0.00    +0.000 S 
ATOM      9  C   UNL     1      -6.810  13.248  19.996  0.00  0.00    +0.000 C 
ATOM     10  C   UNL     1      -6.213  12.120  19.168  0.00  0.00    +0.000 C 
ENDROOT
BRANCH   1  13
ATOM     11  C   UNL     1      -2.360  13.115  22.920  0.00  0.00    +0.000 C 
ATOM     12  O   UNL     1      -3.033  12.186  23.365  0.00  0.00    +0.000 OA
ATOM     13  N   UNL     1      -2.489  13.708  21.692  0.00  0.00    +0.000 N 
ATOM     14  H   UNL     1      -1.624  14.223  21.508  0.00  0.00    +0.000 HD
BRANCH  11  16
ATOM     15  C   UNL     1      -0.517  14.609  22.862  0.00  0.00    +0.000 C 
ATOM     16  O   UNL     1      -1.371  13.736  23.603  0.00  0.00    +0.000 OA
ENDBRANCH  11  16
ENDBRANCH   1  13
BRANCH  10  17
ATOM     17  C   UNL     1      -6.798  10.778  19.683  0.00  0.00    +0.000 C 
ATOM     18  O   UNL     1      -7.021   9.921  18.778  0.00  0.00    +0.000 OA
ATOM     19  O   UNL     1      -7.001  10.701  20.930  0.00  0.00    +0.000 OA
ENDBRANCH  10  17
BRANCH   2  20
ATOM     20  C   UNL     1      -0.552  12.158  20.097  0.00  0.00    +0.000 C 
BRANCH  20  21
ATOM     21  C   UNL     1      -0.095  10.796  20.628  0.00  0.00    +0.000 A 
ATOM     22  C   UNL     1      -0.354  10.457  21.974  0.00  0.00    +0.000 A 
ATOM     23  C   UNL     1       0.143   9.290  22.539  0.00  0.00    +0.000 A 
ATOM     24  C   UNL     1       0.925   8.436  21.774  0.00  0.00    +0.000 A 
ATOM     25  C   UNL     1       1.201   8.722  20.433  0.00  0.00    +0.000 A 
ATOM     26  C   UNL     1       1.984   7.832  19.687  0.00  0.00    +0.000 A 
ATOM     27  C   UNL     1       2.270   8.077  18.347  0.00  0.00    +0.000 A 
ATOM     28  C   UNL     1       1.784   9.226  17.741  0.00  0.00    +0.000 A 
ATOM     29  C   UNL     1       1.018  10.135  18.477  0.00  0.00    +0.000 A 
ATOM     30  C   UNL     1       0.696   9.913  19.832  0.00  0.00    +0.000 A 
ENDBRANCH  20  21
ENDBRANCH   2  20
TORSDOF 5
ENDMDL
MODEL 3
REMARK VINA RESULT:      -7.9      2.592      7.250
REMARK  Name = 
REMARK  6 active torsions:
REMARK  status: ('A' for Active; 'I' for Inactive)
REMARK    1  A    between atoms: C_1  and  O_2
REMARK    2  A    between atoms: O_2  and  C_3
REMARK    3  A    between atoms: N_5  and  C_6
REMARK    4  A    between atoms: C_7  and  C_8
REMARK    5  A    between atoms: C_8  and  C_9
REMARK    6  A    between atoms: C_26  and  C_27
REMARK                            x       y       z     vdW  Elec       q    Type
REMARK                         _______ _______ _______ _____ _____    ______ ____
ROOT
ATOM      1  C   UNL     1       2.924   5.838  19.774  0.00  0.00    +0.000 A 
ATOM      2  C   UNL     1       2.409   7.198  19.574  0.00  0.00    +0.000 A 
ATOM      3  C   UNL     1       2.781   7.886  18.476  0.00  0.00    +0.000 A 
ATOM      4  C   UNL     1       3.607   7.272  17.404  0.00  0.00    +0.000 A 
ATOM      5  O   UNL     1       3.735   7.865  16.342  0.00  0.00    +0.000 OA
ATOM      6  N   UNL     1       4.095   6.022  17.708  0.00  0.00    +0.000 N 
ATOM      7  C   UNL     1       3.795   5.351  18.865  0.00  0.00    +0.000 A 
ATOM      8  S   UNL     1       4.584   3.813  18.963  0.00  0.00    +0.000 S 
ATOM      9  C   UNL     1       5.237   3.939  17.253  0.00  0.00    +0.000 C 
ATOM     10  C   UNL     1       5.156   5.414  16.889  0.00  0.00    +0.000 C 
ENDROOT
BRANCH   1  13
ATOM     11  C   UNL     1       1.694   4.181  21.028  0.00  0.00    +0.000 C 
ATOM     12  O   UNL     1       0.658   4.108  20.368  0.00  0.00    +0.000 OA
ATOM     13  N   UNL     1       2.656   5.154  20.944  0.00  0.00    +0.000 N 
ATOM     14  H   UNL     1       3.502   4.787  21.386  0.00  0.00    +0.000 HD
BRANCH  11  16
ATOM     15  C   UNL     1       2.779   2.142  21.578  0.00  0.00    +0.000 C 
ATOM     16  O   UNL     1       2.049   3.300  21.991  0.00  0.00    +0.000 OA
ENDBRANCH  11  16
ENDBRANCH   1  13
BRANCH  10  17
ATOM     17  C   UNL     1       6.569   6.032  17.058  0.00  0.00    +0.000 C 
ATOM     18  O   UNL     1       7.251   6.080  15.993  0.00  0.00    +0.000 OA
ATOM     19  O   UNL     1       6.882   6.395  18.229  0.00  0.00    +0.000 OA
ENDBRANCH  10  17
BRANCH   2  20
ATOM     20  C   UNL     1       1.585   7.885  20.637  0.00  0.00    +0.000 C 
BRANCH  20  21
ATOM     21  C   UNL     1       0.773   9.089  20.150  0.00  0.00    +0.000 A 
ATOM     22  C   UNL     1       0.876   9.491  18.800  0.00  0.00    +0.000 A 
ATOM     23  C   UNL     1       0.259  10.644  18.335  0.00  0.00    +0.000 A 
ATOM     24  C   UNL     1      -0.469  11.434  19.213  0.00  0.00    +0.000 A 
ATOM     25  C   UNL     1      -0.610  11.074  20.557  0.00  0.00    +0.000 A 
ATOM     26  C   UNL     1      -1.360  11.890  21.414  0.00  0.00    +0.000 A 
ATOM     27  C   UNL     1      -1.531  11.557  22.754  0.00  0.00    +0.000 A 
ATOM     28  C   UNL     1      -0.940  10.407  23.257  0.00  0.00    +0.000 A 
ATOM     29  C   UNL     1      -0.170   9.593  22.421  0.00  0.00    +0.000 A 
ATOM     30  C   UNL     1       0.013   9.890  21.054  0.00  0.00    +0.000 A 
ENDBRANCH  20  21
ENDBRANCH   2  20
TORSDOF 5
ENDMDL
MODEL 4
REMARK VINA RESULT:      -7.8      0.666      2.048
REMARK  Name = 
REMARK  6 active torsions:
REMARK  status: ('A' for Active; 'I' for Inactive)
REMARK    1  A    between atoms: C_1  and  O_2
REMARK    2  A    between atoms: O_2  and  C_3
REMARK    3  A    between atoms: N_5  and  C_6
REMARK    4  A    between atoms: C_7  and  C_8
REMARK    5  A    between atoms: C_8  and  C_9
REMARK    6  A    between atoms: C_26  and  C_27
REMARK                            x       y       z     vdW  Elec       q    Type
REMARK                         _______ _______ _______ _____ _____    ______ ____
ROOT
ATOM      1  C   UNL     1       2.241   6.646  20.026  0.00  0.00    +0.000 A 
ATOM      2  C   UNL     1       2.622   6.290  18.653  0.00  0.00    +0.000 A 
ATOM      3  C   UNL     1       2.498   7.211  17.678  0.00  0.00    +0.000 A 
ATOM      4  C   UNL     1       2.097   8.613  17.965  0.00  0.00    +0.000 A 
ATOM      5  O   UNL     1       2.207   9.454  17.083  0.00  0.00    +0.000 OA
ATOM      6  N   UNL     1       1.699   8.836  19.263  0.00  0.00    +0.000 N 
ATOM      7  C   UNL     1       1.735   7.877  20.243  0.00  0.00    +0.000 A 
ATOM      8  S   UNL     1       1.146   8.461  21.762  0.00  0.00    +0.000 S 
ATOM      9  C   UNL     1       1.001  10.183  21.147  0.00  0.00    +0.000 C 
ATOM     10  C   UNL     1       1.001  10.079  19.629  0.00  0.00    +0.000 C 
ENDROOT
BRANCH   1  13
ATOM     11  C   UNL     1       1.545   4.515  20.925  0.00  0.00    +0.000 C 
ATOM     12  O   UNL     1       0.498   4.330  20.306  0.00  0.00    +0.000 OA
ATOM     13  N   UNL     1       2.245   5.689  21.023  0.00  0.00    +0.000 N 
ATOM     14  H   UNL     1       3.189   5.457  21.339  0.00  0.00    +0.000 HD
BRANCH  11  16
ATOM     15  C   UNL     1       3.002   2.642  20.941  0.00  0.00    +0.000 C 
ATOM     16  O   UNL     1       2.179   3.567  21.653  0.00  0.00    +0.000 OA
ENDBRANCH  11  16
ENDBRANCH   1  13
BRANCH  10  17
ATOM     17  C   UNL     1      -0.466  10.192  19.136  0.00  0.00    +0.000 C 
ATOM     18  O   UNL     1      -1.310  10.428  20.050  0.00  0.00    +0.000 OA
ATOM     19  O   UNL     1      -0.653  10.018  17.896  0.00  0.00    +0.000 OA
ENDBRANCH  10  17
BRANCH   2  20
ATOM     20  C   UNL     1       3.015   4.876  18.294  0.00  0.00    +0.000 C 
BRANCH  20  21
ATOM     21  C   UNL     1       4.278   4.754  17.436  0.00  0.00    +0.000 A 
ATOM     22  C   UNL     1       4.162   4.329  16.094  0.00  0.00    +0.000 A 
ATOM     23  C   UNL     1       5.281   4.085  15.309  0.00  0.00    +0.000 A 
ATOM     24  C   UNL     1       6.548   4.248  15.851  0.00  0.00    +0.000 A 
ATOM     25  C   UNL     1       6.715   4.677  17.172  0.00  0.00    +0.000 A 
ATOM     26  C   UNL     1       8.009   4.841  17.684  0.00  0.00    +0.000 A 
ATOM     27  C   UNL     1       8.214   5.277  18.989  0.00  0.00    +0.000 A 
ATOM     28  C   UNL     1       7.123   5.543  19.804  0.00  0.00    +0.000 A 
ATOM     29  C   UNL     1       5.826   5.364  19.316  0.00  0.00    +0.000 A 
ATOM     30  C   UNL     1       5.578   4.938  17.993  0.00  0.00    +0.000 A 
ENDBRANCH  20  21
ENDBRANCH   2  20
TORSDOF 5
ENDMDL
MODEL 5
REMARK VINA RESULT:      -7.8      5.476      8.389
REMARK  Name = 
REMARK  6 active torsions:
REMARK  status: ('A' for Active; 'I' for Inactive)
REMARK    1  A    between atoms: C_1  and  O_2
REMARK    2  A    between atoms: O_2  and  C_3
REMARK    3  A    between atoms: N_5  and  C_6
REMARK    4  A    between atoms: C_7  and  C_8
REMARK    5  A    between atoms: C_8  and  C_9
REMARK    6  A    between atoms: C_26  and  C_27
REMARK                            x       y       z     vdW  Elec       q    Type
REMARK                         _______ _______ _______ _____ _____    ______ ____
ROOT
ATOM      1  C   UNL     1      -3.269  12.913  20.661  0.00  0.00    +0.000 A 
ATOM      2  C   UNL     1      -2.343  12.258  19.729  0.00  0.00    +0.000 A 
ATOM      3  C   UNL     1      -2.842  11.561  18.689  0.00  0.00    +0.000 A 
ATOM      4  C   UNL     1      -4.297  11.527  18.390  0.00  0.00    +0.000 A 
ATOM      5  O   UNL     1      -4.672  11.061  17.322  0.00  0.00    +0.000 OA
ATOM      6  N   UNL     1      -5.090  12.113  19.350  0.00  0.00    +0.000 N 
ATOM      7  C   UNL     1      -4.593  12.746  20.460  0.00  0.00    +0.000 A 
ATOM      8  S   UNL     1      -5.844  13.357  21.490  0.00  0.00    +0.000 S 
ATOM      9  C   UNL     1      -7.164  12.926  20.291  0.00  0.00    +0.000 C 
ATOM     10  C   UNL     1      -6.547  11.904  19.348  0.00  0.00    +0.000 C 
ENDROOT
BRANCH   1  13
ATOM     11  C   UNL     1      -2.546  14.881  21.860  0.00  0.00    +0.000 C 
ATOM     12  O   UNL     1      -2.207  15.611  20.930  0.00  0.00    +0.000 OA
ATOM     13  N   UNL     1      -2.792  13.535  21.800  0.00  0.00    +0.000 N 
ATOM     14  H   UNL     1      -3.326  13.283  22.635  0.00  0.00    +0.000 HD
BRANCH  11  16
ATOM     15  C   UNL     1      -3.089  14.313  24.100  0.00  0.00    +0.000 C 
ATOM     16  O   UNL     1      -2.708  15.298  23.137  0.00  0.00    +0.000 OA
ENDBRANCH  11  16
ENDBRANCH   1  13
BRANCH  10  17
ATOM     17  C   UNL     1      -7.020  10.493  19.785  0.00  0.00    +0.000 C 
ATOM     18  O   UNL     1      -7.252  10.378  21.025  0.00  0.00    +0.000 OA
ATOM     19  O   UNL     1      -7.101   9.623  18.870  0.00  0.00    +0.000 OA
ENDBRANCH  10  17
BRANCH   2  20
ATOM     20  C   UNL     1      -0.856  12.237  19.993  0.00  0.00    +0.000 C 
BRANCH  20  21
ATOM     21  C   UNL     1      -0.329  10.944  20.624  0.00  0.00    +0.000 A 
ATOM     22  C   UNL     1      -0.553  10.705  21.997  0.00  0.00    +0.000 A 
ATOM     23  C   UNL     1       0.005   9.612  22.646  0.00  0.00    +0.000 A 
ATOM     24  C   UNL     1       0.814   8.734  21.938  0.00  0.00    +0.000 A 
ATOM     25  C   UNL     1       1.057   8.921  20.574  0.00  0.00    +0.000 A 
ATOM     26  C   UNL     1       1.870   8.009  19.888  0.00  0.00    +0.000 A 
ATOM     27  C   UNL     1       2.125   8.157  18.528  0.00  0.00    +0.000 A 
ATOM     28  C   UNL     1       1.578   9.230  17.839  0.00  0.00    +0.000 A 
ATOM     29  C   UNL     1       0.782  10.161  18.513  0.00  0.00    +0.000 A 
ATOM     30  C   UNL     1       0.489  10.036  19.888  0.00  0.00    +0.000 A 
ENDBRANCH  20  21
ENDBRANCH   2  20
TORSDOF 5
ENDMDL
MODEL 6
REMARK VINA RESULT:      -7.8      2.957      7.218
REMARK  Name = 
REMARK  6 active torsions:
REMARK  status: ('A' for Active; 'I' for Inactive)
REMARK    1  A    between atoms: C_1  and  O_2
REMARK    2  A    between atoms: O_2  and  C_3
REMARK    3  A    between atoms: N_5  and  C_6
REMARK    4  A    between atoms: C_7  and  C_8
REMARK    5  A    between atoms: C_8  and  C_9
REMARK    6  A    between atoms: C_26  and  C_27
REMARK                            x       y       z     vdW  Elec       q    Type
REMARK                         _______ _______ _______ _____ _____    ______ ____
ROOT
ATOM      1  C   UNL     1       3.015   5.058  18.951  0.00  0.00    +0.000 A 
ATOM      2  C   UNL     1       2.989   6.523  19.040  0.00  0.00    +0.000 A 
ATOM      3  C   UNL     1       3.748   7.246  18.193  0.00  0.00    +0.000 A 
ATOM      4  C   UNL     1       4.524   6.613  17.095  0.00  0.00    +0.000 A 
ATOM      5  O   UNL     1       5.019   7.325  16.232  0.00  0.00    +0.000 OA
ATOM      6  N   UNL     1       4.539   5.237  17.129  0.00  0.00    +0.000 N 
ATOM      7  C   UNL     1       3.842   4.494  18.047  0.00  0.00    +0.000 A 
ATOM      8  S   UNL     1       4.088   2.792  17.843  0.00  0.00    +0.000 S 
ATOM      9  C   UNL     1       5.045   3.023  16.296  0.00  0.00    +0.000 C 
ATOM     10  C   UNL     1       5.491   4.478  16.302  0.00  0.00    +0.000 C 
ENDROOT
BRANCH   1  13
ATOM     11  C   UNL     1       1.364   3.393  19.531  0.00  0.00    +0.000 C 
ATOM     12  O   UNL     1       0.605   3.469  18.566  0.00  0.00    +0.000 OA
ATOM     13  N   UNL     1       2.341   4.289  19.881  0.00  0.00    +0.000 N 
ATOM     14  H   UNL     1       2.974   3.814  20.528  0.00  0.00    +0.000 HD
BRANCH  11  16
ATOM     15  C   UNL     1       2.060   2.611  21.662  0.00  0.00    +0.000 C 
ATOM     16  O   UNL     1       1.337   2.398  20.447  0.00  0.00    +0.000 OA
ENDBRANCH  11  16
ENDBRANCH   1  13
BRANCH  10  17
ATOM     17  C   UNL     1       6.971   4.530  16.766  0.00  0.00    +0.000 C 
ATOM     18  O   UNL     1       7.811   4.651  15.827  0.00  0.00    +0.000 OA
ATOM     19  O   UNL     1       7.168   4.427  18.012  0.00  0.00    +0.000 OA
ENDBRANCH  10  17
BRANCH   2  20
ATOM     20  C   UNL     1       2.239   7.224  20.148  0.00  0.00    +0.000 C 
BRANCH  20  21
ATOM     21  C   UNL     1       1.408   8.431  19.703  0.00  0.00    +0.000 A 
ATOM     22  C   UNL     1       1.445   8.836  18.351  0.00  0.00    +0.000 A 
ATOM     23  C   UNL     1       0.809   9.991  17.919  0.00  0.00    +0.000 A 
ATOM     24  C   UNL     1       0.126  10.781  18.833  0.00  0.00    +0.000 A 
ATOM     25  C   UNL     1       0.051  10.418  20.182  0.00  0.00    +0.000 A 
ATOM     26  C   UNL     1      -0.655  11.234  21.076  0.00  0.00    +0.000 A 
ATOM     27  C   UNL     1      -0.761  10.899  22.422  0.00  0.00    +0.000 A 
ATOM     28  C   UNL     1      -0.149   9.747  22.893  0.00  0.00    +0.000 A 
ATOM     29  C   UNL     1       0.578   8.933  22.019  0.00  0.00    +0.000 A 
ATOM     30  C   UNL     1       0.694   9.232  20.645  0.00  0.00    +0.000 A 
ENDBRANCH  20  21
ENDBRANCH   2  20
TORSDOF 5
ENDMDL
MODEL 7
REMARK VINA RESULT:      -7.8      5.106      7.967
REMARK  Name = 
REMARK  6 active torsions:
REMARK  status: ('A' for Active; 'I' for Inactive)
REMARK    1  A    between atoms: C_1  and  O_2
REMARK    2  A    between atoms: O_2  and  C_3
REMARK    3  A    between atoms: N_5  and  C_6
REMARK    4  A    between atoms: C_7  and  C_8
REMARK    5  A    between atoms: C_8  and  C_9
REMARK    6  A    between atoms: C_26  and  C_27
REMARK                            x       y       z     vdW  Elec       q    Type
REMARK                         _______ _______ _______ _____ _____    ______ ____
ROOT
ATOM      1  C   UNL     1      -2.667  12.853  20.210  0.00  0.00    +0.000 A 
ATOM      2  C   UNL     1      -1.886  12.021  19.287  0.00  0.00    +0.000 A 
ATOM      3  C   UNL     1      -2.528  11.318  18.333  0.00  0.00    +0.000 A 
ATOM      4  C   UNL     1      -3.992  11.446  18.111  0.00  0.00    +0.000 A 
ATOM      5  O   UNL     1      -4.484  10.955  17.105  0.00  0.00    +0.000 OA
ATOM      6  N   UNL     1      -4.647  12.196  19.061  0.00  0.00    +0.000 N 
ATOM      7  C   UNL     1      -4.011  12.840  20.090  0.00  0.00    +0.000 A 
ATOM      8  S   UNL     1      -5.114  13.677  21.130  0.00  0.00    +0.000 S 
ATOM      9  C   UNL     1      -6.547  13.330  20.038  0.00  0.00    +0.000 C 
ATOM     10  C   UNL     1      -6.116  12.173  19.149  0.00  0.00    +0.000 C 
ENDROOT
BRANCH   1  13
ATOM     11  C   UNL     1      -1.624  14.791  21.205  0.00  0.00    +0.000 C 
ATOM     12  O   UNL     1      -1.243  15.394  20.202  0.00  0.00    +0.000 OA
ATOM     13  N   UNL     1      -2.050  13.491  21.270  0.00  0.00    +0.000 N 
ATOM     14  H   UNL     1      -2.566  13.381  22.146  0.00  0.00    +0.000 HD
BRANCH  11  16
ATOM     15  C   UNL     1      -1.126  14.533  23.511  0.00  0.00    +0.000 C 
ATOM     16  O   UNL     1      -1.660  15.325  22.447  0.00  0.00    +0.000 OA
ENDBRANCH  11  16
ENDBRANCH   1  13
BRANCH  10  17
ATOM     17  C   UNL     1      -6.731  10.868  19.721  0.00  0.00    +0.000 C 
ATOM     18  O   UNL     1      -7.003   9.991  18.849  0.00  0.00    +0.000 OA
ATOM     19  O   UNL     1      -6.907  10.836  20.974  0.00  0.00    +0.000 OA
ENDBRANCH  10  17
BRANCH   2  20
ATOM     20  C   UNL     1      -0.399  11.831  19.476  0.00  0.00    +0.000 C 
BRANCH  20  21
ATOM     21  C   UNL     1       0.003  10.535  20.186  0.00  0.00    +0.000 A 
ATOM     22  C   UNL     1      -0.376  10.339  21.532  0.00  0.00    +0.000 A 
ATOM     23  C   UNL     1       0.064   9.242  22.260  0.00  0.00    +0.000 A 
ATOM     24  C   UNL     1       0.906   8.315  21.661  0.00  0.00    +0.000 A 
ATOM     25  C   UNL     1       1.302   8.459  20.328  0.00  0.00    +0.000 A 
ATOM     26  C   UNL     1       2.145   7.499  19.752  0.00  0.00    +0.000 A 
ATOM     27  C   UNL     1       2.549   7.603  18.425  0.00  0.00    +0.000 A 
ATOM     28  C   UNL     1       2.124   8.679  17.660  0.00  0.00    +0.000 A 
ATOM     29  C   UNL     1       1.300   9.657  18.224  0.00  0.00    +0.000 A 
ATOM     30  C   UNL     1       0.857   9.577  19.562  0.00  0.00    +0.000 A 
ENDBRANCH  20  21
ENDBRANCH   2  20
TORSDOF 5
ENDMDL
MODEL 8
REMARK VINA RESULT:      -7.7      2.992      5.308
REMARK  Name = 
REMARK  6 active torsions:
REMARK  status: ('A' for Active; 'I' for Inactive)
REMARK    1  A    between atoms: C_1  and  O_2
REMARK    2  A    between atoms: O_2  and  C_3
REMARK    3  A    between atoms: N_5  and  C_6
REMARK    4  A    between atoms: C_7  and  C_8
REMARK    5  A    between atoms: C_8  and  C_9
REMARK    6  A    between atoms: C_26  and  C_27
REMARK                            x       y       z     vdW  Elec       q    Type
REMARK                         _______ _______ _______ _____ _____    ______ ____
ROOT
ATOM      1  C   UNL     1      -0.448  10.481  19.200  0.00  0.00    +0.000 A 
ATOM      2  C   UNL     1       0.664   9.623  19.626  0.00  0.00    +0.000 A 
ATOM      3  C   UNL     1       1.003   9.586  20.930  0.00  0.00    +0.000 A 
ATOM      4  C   UNL     1       0.215  10.299  21.969  0.00  0.00    +0.000 A 
ATOM      5  O   UNL     1       0.436  10.061  23.148  0.00  0.00    +0.000 OA
ATOM      6  N   UNL     1      -0.766  11.125  21.471  0.00  0.00    +0.000 N 
ATOM      7  C   UNL     1      -1.057  11.238  20.136  0.00  0.00    +0.000 A 
ATOM      8  S   UNL     1      -2.324  12.378  19.829  0.00  0.00    +0.000 S 
ATOM      9  C   UNL     1      -2.664  12.618  21.615  0.00  0.00    +0.000 C 
ATOM     10  C   UNL     1      -1.427  12.111  22.342  0.00  0.00    +0.000 C 
ENDROOT
BRANCH   1  13
ATOM     11  C   UNL     1      -1.959  10.294  17.326  0.00  0.00    +0.000 C 
ATOM     12  O   UNL     1      -2.723   9.416  17.726  0.00  0.00    +0.000 OA
ATOM     13  N   UNL     1      -0.743  10.630  17.858  0.00  0.00    +0.000 N 
ATOM     14  H   UNL     1      -0.500  11.559  17.505  0.00  0.00    +0.000 HD
BRANCH  11  16
ATOM     15  C   UNL     1      -2.916  10.484  15.162  0.00  0.00    +0.000 C 
ATOM     16  O   UNL     1      -2.193  11.073  16.245  0.00  0.00    +0.000 OA
ENDBRANCH  11  16
ENDBRANCH   1  13
BRANCH  10  17
ATOM     17  C   UNL     1      -0.563  13.338  22.739  0.00  0.00    +0.000 C 
ATOM     18  O   UNL     1      -0.991  13.977  23.745  0.00  0.00    +0.000 OA
ATOM     19  O   UNL     1       0.446  13.568  22.012  0.00  0.00    +0.000 OA
ENDBRANCH  10  17
BRANCH   2  20
ATOM     20  C   UNL     1       1.518   8.893  18.616  0.00  0.00    +0.000 C 
BRANCH  20  21
ATOM     21  C   UNL     1       2.000   7.508  19.057  0.00  0.00    +0.000 A 
ATOM     22  C   UNL     1       1.394   6.888  20.172  0.00  0.00    +0.000 A 
ATOM     23  C   UNL     1       1.872   5.691  20.687  0.00  0.00    +0.000 A 
ATOM     24  C   UNL     1       2.978   5.086  20.107  0.00  0.00    +0.000 A 
ATOM     25  C   UNL     1       3.607   5.655  18.995  0.00  0.00    +0.000 A 
ATOM     26  C   UNL     1       4.715   5.013  18.427  0.00  0.00    +0.000 A 
ATOM     27  C   UNL     1       5.358   5.543  17.313  0.00  0.00    +0.000 A 
ATOM     28  C   UNL     1       4.907   6.733  16.760  0.00  0.00    +0.000 A 
ATOM     29  C   UNL     1       3.816   7.397  17.327  0.00  0.00    +0.000 A 
ATOM     30  C   UNL     1       3.129   6.883  18.447  0.00  0.00    +0.000 A 
ENDBRANCH  20  21
ENDBRANCH   2  20
TORSDOF 5
ENDMDL
MODEL 9
REMARK VINA RESULT:      -7.5      2.986      6.863
REMARK  Name = 
REMARK  6 active torsions:
REMARK  status: ('A' for Active; 'I' for Inactive)
REMARK    1  A    between atoms: C_1  and  O_2
REMARK    2  A    between atoms: O_2  and  C_3
REMARK    3  A    between atoms: N_5  and  C_6
REMARK    4  A    between atoms: C_7  and  C_8
REMARK    5  A    between atoms: C_8  and  C_9
REMARK    6  A    between atoms: C_26  and  C_27
REMARK                            x       y       z     vdW  Elec       q    Type
REMARK                         _______ _______ _______ _____ _____    ______ ____
ROOT
ATOM      1  C   UNL     1       2.986   5.722  18.445  0.00  0.00    +0.000 A 
ATOM      2  C   UNL     1       2.750   7.077  17.933  0.00  0.00    +0.000 A 
ATOM      3  C   UNL     1       3.782   7.771  17.411  0.00  0.00    +0.000 A 
ATOM      4  C   UNL     1       5.127   7.166  17.233  0.00  0.00    +0.000 A 
ATOM      5  O   UNL     1       5.961   7.762  16.565  0.00  0.00    +0.000 OA
ATOM      6  N   UNL     1       5.270   5.919  17.798  0.00  0.00    +0.000 N 
ATOM      7  C   UNL     1       4.247   5.244  18.413  0.00  0.00    +0.000 A 
ATOM      8  S   UNL     1       4.751   3.713  19.046  0.00  0.00    +0.000 S 
ATOM      9  C   UNL     1       6.417   3.847  18.288  0.00  0.00    +0.000 C 
ATOM     10  C   UNL     1       6.605   5.321  17.965  0.00  0.00    +0.000 C 
ENDROOT
BRANCH   1  13
ATOM     11  C   UNL     1       1.297   3.997  18.507  0.00  0.00    +0.000 C 
ATOM     12  O   UNL     1       1.071   3.846  17.306  0.00  0.00    +0.000 OA
ATOM     13  N   UNL     1       1.977   5.033  19.091  0.00  0.00    +0.000 N 
ATOM     14  H   UNL     1       2.249   4.730  20.029  0.00  0.00    +0.000 HD
BRANCH  11  16
ATOM     15  C   UNL     1       1.251   3.460  20.818  0.00  0.00    +0.000 C 
ATOM     16  O   UNL     1       0.872   3.153  19.475  0.00  0.00    +0.000 OA
ENDBRANCH  11  16
ENDBRANCH   1  13
BRANCH  10  17
ATOM     17  C   UNL     1       7.486   5.952  19.077  0.00  0.00    +0.000 C 
ATOM     18  O   UNL     1       8.174   6.945  18.699  0.00  0.00    +0.000 OA
ATOM     19  O   UNL     1       7.432   5.397  20.213  0.00  0.00    +0.000 OA
ENDBRANCH  10  17
BRANCH   2  20
ATOM     20  C   UNL     1       1.412   7.755  18.106  0.00  0.00    +0.000 C 
BRANCH  20  21
ATOM     21  C   UNL     1       1.249   8.542  19.411  0.00  0.00    +0.000 A 
ATOM     22  C   UNL     1       1.763   8.004  20.611  0.00  0.00    +0.000 A 
ATOM     23  C   UNL     1       1.538   8.615  21.837  0.00  0.00    +0.000 A 
ATOM     24  C   UNL     1       0.780   9.776  21.896  0.00  0.00    +0.000 A 
ATOM     25  C   UNL     1       0.257  10.353  20.735  0.00  0.00    +0.000 A 
ATOM     26  C   UNL     1      -0.495  11.531  20.831  0.00  0.00    +0.000 A 
ATOM     27  C   UNL     1      -1.021  12.140  19.696  0.00  0.00    +0.000 A 
ATOM     28  C   UNL     1      -0.811  11.569  18.449  0.00  0.00    +0.000 A 
ATOM     29  C   UNL     1      -0.080  10.382  18.338  0.00  0.00    +0.000 A 
ATOM     30  C   UNL     1       0.481   9.744  19.465  0.00  0.00    +0.000 A 
ENDBRANCH  20  21
ENDBRANCH   2  20
TORSDOF 5
ENDMDL
