MODEL 1
REMARK VINA RESULT:      -8.4      0.000      0.000
REMARK  Name = 
REMARK  4 active torsions:
REMARK  status: ('A' for Active; 'I' for Inactive)
REMARK    1  A    between atoms: C_1  and  C_2
REMARK    2  A    between atoms: C_5  and  C_6
REMARK    3  A    between atoms: C_12  and  N_13
REMARK    4  A    between atoms: C_14  and  C_16
REMARK                            x       y       z     vdW  Elec       q    Type
REMARK                         _______ _______ _______ _____ _____    ______ ____
ROOT
ATOM      1  C   UNL     1       5.427   4.725  17.577  0.00  0.00    +0.000 C 
ATOM      2  O   UNL     1       5.786   5.694  18.248  0.00  0.00    +0.000 OA
ATOM      3  N   UNL     1       4.640   3.729  18.119  0.00  0.00    +0.000 N 
ATOM      4  C   UNL     1       3.806   2.729  17.447  0.00  0.00    +0.000 C 
ATOM      5  C   UNL     1       3.033   2.121  18.632  0.00  0.00    +0.000 C 
ATOM      6  C   UNL     1       2.011   3.148  19.147  0.00  0.00    +0.000 C 
ATOM      7  C   UNL     1       2.903   4.220  19.825  0.00  0.00    +0.000 C 
ATOM      8  C   UNL     1       4.333   3.665  19.556  0.00  0.00    +0.000 C 
ATOM      9  C   UNL     1       4.099   2.165  19.732  0.00  0.00    +0.000 C 
ENDROOT
BRANCH   1  14
ATOM     10  C   UNL     1       7.225   4.378  12.062  0.00  0.00    +0.000 C 
ATOM     11  C   UNL     1       6.773   4.484  13.486  0.00  0.00    +0.000 A 
ATOM     12  C   UNL     1       7.634   4.905  14.504  0.00  0.00    +0.000 A 
ATOM     13  C   UNL     1       7.176   4.989  15.827  0.00  0.00    +0.000 A 
ATOM     14  C   UNL     1       5.852   4.653  16.149  0.00  0.00    +0.000 A 
ATOM     15  C   UNL     1       5.015   4.178  15.139  0.00  0.00    +0.000 A 
ATOM     16  C   UNL     1       5.467   4.131  13.823  0.00  0.00    +0.000 A 
ATOM     17  F   UNL     1       4.621   3.714  12.869  0.00  0.00    +0.000 F 
ENDBRANCH   1  14
BRANCH   7  18
ATOM     18  N   UNL     1       2.664   5.554  19.314  0.00  0.00    +0.000 N 
ATOM     19  C   UNL     1       1.990   6.481  20.085  0.00  0.00    +0.000 C 
ATOM     20  O   UNL     1       1.544   6.232  21.200  0.00  0.00    +0.000 OA
ATOM     21  H   UNL     1       3.228   5.855  18.526  0.00  0.00    +0.000 HD
BRANCH  19  22
ATOM     22  C   UNL     1       1.820   7.834  19.513  0.00  0.00    +0.000 A 
ATOM     23  C   UNL     1       2.211   8.170  18.214  0.00  0.00    +0.000 A 
ATOM     24  C   UNL     1       1.988   9.465  17.753  0.00  0.00    +0.000 A 
ATOM     25  C   UNL     1       1.378  10.377  18.598  0.00  0.00    +0.000 A 
ATOM     26  N   UNL     1       0.977  10.079  19.855  0.00  0.00    +0.000 NA
ATOM     27  C   UNL     1       1.200   8.811  20.280  0.00  0.00    +0.000 A 
ENDBRANCH  19  22
ENDBRANCH   7  18
TORSDOF 3
ENDMDL
MODEL 2
REMARK VINA RESULT:      -8.1      1.087      1.604
REMARK  Name = 
REMARK  4 active torsions:
REMARK  status: ('A' for Active; 'I' for Inactive)
REMARK    1  A    between atoms: C_1  and  C_2
REMARK    2  A    between atoms: C_5  and  C_6
REMARK    3  A    between atoms: C_12  and  N_13
REMARK    4  A    between atoms: C_14  and  C_16
REMARK                            x       y       z     vdW  Elec       q    Type
REMARK                         _______ _______ _______ _____ _____    ______ ____
ROOT
ATOM      1  C   UNL     1       5.585   4.729  17.557  0.00  0.00    +0.000 C 
ATOM      2  O   UNL     1       5.979   5.736  18.146  0.00  0.00    +0.000 OA
ATOM      3  N   UNL     1       4.816   3.777  18.197  0.00  0.00    +0.000 N 
ATOM      4  C   UNL     1       3.949   2.743  17.629  0.00  0.00    +0.000 C 
ATOM      5  C   UNL     1       3.224   2.221  18.884  0.00  0.00    +0.000 C 
ATOM      6  C   UNL     1       2.232   3.288  19.373  0.00  0.00    +0.000 C 
ATOM      7  C   UNL     1       3.159   4.395  19.940  0.00  0.00    +0.000 C 
ATOM      8  C   UNL     1       4.572   3.811  19.647  0.00  0.00    +0.000 C 
ATOM      9  C   UNL     1       4.337   2.327  19.931  0.00  0.00    +0.000 C 
ENDROOT
BRANCH   1  14
ATOM     10  C   UNL     1       6.842   4.091  11.919  0.00  0.00    +0.000 C 
ATOM     11  C   UNL     1       6.511   4.236  13.373  0.00  0.00    +0.000 A 
ATOM     12  C   UNL     1       5.362   3.666  13.929  0.00  0.00    +0.000 A 
ATOM     13  C   UNL     1       5.083   3.826  15.293  0.00  0.00    +0.000 A 
ATOM     14  C   UNL     1       5.948   4.559  16.120  0.00  0.00    +0.000 A 
ATOM     15  C   UNL     1       7.061   5.175  15.548  0.00  0.00    +0.000 A 
ATOM     16  C   UNL     1       7.350   4.982  14.201  0.00  0.00    +0.000 A 
ATOM     17  F   UNL     1       8.455   5.549  13.693  0.00  0.00    +0.000 F 
ENDBRANCH   1  14
BRANCH   7  18
ATOM     18  N   UNL     1       2.905   5.694  19.353  0.00  0.00    +0.000 N 
ATOM     19  C   UNL     1       2.059   6.586  19.981  0.00  0.00    +0.000 C 
ATOM     20  O   UNL     1       1.467   6.330  21.025  0.00  0.00    +0.000 OA
ATOM     21  H   UNL     1       3.560   6.018  18.647  0.00  0.00    +0.000 HD
BRANCH  19  22
ATOM     22  C   UNL     1       1.881   7.908  19.343  0.00  0.00    +0.000 A 
ATOM     23  C   UNL     1       1.209   8.969  19.956  0.00  0.00    +0.000 A 
ATOM     24  C   UNL     1       1.113  10.187  19.287  0.00  0.00    +0.000 A 
ATOM     25  C   UNL     1       1.696  10.307  18.036  0.00  0.00    +0.000 A 
ATOM     26  N   UNL     1       2.364   9.304  17.422  0.00  0.00    +0.000 NA
ATOM     27  C   UNL     1       2.448   8.130  18.095  0.00  0.00    +0.000 A 
ENDBRANCH  19  22
ENDBRANCH   7  18
TORSDOF 3
ENDMDL
MODEL 3
REMARK VINA RESULT:      -8.0      3.482      6.945
REMARK  Name = 
REMARK  4 active torsions:
REMARK  status: ('A' for Active; 'I' for Inactive)
REMARK    1  A    between atoms: C_1  and  C_2
REMARK    2  A    between atoms: C_5  and  C_6
REMARK    3  A    between atoms: C_12  and  N_13
REMARK    4  A    between atoms: C_14  and  C_16
REMARK                            x       y       z     vdW  Elec       q    Type
REMARK                         _______ _______ _______ _____ _____    ______ ____
ROOT
ATOM      1  C   UNL     1       2.042   6.761  18.975  0.00  0.00    +0.000 C 
ATOM      2  O   UNL     1       2.677   6.939  17.935  0.00  0.00    +0.000 OA
ATOM      3  N   UNL     1       1.794   5.492  19.457  0.00  0.00    +0.000 N 
ATOM      4  C   UNL     1       1.419   5.063  20.806  0.00  0.00    +0.000 C 
ATOM      5  C   UNL     1       1.551   3.532  20.695  0.00  0.00    +0.000 C 
ATOM      6  C   UNL     1       3.041   3.160  20.605  0.00  0.00    +0.000 C 
ATOM      7  C   UNL     1       3.438   3.650  19.188  0.00  0.00    +0.000 C 
ATOM      8  C   UNL     1       2.110   4.282  18.681  0.00  0.00    +0.000 C 
ATOM      9  C   UNL     1       1.086   3.301  19.254  0.00  0.00    +0.000 C 
ENDROOT
BRANCH   1  14
ATOM     10  C   UNL     1       0.018  11.444  21.757  0.00  0.00    +0.000 C 
ATOM     11  C   UNL     1       0.550  10.249  21.028  0.00  0.00    +0.000 A 
ATOM     12  C   UNL     1       0.762  10.262  19.646  0.00  0.00    +0.000 A 
ATOM     13  C   UNL     1       1.259   9.123  18.997  0.00  0.00    +0.000 A 
ATOM     14  C   UNL     1       1.550   7.956  19.720  0.00  0.00    +0.000 A 
ATOM     15  C   UNL     1       1.281   7.930  21.088  0.00  0.00    +0.000 A 
ATOM     16  C   UNL     1       0.821   9.076  21.731  0.00  0.00    +0.000 A 
ATOM     17  F   UNL     1       0.618   9.031  23.057  0.00  0.00    +0.000 F 
ENDBRANCH   1  14
BRANCH   7  18
ATOM     18  N   UNL     1       4.572   4.551  19.204  0.00  0.00    +0.000 N 
ATOM     19  C   UNL     1       5.163   4.943  18.020  0.00  0.00    +0.000 C 
ATOM     20  O   UNL     1       4.796   4.543  16.919  0.00  0.00    +0.000 OA
ATOM     21  H   UNL     1       4.729   5.081  20.056  0.00  0.00    +0.000 HD
BRANCH  19  22
ATOM     22  C   UNL     1       6.289   5.897  18.113  0.00  0.00    +0.000 A 
ATOM     23  C   UNL     1       7.321   5.773  19.047  0.00  0.00    +0.000 A 
ATOM     24  C   UNL     1       8.354   6.707  19.044  0.00  0.00    +0.000 A 
ATOM     25  C   UNL     1       8.325   7.728  18.108  0.00  0.00    +0.000 A 
ATOM     26  N   UNL     1       7.347   7.869  17.184  0.00  0.00    +0.000 NA
ATOM     27  C   UNL     1       6.356   6.944  17.204  0.00  0.00    +0.000 A 
ENDBRANCH  19  22
ENDBRANCH   7  18
TORSDOF 3
ENDMDL
MODEL 4
REMARK VINA RESULT:      -7.7      3.276      6.794
REMARK  Name = 
REMARK  4 active torsions:
REMARK  status: ('A' for Active; 'I' for Inactive)
REMARK    1  A    between atoms: C_1  and  C_2
REMARK    2  A    between atoms: C_5  and  C_6
REMARK    3  A    between atoms: C_12  and  N_13
REMARK    4  A    between atoms: C_14  and  C_16
REMARK                            x       y       z     vdW  Elec       q    Type
REMARK                         _______ _______ _______ _____ _____    ______ ____
ROOT
ATOM      1  C   UNL     1       2.051   6.605  18.907  0.00  0.00    +0.000 C 
ATOM      2  O   UNL     1       2.697   6.787  17.875  0.00  0.00    +0.000 OA
ATOM      3  N   UNL     1       1.823   5.334  19.397  0.00  0.00    +0.000 N 
ATOM      4  C   UNL     1       1.438   4.909  20.744  0.00  0.00    +0.000 C 
ATOM      5  C   UNL     1       1.604   3.381  20.648  0.00  0.00    +0.000 C 
ATOM      6  C   UNL     1       3.102   3.040  20.583  0.00  0.00    +0.000 C 
ATOM      7  C   UNL     1       3.510   3.526  19.168  0.00  0.00    +0.000 C 
ATOM      8  C   UNL     1       2.176   4.125  18.636  0.00  0.00    +0.000 C 
ATOM      9  C   UNL     1       1.165   3.128  19.203  0.00  0.00    +0.000 C 
ENDROOT
BRANCH   1  14
ATOM     10  C   UNL     1       0.101  11.216  21.858  0.00  0.00    +0.000 C 
ATOM     11  C   UNL     1       0.593  10.015  21.110  0.00  0.00    +0.000 A 
ATOM     12  C   UNL     1       0.913   8.820  21.761  0.00  0.00    +0.000 A 
ATOM     13  C   UNL     1       1.374   7.718  21.028  0.00  0.00    +0.000 A 
ATOM     14  C   UNL     1       1.522   7.795  19.635  0.00  0.00    +0.000 A 
ATOM     15  C   UNL     1       1.258   9.008  18.998  0.00  0.00    +0.000 A 
ATOM     16  C   UNL     1       0.768  10.087  19.728  0.00  0.00    +0.000 A 
ATOM     17  F   UNL     1       0.478  11.224  19.077  0.00  0.00    +0.000 F 
ENDBRANCH   1  14
BRANCH   7  18
ATOM     18  N   UNL     1       4.624   4.451  19.192  0.00  0.00    +0.000 N 
ATOM     19  C   UNL     1       5.212   4.860  18.012  0.00  0.00    +0.000 C 
ATOM     20  O   UNL     1       4.859   4.456  16.909  0.00  0.00    +0.000 OA
ATOM     21  H   UNL     1       4.765   4.982  20.046  0.00  0.00    +0.000 HD
BRANCH  19  22
ATOM     22  C   UNL     1       6.317   5.838  18.114  0.00  0.00    +0.000 A 
ATOM     23  C   UNL     1       7.344   5.736  19.056  0.00  0.00    +0.000 A 
ATOM     24  C   UNL     1       8.356   6.693  19.061  0.00  0.00    +0.000 A 
ATOM     25  C   UNL     1       8.313   7.712  18.125  0.00  0.00    +0.000 A 
ATOM     26  N   UNL     1       7.340   7.832  17.192  0.00  0.00    +0.000 NA
ATOM     27  C   UNL     1       6.369   6.886  17.204  0.00  0.00    +0.000 A 
ENDBRANCH  19  22
ENDBRANCH   7  18
TORSDOF 3
ENDMDL
MODEL 5
REMARK VINA RESULT:      -7.7      3.596      6.038
REMARK  Name = 
REMARK  4 active torsions:
REMARK  status: ('A' for Active; 'I' for Inactive)
REMARK    1  A    between atoms: C_1  and  C_2
REMARK    2  A    between atoms: C_5  and  C_6
REMARK    3  A    between atoms: C_12  and  N_13
REMARK    4  A    between atoms: C_14  and  C_16
REMARK                            x       y       z     vdW  Elec       q    Type
REMARK                         _______ _______ _______ _____ _____    ______ ____
ROOT
ATOM      1  C   UNL     1       2.013   8.668  18.697  0.00  0.00    +0.000 C 
ATOM      2  O   UNL     1       1.961   9.620  17.917  0.00  0.00    +0.000 OA
ATOM      3  N   UNL     1       1.589   8.787  20.005  0.00  0.00    +0.000 N 
ATOM      4  C   UNL     1       1.210   7.745  20.962  0.00  0.00    +0.000 C 
ATOM      5  C   UNL     1       0.616   8.580  22.112  0.00  0.00    +0.000 C 
ATOM      6  C   UNL     1      -0.735   9.163  21.667  0.00  0.00    +0.000 C 
ATOM      7  C   UNL     1      -0.326  10.240  20.629  0.00  0.00    +0.000 C 
ATOM      8  C   UNL     1       1.222  10.084  20.596  0.00  0.00    +0.000 C 
ATOM      9  C   UNL     1       1.518   9.818  22.072  0.00  0.00    +0.000 C 
ENDROOT
BRANCH   1  14
ATOM     10  C   UNL     1       4.202   3.629  16.802  0.00  0.00    +0.000 C 
ATOM     11  C   UNL     1       3.647   4.937  17.275  0.00  0.00    +0.000 A 
ATOM     12  C   UNL     1       4.379   6.125  17.185  0.00  0.00    +0.000 A 
ATOM     13  C   UNL     1       3.828   7.331  17.641  0.00  0.00    +0.000 A 
ATOM     14  C   UNL     1       2.538   7.365  18.194  0.00  0.00    +0.000 A 
ATOM     15  C   UNL     1       1.837   6.167  18.335  0.00  0.00    +0.000 A 
ATOM     16  C   UNL     1       2.377   4.981  17.849  0.00  0.00    +0.000 A 
ATOM     17  F   UNL     1       1.655   3.855  17.957  0.00  0.00    +0.000 F 
ENDBRANCH   1  14
BRANCH   7  18
ATOM     18  N   UNL     1      -0.981  10.062  19.349  0.00  0.00    +0.000 N 
ATOM     19  C   UNL     1      -1.924  10.975  18.920  0.00  0.00    +0.000 C 
ATOM     20  O   UNL     1      -2.274  11.944  19.587  0.00  0.00    +0.000 OA
ATOM     21  H   UNL     1      -0.539   9.432  18.687  0.00  0.00    +0.000 HD
BRANCH  19  22
ATOM     22  C   UNL     1      -2.519  10.750  17.586  0.00  0.00    +0.000 A 
ATOM     23  C   UNL     1      -1.989   9.855  16.652  0.00  0.00    +0.000 A 
ATOM     24  C   UNL     1      -2.633   9.691  15.429  0.00  0.00    +0.000 A 
ATOM     25  C   UNL     1      -3.785  10.419  15.180  0.00  0.00    +0.000 A 
ATOM     26  N   UNL     1      -4.331  11.283  16.067  0.00  0.00    +0.000 NA
ATOM     27  C   UNL     1      -3.689  11.421  17.252  0.00  0.00    +0.000 A 
ENDBRANCH  19  22
ENDBRANCH   7  18
TORSDOF 3
ENDMDL
MODEL 6
REMARK VINA RESULT:      -7.4      3.503      6.054
REMARK  Name = 
REMARK  4 active torsions:
REMARK  status: ('A' for Active; 'I' for Inactive)
REMARK    1  A    between atoms: C_1  and  C_2
REMARK    2  A    between atoms: C_5  and  C_6
REMARK    3  A    between atoms: C_12  and  N_13
REMARK    4  A    between atoms: C_14  and  C_16
REMARK                            x       y       z     vdW  Elec       q    Type
REMARK                         _______ _______ _______ _____ _____    ______ ____
ROOT
ATOM      1  C   UNL     1       2.054   8.699  18.750  0.00  0.00    +0.000 C 
ATOM      2  O   UNL     1       2.000   9.650  17.970  0.00  0.00    +0.000 OA
ATOM      3  N   UNL     1       1.606   8.810  20.051  0.00  0.00    +0.000 N 
ATOM      4  C   UNL     1       1.228   7.761  21.000  0.00  0.00    +0.000 C 
ATOM      5  C   UNL     1       0.600   8.584  22.141  0.00  0.00    +0.000 C 
ATOM      6  C   UNL     1      -0.753   9.144  21.673  0.00  0.00    +0.000 C 
ATOM      7  C   UNL     1      -0.345  10.229  20.642  0.00  0.00    +0.000 C 
ATOM      8  C   UNL     1       1.207  10.100  20.636  0.00  0.00    +0.000 C 
ATOM      9  C   UNL     1       1.481   9.837  22.117  0.00  0.00    +0.000 C 
ENDROOT
BRANCH   1  14
ATOM     10  C   UNL     1       4.072   3.623  16.766  0.00  0.00    +0.000 C 
ATOM     11  C   UNL     1       3.544   4.922  17.293  0.00  0.00    +0.000 A 
ATOM     12  C   UNL     1       2.301   5.010  17.929  0.00  0.00    +0.000 A 
ATOM     13  C   UNL     1       1.838   6.243  18.407  0.00  0.00    +0.000 A 
ATOM     14  C   UNL     1       2.610   7.406  18.255  0.00  0.00    +0.000 A 
ATOM     15  C   UNL     1       3.822   7.322  17.568  0.00  0.00    +0.000 A 
ATOM     16  C   UNL     1       4.290   6.088  17.128  0.00  0.00    +0.000 A 
ATOM     17  F   UNL     1       5.482   6.036  16.513  0.00  0.00    +0.000 F 
ENDBRANCH   1  14
BRANCH   7  18
ATOM     18  N   UNL     1      -0.974  10.041  19.352  0.00  0.00    +0.000 N 
ATOM     19  C   UNL     1      -1.916  10.945  18.901  0.00  0.00    +0.000 C 
ATOM     20  O   UNL     1      -2.286  11.914  19.557  0.00  0.00    +0.000 OA
ATOM     21  H   UNL     1      -0.515   9.412  18.700  0.00  0.00    +0.000 HD
BRANCH  19  22
ATOM     22  C   UNL     1      -2.484  10.710  17.557  0.00  0.00    +0.000 A 
ATOM     23  C   UNL     1      -1.953   9.788  16.652  0.00  0.00    +0.000 A 
ATOM     24  C   UNL     1      -2.571   9.617  15.416  0.00  0.00    +0.000 A 
ATOM     25  C   UNL     1      -3.700  10.366  15.127  0.00  0.00    +0.000 A 
ATOM     26  N   UNL     1      -4.247  11.257  15.986  0.00  0.00    +0.000 NA
ATOM     27  C   UNL     1      -3.630  11.402  17.184  0.00  0.00    +0.000 A 
ENDBRANCH  19  22
ENDBRANCH   7  18
TORSDOF 3
ENDMDL
MODEL 7
REMARK VINA RESULT:      -7.3      1.526      1.916
REMARK  Name = 
REMARK  4 active torsions:
REMARK  status: ('A' for Active; 'I' for Inactive)
REMARK    1  A    between atoms: C_1  and  C_2
REMARK    2  A    between atoms: C_5  and  C_6
REMARK    3  A    between atoms: C_12  and  N_13
REMARK    4  A    between atoms: C_14  and  C_16
REMARK                            x       y       z     vdW  Elec       q    Type
REMARK                         _______ _______ _______ _____ _____    ______ ____
ROOT
ATOM      1  C   UNL     1       4.481   5.156  18.846  0.00  0.00    +0.000 C 
ATOM      2  O   UNL     1       5.001   6.068  19.491  0.00  0.00    +0.000 OA
ATOM      3  N   UNL     1       3.471   4.382  19.382  0.00  0.00    +0.000 N 
ATOM      4  C   UNL     1       2.483   3.539  18.706  0.00  0.00    +0.000 C 
ATOM      5  C   UNL     1       1.534   3.181  19.865  0.00  0.00    +0.000 C 
ATOM      6  C   UNL     1       0.727   4.429  20.260  0.00  0.00    +0.000 C 
ATOM      7  C   UNL     1       1.788   5.331  20.942  0.00  0.00    +0.000 C 
ATOM      8  C   UNL     1       3.079   4.474  20.798  0.00  0.00    +0.000 C 
ATOM      9  C   UNL     1       2.522   3.069  21.031  0.00  0.00    +0.000 C 
ENDROOT
BRANCH   1  14
ATOM     10  C   UNL     1       6.273   4.041  13.432  0.00  0.00    +0.000 C 
ATOM     11  C   UNL     1       5.827   4.317  14.835  0.00  0.00    +0.000 A 
ATOM     12  C   UNL     1       5.886   3.341  15.834  0.00  0.00    +0.000 A 
ATOM     13  C   UNL     1       5.456   3.634  17.135  0.00  0.00    +0.000 A 
ATOM     14  C   UNL     1       4.959   4.908  17.455  0.00  0.00    +0.000 A 
ATOM     15  C   UNL     1       4.847   5.859  16.441  0.00  0.00    +0.000 A 
ATOM     16  C   UNL     1       5.309   5.570  15.160  0.00  0.00    +0.000 A 
ATOM     17  F   UNL     1       5.231   6.524  14.219  0.00  0.00    +0.000 F 
ENDBRANCH   1  14
BRANCH   7  18
ATOM     18  N   UNL     1       1.866   6.651  20.351  0.00  0.00    +0.000 N 
ATOM     19  C   UNL     1       1.023   7.655  20.783  0.00  0.00    +0.000 C 
ATOM     20  O   UNL     1       0.165   7.489  21.645  0.00  0.00    +0.000 OA
ATOM     21  H   UNL     1       2.711   6.877  19.835  0.00  0.00    +0.000 HD
BRANCH  19  22
ATOM     22  C   UNL     1       1.190   8.987  20.162  0.00  0.00    +0.000 A 
ATOM     23  C   UNL     1       1.562   9.167  18.828  0.00  0.00    +0.000 A 
ATOM     24  C   UNL     1       1.670  10.461  18.323  0.00  0.00    +0.000 A 
ATOM     25  C   UNL     1       1.398  11.528  19.164  0.00  0.00    +0.000 A 
ATOM     26  N   UNL     1       1.023  11.386  20.456  0.00  0.00    +0.000 NA
ATOM     27  C   UNL     1       0.920  10.118  20.922  0.00  0.00    +0.000 A 
ENDBRANCH  19  22
ENDBRANCH   7  18
TORSDOF 3
ENDMDL
MODEL 8
REMARK VINA RESULT:      -7.2      1.337      1.765
REMARK  Name = 
REMARK  4 active torsions:
REMARK  status: ('A' for Active; 'I' for Inactive)
REMARK    1  A    between atoms: C_1  and  C_2
REMARK    2  A    between atoms: C_5  and  C_6
REMARK    3  A    between atoms: C_12  and  N_13
REMARK    4  A    between atoms: C_14  and  C_16
REMARK                            x       y       z     vdW  Elec       q    Type
REMARK                         _______ _______ _______ _____ _____    ______ ____
ROOT
ATOM      1  C   UNL     1       4.791   4.924  18.555  0.00  0.00    +0.000 C 
ATOM      2  O   UNL     1       5.265   5.896  19.144  0.00  0.00    +0.000 OA
ATOM      3  N   UNL     1       3.837   4.120  19.148  0.00  0.00    +0.000 N 
ATOM      4  C   UNL     1       2.890   3.187  18.533  0.00  0.00    +0.000 C 
ATOM      5  C   UNL     1       1.982   2.834  19.725  0.00  0.00    +0.000 C 
ATOM      6  C   UNL     1       1.109   4.051  20.072  0.00  0.00    +0.000 C 
ATOM      7  C   UNL     1       2.125   5.046  20.689  0.00  0.00    +0.000 C 
ATOM      8  C   UNL     1       3.462   4.260  20.563  0.00  0.00    +0.000 C 
ATOM      9  C   UNL     1       2.993   2.839  20.876  0.00  0.00    +0.000 C 
ENDROOT
BRANCH   1  14
ATOM     10  C   UNL     1       6.477   3.828  13.103  0.00  0.00    +0.000 C 
ATOM     11  C   UNL     1       6.034   4.092  14.509  0.00  0.00    +0.000 A 
ATOM     12  C   UNL     1       4.790   3.662  14.984  0.00  0.00    +0.000 A 
ATOM     13  C   UNL     1       4.408   3.931  16.305  0.00  0.00    +0.000 A 
ATOM     14  C   UNL     1       5.262   4.633  17.170  0.00  0.00    +0.000 A 
ATOM     15  C   UNL     1       6.475   5.111  16.673  0.00  0.00    +0.000 A 
ATOM     16  C   UNL     1       6.862   4.810  15.371  0.00  0.00    +0.000 A 
ATOM     17  F   UNL     1       8.057   5.243  14.939  0.00  0.00    +0.000 F 
ENDBRANCH   1  14
BRANCH   7  18
ATOM     18  N   UNL     1       2.115   6.337  20.032  0.00  0.00    +0.000 N 
ATOM     19  C   UNL     1       1.376   7.378  20.558  0.00  0.00    +0.000 C 
ATOM     20  O   UNL     1       0.683   7.269  21.564  0.00  0.00    +0.000 OA
ATOM     21  H   UNL     1       2.858   6.521  19.365  0.00  0.00    +0.000 HD
BRANCH  19  22
ATOM     22  C   UNL     1       1.449   8.677  19.855  0.00  0.00    +0.000 A 
ATOM     23  C   UNL     1       1.916   8.813  18.545  0.00  0.00    +0.000 A 
ATOM     24  C   UNL     1       1.925  10.075  17.956  0.00  0.00    +0.000 A 
ATOM     25  C   UNL     1       1.462  11.155  18.690  0.00  0.00    +0.000 A 
ATOM     26  N   UNL     1       0.992  11.054  19.954  0.00  0.00    +0.000 NA
ATOM     27  C   UNL     1       0.989   9.815  20.504  0.00  0.00    +0.000 A 
ENDBRANCH  19  22
ENDBRANCH   7  18
TORSDOF 3
ENDMDL
MODEL 9
REMARK VINA RESULT:      -7.1      2.883      6.613
REMARK  Name = 
REMARK  4 active torsions:
REMARK  status: ('A' for Active; 'I' for Inactive)
REMARK    1  A    between atoms: C_1  and  C_2
REMARK    2  A    between atoms: C_5  and  C_6
REMARK    3  A    between atoms: C_12  and  N_13
REMARK    4  A    between atoms: C_14  and  C_16
REMARK                            x       y       z     vdW  Elec       q    Type
REMARK                         _______ _______ _______ _____ _____    ______ ____
ROOT
ATOM      1  C   UNL     1       1.941   5.537  18.808  0.00  0.00    +0.000 C 
ATOM      2  O   UNL     1       2.082   5.271  17.614  0.00  0.00    +0.000 OA
ATOM      3  N   UNL     1       1.946   4.547  19.771  0.00  0.00    +0.000 N 
ATOM      4  C   UNL     1       2.176   4.649  21.213  0.00  0.00    +0.000 C 
ATOM      5  C   UNL     1       2.285   3.167  21.617  0.00  0.00    +0.000 C 
ATOM      6  C   UNL     1       3.611   2.596  21.086  0.00  0.00    +0.000 C 
ATOM      7  C   UNL     1       3.372   2.525  19.555  0.00  0.00    +0.000 C 
ATOM      8  C   UNL     1       1.938   3.117  19.425  0.00  0.00    +0.000 C 
ATOM      9  C   UNL     1       1.268   2.527  20.667  0.00  0.00    +0.000 C 
ENDROOT
BRANCH   1  14
ATOM     10  C   UNL     1       1.206  11.128  20.211  0.00  0.00    +0.000 C 
ATOM     11  C   UNL     1       1.410   9.692  19.836  0.00  0.00    +0.000 A 
ATOM     12  C   UNL     1       1.681   9.305  18.521  0.00  0.00    +0.000 A 
ATOM     13  C   UNL     1       1.863   7.950  18.207  0.00  0.00    +0.000 A 
ATOM     14  C   UNL     1       1.775   6.966  19.203  0.00  0.00    +0.000 A 
ATOM     15  C   UNL     1       1.446   7.353  20.502  0.00  0.00    +0.000 A 
ATOM     16  C   UNL     1       1.302   8.702  20.812  0.00  0.00    +0.000 A 
ATOM     17  F   UNL     1       1.032   9.044  22.082  0.00  0.00    +0.000 F 
ENDBRANCH   1  14
BRANCH   7  18
ATOM     18  N   UNL     1       4.388   3.224  18.796  0.00  0.00    +0.000 N 
ATOM     19  C   UNL     1       4.388   3.164  17.417  0.00  0.00    +0.000 C 
ATOM     20  O   UNL     1       3.571   2.514  16.772  0.00  0.00    +0.000 OA
ATOM     21  H   UNL     1       4.905   3.954  19.278  0.00  0.00    +0.000 HD
BRANCH  19  22
ATOM     22  C   UNL     1       5.431   3.937  16.710  0.00  0.00    +0.000 A 
ATOM     23  C   UNL     1       5.442   4.120  15.324  0.00  0.00    +0.000 A 
ATOM     24  C   UNL     1       6.453   4.885  14.749  0.00  0.00    +0.000 A 
ATOM     25  C   UNL     1       7.414   5.447  15.574  0.00  0.00    +0.000 A 
ATOM     26  N   UNL     1       7.424   5.300  16.919  0.00  0.00    +0.000 NA
ATOM     27  C   UNL     1       6.427   4.555  17.456  0.00  0.00    +0.000 A 
ENDBRANCH  19  22
ENDBRANCH   7  18
TORSDOF 3
ENDMDL
