MODEL 1
REMARK VINA RESULT:      -7.8      0.000      0.000
REMARK  Name = 
REMARK  4 active torsions:
REMARK  status: ('A' for Active; 'I' for Inactive)
REMARK    1  A    between atoms: C_2  and  C_17
REMARK    2  A    between atoms: N_3  and  C_4
REMARK    3  A    between atoms: C_4  and  C_5
REMARK    4  A    between atoms: C_5  and  C_7
REMARK                            x       y       z     vdW  Elec       q    Type
REMARK                         _______ _______ _______ _____ _____    ______ ____
ROOT
ATOM      1  C   UNL     1       5.991   5.681  18.812  0.00  0.00    +0.000 C 
ATOM      2  O   UNL     1       6.475   5.111  19.790  0.00  0.00    +0.000 OA
ENDROOT
BRANCH   1   3
ATOM      3  C   UNL     1       4.509   5.633  18.539  0.00  0.00    +0.000 A 
ATOM      4  C   UNL     1       3.817   6.848  18.387  0.00  0.00    +0.000 A 
ATOM      5  C   UNL     1       2.451   6.866  18.135  0.00  0.00    +0.000 A 
ATOM      6  C   UNL     1       1.755   5.671  18.012  0.00  0.00    +0.000 A 
ATOM      7  C   UNL     1       2.410   4.439  18.141  0.00  0.00    +0.000 A 
ATOM      8  C   UNL     1       1.664   3.257  17.998  0.00  0.00    +0.000 A 
ATOM      9  C   UNL     1       2.265   2.008  18.120  0.00  0.00    +0.000 A 
ATOM     10  C   UNL     1       3.620   1.927  18.395  0.00  0.00    +0.000 A 
ATOM     11  C   UNL     1       4.373   3.096  18.546  0.00  0.00    +0.000 A 
ATOM     12  C   UNL     1       3.804   4.390  18.412  0.00  0.00    +0.000 A 
ENDBRANCH   1   3
BRANCH   1  13
ATOM     13  C   UNL     1       6.896   6.508  17.906  0.00  0.00    +0.000 C 
BRANCH  13  16
ATOM     14  O   UNL     1       8.030   4.187  16.783  0.00  0.00    +0.000 OA
ATOM     15  C   UNL     1       7.367   4.936  16.068  0.00  0.00    +0.000 C 
ATOM     16  N   UNL     1       6.771   6.082  16.531  0.00  0.00    +0.000 N 
ATOM     17  H   UNL     1       6.210   6.620  15.875  0.00  0.00    +0.000 HD
BRANCH  15  18
ATOM     18  C   UNL     1       7.150   4.684  14.641  0.00  0.00    +0.000 A 
ATOM     19  C   UNL     1       6.208   3.791  14.161  0.00  0.00    +0.000 A 
ATOM     20  S   UNL     1       6.235   3.759  12.449  0.00  0.00    +0.000 S 
ATOM     21  C   UNL     1       7.494   4.922  12.466  0.00  0.00    +0.000 A 
ATOM     22  N   UNL     1       7.894   5.333  13.652  0.00  0.00    +0.000 NA
ENDBRANCH  15  18
ENDBRANCH  13  16
ENDBRANCH   1  13
TORSDOF 4
ENDMDL
MODEL 2
REMARK VINA RESULT:      -7.8      1.614      1.811
REMARK  Name = 
REMARK  4 active torsions:
REMARK  status: ('A' for Active; 'I' for Inactive)
REMARK    1  A    between atoms: C_2  and  C_17
REMARK    2  A    between atoms: N_3  and  C_4
REMARK    3  A    between atoms: C_4  and  C_5
REMARK    4  A    between atoms: C_5  and  C_7
REMARK                            x       y       z     vdW  Elec       q    Type
REMARK                         _______ _______ _______ _____ _____    ______ ____
ROOT
ATOM      1  C   UNL     1       3.938   6.573  17.839  0.00  0.00    +0.000 C 
ATOM      2  O   UNL     1       3.604   7.499  17.098  0.00  0.00    +0.000 OA
ENDROOT
BRANCH   1   3
ATOM      3  C   UNL     1       2.959   5.960  18.807  0.00  0.00    +0.000 A 
ATOM      4  C   UNL     1       2.456   6.763  19.846  0.00  0.00    +0.000 A 
ATOM      5  C   UNL     1       1.550   6.253  20.769  0.00  0.00    +0.000 A 
ATOM      6  C   UNL     1       1.118   4.938  20.659  0.00  0.00    +0.000 A 
ATOM      7  C   UNL     1       1.584   4.110  19.629  0.00  0.00    +0.000 A 
ATOM      8  C   UNL     1       1.110   2.790  19.555  0.00  0.00    +0.000 A 
ATOM      9  C   UNL     1       1.543   1.925  18.553  0.00  0.00    +0.000 A 
ATOM     10  C   UNL     1       2.463   2.370  17.619  0.00  0.00    +0.000 A 
ATOM     11  C   UNL     1       2.947   3.680  17.685  0.00  0.00    +0.000 A 
ATOM     12  C   UNL     1       2.520   4.601  18.679  0.00  0.00    +0.000 A 
ENDBRANCH   1   3
BRANCH   1  13
ATOM     13  C   UNL     1       5.343   5.993  17.721  0.00  0.00    +0.000 C 
BRANCH  13  16
ATOM     14  O   UNL     1       7.699   4.750  16.806  0.00  0.00    +0.000 OA
ATOM     15  C   UNL     1       6.818   5.034  15.997  0.00  0.00    +0.000 C 
ATOM     16  N   UNL     1       5.635   5.632  16.353  0.00  0.00    +0.000 N 
ATOM     17  H   UNL     1       4.949   5.795  15.620  0.00  0.00    +0.000 HD
BRANCH  15  18
ATOM     18  C   UNL     1       6.943   4.768  14.562  0.00  0.00    +0.000 A 
ATOM     19  C   UNL     1       6.230   3.780  13.906  0.00  0.00    +0.000 A 
ATOM     20  S   UNL     1       6.631   3.760  12.241  0.00  0.00    +0.000 S 
ATOM     21  C   UNL     1       7.723   5.054  12.508  0.00  0.00    +0.000 A 
ATOM     22  N   UNL     1       7.811   5.500  13.745  0.00  0.00    +0.000 NA
ENDBRANCH  15  18
ENDBRANCH  13  16
ENDBRANCH   1  13
TORSDOF 4
ENDMDL
MODEL 3
REMARK VINA RESULT:      -7.3      2.817      4.501
REMARK  Name = 
REMARK  4 active torsions:
REMARK  status: ('A' for Active; 'I' for Inactive)
REMARK    1  A    between atoms: C_2  and  C_17
REMARK    2  A    between atoms: N_3  and  C_4
REMARK    3  A    between atoms: C_4  and  C_5
REMARK    4  A    between atoms: C_5  and  C_7
REMARK                            x       y       z     vdW  Elec       q    Type
REMARK                         _______ _______ _______ _____ _____    ______ ____
ROOT
ATOM      1  C   UNL     1       2.964   3.203  17.323  0.00  0.00    +0.000 C 
ATOM      2  O   UNL     1       2.249   3.147  16.321  0.00  0.00    +0.000 OA
ENDROOT
BRANCH   1   3
ATOM      3  C   UNL     1       2.394   3.581  18.665  0.00  0.00    +0.000 A 
ATOM      4  C   UNL     1       2.007   2.551  19.542  0.00  0.00    +0.000 A 
ATOM      5  C   UNL     1       1.475   2.839  20.793  0.00  0.00    +0.000 A 
ATOM      6  C   UNL     1       1.335   4.160  21.198  0.00  0.00    +0.000 A 
ATOM      7  C   UNL     1       1.722   5.214  20.360  0.00  0.00    +0.000 A 
ATOM      8  C   UNL     1       1.570   6.534  20.819  0.00  0.00    +0.000 A 
ATOM      9  C   UNL     1       1.936   7.618  20.026  0.00  0.00    +0.000 A 
ATOM     10  C   UNL     1       2.451   7.394  18.760  0.00  0.00    +0.000 A 
ATOM     11  C   UNL     1       2.602   6.086  18.289  0.00  0.00    +0.000 A 
ATOM     12  C   UNL     1       2.258   4.951  19.071  0.00  0.00    +0.000 A 
ENDBRANCH   1   3
BRANCH   1  13
ATOM     13  C   UNL     1       4.434   2.813  17.212  0.00  0.00    +0.000 C 
BRANCH  13  16
ATOM     14  O   UNL     1       5.661   3.888  19.509  0.00  0.00    +0.000 OA
ATOM     15  C   UNL     1       5.829   4.442  18.424  0.00  0.00    +0.000 C 
ATOM     16  N   UNL     1       5.279   3.984  17.253  0.00  0.00    +0.000 N 
ATOM     17  H   UNL     1       5.504   4.487  16.398  0.00  0.00    +0.000 HD
BRANCH  15  18
ATOM     18  C   UNL     1       6.634   5.656  18.271  0.00  0.00    +0.000 A 
ATOM     19  C   UNL     1       6.358   6.639  17.337  0.00  0.00    +0.000 A 
ATOM     20  S   UNL     1       7.504   7.906  17.447  0.00  0.00    +0.000 S 
ATOM     21  C   UNL     1       8.288   7.061  18.716  0.00  0.00    +0.000 A 
ATOM     22  N   UNL     1       7.758   5.907  19.064  0.00  0.00    +0.000 NA
ENDBRANCH  15  18
ENDBRANCH  13  16
ENDBRANCH   1  13
TORSDOF 4
ENDMDL
MODEL 4
REMARK VINA RESULT:      -7.3      1.336      2.327
REMARK  Name = 
REMARK  4 active torsions:
REMARK  status: ('A' for Active; 'I' for Inactive)
REMARK    1  A    between atoms: C_2  and  C_17
REMARK    2  A    between atoms: N_3  and  C_4
REMARK    3  A    between atoms: C_4  and  C_5
REMARK    4  A    between atoms: C_5  and  C_7
REMARK                            x       y       z     vdW  Elec       q    Type
REMARK                         _______ _______ _______ _____ _____    ______ ____
ROOT
ATOM      1  C   UNL     1       5.380   5.382  18.383  0.00  0.00    +0.000 C 
ATOM      2  O   UNL     1       6.187   5.432  19.312  0.00  0.00    +0.000 OA
ENDROOT
BRANCH   1   3
ATOM      3  C   UNL     1       4.327   4.306  18.326  0.00  0.00    +0.000 A 
ATOM      4  C   UNL     1       4.550   3.196  17.491  0.00  0.00    +0.000 A 
ATOM      5  C   UNL     1       3.614   2.172  17.397  0.00  0.00    +0.000 A 
ATOM      6  C   UNL     1       2.449   2.230  18.149  0.00  0.00    +0.000 A 
ATOM      7  C   UNL     1       2.196   3.311  19.004  0.00  0.00    +0.000 A 
ATOM      8  C   UNL     1       1.006   3.319  19.752  0.00  0.00    +0.000 A 
ATOM      9  C   UNL     1       0.705   4.370  20.614  0.00  0.00    +0.000 A 
ATOM     10  C   UNL     1       1.588   5.430  20.731  0.00  0.00    +0.000 A 
ATOM     11  C   UNL     1       2.773   5.437  19.988  0.00  0.00    +0.000 A 
ATOM     12  C   UNL     1       3.128   4.378  19.111  0.00  0.00    +0.000 A 
ENDBRANCH   1   3
BRANCH   1  13
ATOM     13  C   UNL     1       5.403   6.470  17.315  0.00  0.00    +0.000 C 
BRANCH  13  16
ATOM     14  O   UNL     1       7.764   5.234  16.403  0.00  0.00    +0.000 OA
ATOM     15  C   UNL     1       6.801   5.320  15.644  0.00  0.00    +0.000 C 
ATOM     16  N   UNL     1       5.609   5.897  16.005  0.00  0.00    +0.000 N 
ATOM     17  H   UNL     1       4.855   5.889  15.323  0.00  0.00    +0.000 HD
BRANCH  15  18
ATOM     18  C   UNL     1       6.828   4.818  14.267  0.00  0.00    +0.000 A 
ATOM     19  C   UNL     1       6.042   3.770  13.824  0.00  0.00    +0.000 A 
ATOM     20  S   UNL     1       6.338   3.462  12.165  0.00  0.00    +0.000 S 
ATOM     21  C   UNL     1       7.490   4.731  12.156  0.00  0.00    +0.000 A 
ATOM     22  N   UNL     1       7.669   5.368  13.295  0.00  0.00    +0.000 NA
ENDBRANCH  15  18
ENDBRANCH  13  16
ENDBRANCH   1  13
TORSDOF 4
ENDMDL
MODEL 5
REMARK VINA RESULT:      -7.3      1.700      3.044
REMARK  Name = 
REMARK  4 active torsions:
REMARK  status: ('A' for Active; 'I' for Inactive)
REMARK    1  A    between atoms: C_2  and  C_17
REMARK    2  A    between atoms: N_3  and  C_4
REMARK    3  A    between atoms: C_4  and  C_5
REMARK    4  A    between atoms: C_5  and  C_7
REMARK                            x       y       z     vdW  Elec       q    Type
REMARK                         _______ _______ _______ _____ _____    ______ ____
ROOT
ATOM      1  C   UNL     1       4.618   3.718  18.576  0.00  0.00    +0.000 C 
ATOM      2  O   UNL     1       4.401   2.525  18.360  0.00  0.00    +0.000 OA
ENDROOT
BRANCH   1   3
ATOM      3  C   UNL     1       3.602   4.577  19.284  0.00  0.00    +0.000 A 
ATOM      4  C   UNL     1       2.974   4.061  20.432  0.00  0.00    +0.000 A 
ATOM      5  C   UNL     1       2.028   4.808  21.125  0.00  0.00    +0.000 A 
ATOM      6  C   UNL     1       1.707   6.088  20.696  0.00  0.00    +0.000 A 
ATOM      7  C   UNL     1       2.322   6.644  19.566  0.00  0.00    +0.000 A 
ATOM      8  C   UNL     1       1.970   7.947  19.176  0.00  0.00    +0.000 A 
ATOM      9  C   UNL     1       2.548   8.545  18.060  0.00  0.00    +0.000 A 
ATOM     10  C   UNL     1       3.480   7.842  17.315  0.00  0.00    +0.000 A 
ATOM     11  C   UNL     1       3.834   6.541  17.688  0.00  0.00    +0.000 A 
ATOM     12  C   UNL     1       3.283   5.900  18.829  0.00  0.00    +0.000 A 
ENDBRANCH   1   3
BRANCH   1  13
ATOM     13  C   UNL     1       5.966   4.314  18.185  0.00  0.00    +0.000 C 
BRANCH  13  16
ATOM     14  O   UNL     1       7.320   6.155  16.539  0.00  0.00    +0.000 OA
ATOM     15  C   UNL     1       6.860   5.130  16.040  0.00  0.00    +0.000 C 
ATOM     16  N   UNL     1       6.195   4.174  16.766  0.00  0.00    +0.000 N 
ATOM     17  H   UNL     1       5.882   3.340  16.274  0.00  0.00    +0.000 HD
BRANCH  15  18
ATOM     18  C   UNL     1       6.971   4.825  14.611  0.00  0.00    +0.000 A 
ATOM     19  C   UNL     1       6.230   3.839  13.984  0.00  0.00    +0.000 A 
ATOM     20  S   UNL     1       6.621   3.766  12.318  0.00  0.00    +0.000 S 
ATOM     21  C   UNL     1       7.747   5.039  12.548  0.00  0.00    +0.000 A 
ATOM     22  N   UNL     1       7.852   5.514  13.772  0.00  0.00    +0.000 NA
ENDBRANCH  15  18
ENDBRANCH  13  16
ENDBRANCH   1  13
TORSDOF 4
ENDMDL
MODEL 6
REMARK VINA RESULT:      -7.2      1.813      2.039
REMARK  Name = 
REMARK  4 active torsions:
REMARK  status: ('A' for Active; 'I' for Inactive)
REMARK    1  A    between atoms: C_2  and  C_17
REMARK    2  A    between atoms: N_3  and  C_4
REMARK    3  A    between atoms: C_4  and  C_5
REMARK    4  A    between atoms: C_5  and  C_7
REMARK                            x       y       z     vdW  Elec       q    Type
REMARK                         _______ _______ _______ _____ _____    ______ ____
ROOT
ATOM      1  C   UNL     1       6.333   4.892  17.380  0.00  0.00    +0.000 C 
ATOM      2  O   UNL     1       6.986   4.324  18.257  0.00  0.00    +0.000 OA
ENDROOT
BRANCH   1   3
ATOM      3  C   UNL     1       4.907   5.313  17.623  0.00  0.00    +0.000 A 
ATOM      4  C   UNL     1       4.607   6.687  17.623  0.00  0.00    +0.000 A 
ATOM      5  C   UNL     1       3.309   7.136  17.842  0.00  0.00    +0.000 A 
ATOM      6  C   UNL     1       2.286   6.219  18.046  0.00  0.00    +0.000 A 
ATOM      7  C   UNL     1       2.541   4.842  18.038  0.00  0.00    +0.000 A 
ATOM      8  C   UNL     1       1.471   3.954  18.240  0.00  0.00    +0.000 A 
ATOM      9  C   UNL     1       1.670   2.576  18.245  0.00  0.00    +0.000 A 
ATOM     10  C   UNL     1       2.945   2.071  18.056  0.00  0.00    +0.000 A 
ATOM     11  C   UNL     1       4.020   2.944  17.860  0.00  0.00    +0.000 A 
ATOM     12  C   UNL     1       3.860   4.354  17.830  0.00  0.00    +0.000 A 
ENDBRANCH   1   3
BRANCH   1  13
ATOM     13  C   UNL     1       7.004   5.235  16.055  0.00  0.00    +0.000 C 
BRANCH  13  16
ATOM     14  O   UNL     1       7.674   5.445  13.328  0.00  0.00    +0.000 OA
ATOM     15  C   UNL     1       6.857   4.597  13.681  0.00  0.00    +0.000 C 
ATOM     16  N   UNL     1       6.479   4.417  14.987  0.00  0.00    +0.000 N 
ATOM     17  H   UNL     1       5.825   3.664  15.190  0.00  0.00    +0.000 HD
BRANCH  15  18
ATOM     18  C   UNL     1       6.197   3.690  12.738  0.00  0.00    +0.000 A 
ATOM     19  C   UNL     1       6.849   2.650  12.099  0.00  0.00    +0.000 A 
ATOM     20  S   UNL     1       5.766   1.806  11.075  0.00  0.00    +0.000 S 
ATOM     21  C   UNL     1       4.515   2.881  11.545  0.00  0.00    +0.000 A 
ATOM     22  N   UNL     1       4.845   3.820  12.408  0.00  0.00    +0.000 NA
ENDBRANCH  15  18
ENDBRANCH  13  16
ENDBRANCH   1  13
TORSDOF 4
ENDMDL
MODEL 7
REMARK VINA RESULT:      -7.2      5.013      7.043
REMARK  Name = 
REMARK  4 active torsions:
REMARK  status: ('A' for Active; 'I' for Inactive)
REMARK    1  A    between atoms: C_2  and  C_17
REMARK    2  A    between atoms: N_3  and  C_4
REMARK    3  A    between atoms: C_4  and  C_5
REMARK    4  A    between atoms: C_5  and  C_7
REMARK                            x       y       z     vdW  Elec       q    Type
REMARK                         _______ _______ _______ _____ _____    ______ ____
ROOT
ATOM      1  C   UNL     1       2.550   7.352  18.722  0.00  0.00    +0.000 C 
ATOM      2  O   UNL     1       2.077   7.280  19.857  0.00  0.00    +0.000 OA
ENDROOT
BRANCH   1   3
ATOM      3  C   UNL     1       3.145   6.142  18.049  0.00  0.00    +0.000 A 
ATOM      4  C   UNL     1       4.272   6.321  17.226  0.00  0.00    +0.000 A 
ATOM      5  C   UNL     1       4.863   5.242  16.579  0.00  0.00    +0.000 A 
ATOM      6  C   UNL     1       4.351   3.964  16.758  0.00  0.00    +0.000 A 
ATOM      7  C   UNL     1       3.240   3.741  17.581  0.00  0.00    +0.000 A 
ATOM      8  C   UNL     1       2.764   2.428  17.738  0.00  0.00    +0.000 A 
ATOM      9  C   UNL     1       1.662   2.153  18.542  0.00  0.00    +0.000 A 
ATOM     10  C   UNL     1       1.017   3.191  19.193  0.00  0.00    +0.000 A 
ATOM     11  C   UNL     1       1.476   4.503  19.041  0.00  0.00    +0.000 A 
ATOM     12  C   UNL     1       2.607   4.827  18.245  0.00  0.00    +0.000 A 
ENDBRANCH   1   3
BRANCH   1  13
ATOM     13  C   UNL     1       2.467   8.671  17.962  0.00  0.00    +0.000 C 
BRANCH  13  16
ATOM     14  O   UNL     1       1.283  10.924  19.168  0.00  0.00    +0.000 OA
ATOM     15  C   UNL     1       0.599  10.202  18.446  0.00  0.00    +0.000 C 
ATOM     16  N   UNL     1       1.093   9.090  17.811  0.00  0.00    +0.000 N 
ATOM     17  H   UNL     1       0.462   8.574  17.203  0.00  0.00    +0.000 HD
BRANCH  15  18
ATOM     18  C   UNL     1      -0.823  10.451  18.193  0.00  0.00    +0.000 A 
ATOM     19  C   UNL     1      -1.565  11.391  18.886  0.00  0.00    +0.000 A 
ATOM     20  S   UNL     1      -3.183  11.406  18.323  0.00  0.00    +0.000 S 
ATOM     21  C   UNL     1      -2.786  10.164  17.210  0.00  0.00    +0.000 A 
ATOM     22  N   UNL     1      -1.539   9.741  17.226  0.00  0.00    +0.000 NA
ENDBRANCH  15  18
ENDBRANCH  13  16
ENDBRANCH   1  13
TORSDOF 4
ENDMDL
MODEL 8
REMARK VINA RESULT:      -7.2      5.013      7.288
REMARK  Name = 
REMARK  4 active torsions:
REMARK  status: ('A' for Active; 'I' for Inactive)
REMARK    1  A    between atoms: C_2  and  C_17
REMARK    2  A    between atoms: N_3  and  C_4
REMARK    3  A    between atoms: C_4  and  C_5
REMARK    4  A    between atoms: C_5  and  C_7
REMARK                            x       y       z     vdW  Elec       q    Type
REMARK                         _______ _______ _______ _____ _____    ______ ____
ROOT
ATOM      1  C   UNL     1       2.511   7.351  18.737  0.00  0.00    +0.000 C 
ATOM      2  O   UNL     1       2.280   7.467  19.941  0.00  0.00    +0.000 OA
ENDROOT
BRANCH   1   3
ATOM      3  C   UNL     1       2.808   6.004  18.129  0.00  0.00    +0.000 A 
ATOM      4  C   UNL     1       1.803   5.020  18.162  0.00  0.00    +0.000 A 
ATOM      5  C   UNL     1       2.019   3.760  17.617  0.00  0.00    +0.000 A 
ATOM      6  C   UNL     1       3.235   3.466  17.013  0.00  0.00    +0.000 A 
ATOM      7  C   UNL     1       4.255   4.424  16.946  0.00  0.00    +0.000 A 
ATOM      8  C   UNL     1       5.464   4.083  16.316  0.00  0.00    +0.000 A 
ATOM      9  C   UNL     1       6.511   4.996  16.225  0.00  0.00    +0.000 A 
ATOM     10  C   UNL     1       6.363   6.260  16.771  0.00  0.00    +0.000 A 
ATOM     11  C   UNL     1       5.167   6.610  17.406  0.00  0.00    +0.000 A 
ATOM     12  C   UNL     1       4.068   5.717  17.506  0.00  0.00    +0.000 A 
ENDBRANCH   1   3
BRANCH   1  13
ATOM     13  C   UNL     1       2.426   8.580  17.840  0.00  0.00    +0.000 C 
BRANCH  13  16
ATOM     14  O   UNL     1       1.349  10.879  19.059  0.00  0.00    +0.000 OA
ATOM     15  C   UNL     1       0.621  10.171  18.367  0.00  0.00    +0.000 C 
ATOM     16  N   UNL     1       1.061   9.039  17.728  0.00  0.00    +0.000 N 
ATOM     17  H   UNL     1       0.395   8.537  17.146  0.00  0.00    +0.000 HD
BRANCH  15  18
ATOM     18  C   UNL     1      -0.800  10.461  18.157  0.00  0.00    +0.000 A 
ATOM     19  C   UNL     1      -1.498  11.411  18.881  0.00  0.00    +0.000 A 
ATOM     20  S   UNL     1      -3.130  11.476  18.364  0.00  0.00    +0.000 S 
ATOM     21  C   UNL     1      -2.797  10.239  17.225  0.00  0.00    +0.000 A 
ATOM     22  N   UNL     1      -1.561   9.783  17.200  0.00  0.00    +0.000 NA
ENDBRANCH  15  18
ENDBRANCH  13  16
ENDBRANCH   1  13
TORSDOF 4
ENDMDL
MODEL 9
REMARK VINA RESULT:      -7.1      1.564      1.694
REMARK  Name = 
REMARK  4 active torsions:
REMARK  status: ('A' for Active; 'I' for Inactive)
REMARK    1  A    between atoms: C_2  and  C_17
REMARK    2  A    between atoms: N_3  and  C_4
REMARK    3  A    between atoms: C_4  and  C_5
REMARK    4  A    between atoms: C_5  and  C_7
REMARK                            x       y       z     vdW  Elec       q    Type
REMARK                         _______ _______ _______ _____ _____    ______ ____
ROOT
ATOM      1  C   UNL     1       4.953   5.729  18.638  0.00  0.00    +0.000 C 
ATOM      2  O   UNL     1       5.997   5.340  19.164  0.00  0.00    +0.000 OA
ENDROOT
BRANCH   1   3
ATOM      3  C   UNL     1       3.609   5.373  19.220  0.00  0.00    +0.000 A 
ATOM      4  C   UNL     1       2.943   6.334  20.002  0.00  0.00    +0.000 A 
ATOM      5  C   UNL     1       1.702   6.061  20.564  0.00  0.00    +0.000 A 
ATOM      6  C   UNL     1       1.096   4.832  20.341  0.00  0.00    +0.000 A 
ATOM      7  C   UNL     1       1.719   3.854  19.556  0.00  0.00    +0.000 A 
ATOM      8  C   UNL     1       1.062   2.629  19.351  0.00  0.00    +0.000 A 
ATOM      9  C   UNL     1       1.638   1.623  18.582  0.00  0.00    +0.000 A 
ATOM     10  C   UNL     1       2.885   1.827  18.015  0.00  0.00    +0.000 A 
ATOM     11  C   UNL     1       3.553   3.039  18.216  0.00  0.00    +0.000 A 
ATOM     12  C   UNL     1       2.995   4.099  18.978  0.00  0.00    +0.000 A 
ENDBRANCH   1   3
BRANCH   1  13
ATOM     13  C   UNL     1       5.027   6.645  17.421  0.00  0.00    +0.000 C 
BRANCH  13  16
ATOM     14  O   UNL     1       7.481   6.099  16.150  0.00  0.00    +0.000 OA
ATOM     15  C   UNL     1       6.441   5.667  15.657  0.00  0.00    +0.000 C 
ATOM     16  N   UNL     1       5.203   5.875  16.211  0.00  0.00    +0.000 N 
ATOM     17  H   UNL     1       4.402   5.448  15.753  0.00  0.00    +0.000 HD
BRANCH  15  18
ATOM     18  C   UNL     1       6.416   4.886  14.417  0.00  0.00    +0.000 A 
ATOM     19  C   UNL     1       7.453   4.877  13.502  0.00  0.00    +0.000 A 
ATOM     20  S   UNL     1       7.076   3.856  12.180  0.00  0.00    +0.000 S 
ATOM     21  C   UNL     1       5.565   3.505  12.910  0.00  0.00    +0.000 A 
ATOM     22  N   UNL     1       5.322   4.091  14.064  0.00  0.00    +0.000 NA
ENDBRANCH  15  18
ENDBRANCH  13  16
ENDBRANCH   1  13
TORSDOF 4
ENDMDL
