MODEL 1
REMARK VINA RESULT:      -6.4      0.000      0.000
REMARK  Name = 
REMARK  8 active torsions:
REMARK  status: ('A' for Active; 'I' for Inactive)
REMARK    1  A    between atoms: C_1  and  N_2
REMARK    2  A    between atoms: N_2  and  C_3
REMARK    3  A    between atoms: N_2  and  C_4
REMARK    4  A    between atoms: C_7  and  C_8
REMARK    5  A    between atoms: C_11  and  C_12
REMARK    6  A    between atoms: C_12  and  C_13
REMARK    7  A    between atoms: C_12  and  C_14
REMARK    8  A    between atoms: C_12  and  C_15
REMARK                            x       y       z     vdW  Elec       q    Type
REMARK                         _______ _______ _______ _____ _____    ______ ____
ROOT
ATOM      1  C   UNL     1       2.544   7.852  17.745  0.00  0.00    +0.000 C 
ATOM      2  C   UNL     1       1.917   8.745  18.523  0.00  0.00    +0.000 C 
ATOM      3  N   UNL     1       1.585  10.003  18.098  0.00  0.00    +0.000 NA
ATOM      4  C   UNL     1       1.020  10.526  19.141  0.00  0.00    +0.000 C 
ATOM      5  O   UNL     1       0.922   9.757  20.248  0.00  0.00    +0.000 OA
ATOM      6  C   UNL     1       1.483   8.551  19.938  0.00  0.00    +0.000 C 
ATOM      7  O   UNL     1       1.581   7.595  20.672  0.00  0.00    +0.000 OA
ENDROOT
BRANCH   1  11
ATOM      8  C   UNL     1       3.646   3.823  18.814  0.00  0.00    +0.000 A 
ATOM      9  C   UNL     1       2.387   4.135  18.271  0.00  0.00    +0.000 A 
ATOM     10  C   UNL     1       2.020   5.445  17.940  0.00  0.00    +0.000 A 
ATOM     11  C   UNL     1       2.914   6.493  18.131  0.00  0.00    +0.000 A 
ATOM     12  C   UNL     1       4.169   6.222  18.669  0.00  0.00    +0.000 A 
ATOM     13  C   UNL     1       4.523   4.906  19.000  0.00  0.00    +0.000 A 
BRANCH   8  15
ATOM     14  C   UNL     1       3.506   1.404  18.319  0.00  0.00    +0.000 C 
ATOM     15  N   UNL     1       4.011   2.512  19.125  0.00  0.00    +0.000 N 
ATOM     16  C   UNL     1       4.408   2.212  20.496  0.00  0.00    +0.000 C 
ENDBRANCH   8  15
ENDBRANCH   1  11
BRANCH   4  17
ATOM     17  C   UNL     1       0.442  11.920  19.235  0.00  0.00    +0.000 C 
ATOM     18  C   UNL     1       0.239  12.290  20.710  0.00  0.00    +0.000 C 
ATOM     19  C   UNL     1       1.413  12.911  18.580  0.00  0.00    +0.000 C 
ATOM     20  C   UNL     1      -0.912  11.979  18.512  0.00  0.00    +0.000 C 
ENDBRANCH   4  17
TORSDOF 3
ENDMDL
MODEL 2
REMARK VINA RESULT:      -6.4      0.220      1.277
REMARK  Name = 
REMARK  8 active torsions:
REMARK  status: ('A' for Active; 'I' for Inactive)
REMARK    1  A    between atoms: C_1  and  N_2
REMARK    2  A    between atoms: N_2  and  C_3
REMARK    3  A    between atoms: N_2  and  C_4
REMARK    4  A    between atoms: C_7  and  C_8
REMARK    5  A    between atoms: C_11  and  C_12
REMARK    6  A    between atoms: C_12  and  C_13
REMARK    7  A    between atoms: C_12  and  C_14
REMARK    8  A    between atoms: C_12  and  C_15
REMARK                            x       y       z     vdW  Elec       q    Type
REMARK                         _______ _______ _______ _____ _____    ______ ____
ROOT
ATOM      1  C   UNL     1       2.470   7.823  17.813  0.00  0.00    +0.000 C 
ATOM      2  C   UNL     1       1.890   8.763  18.573  0.00  0.00    +0.000 C 
ATOM      3  N   UNL     1       1.635  10.031  18.126  0.00  0.00    +0.000 NA
ATOM      4  C   UNL     1       1.094  10.602  19.156  0.00  0.00    +0.000 C 
ATOM      5  O   UNL     1       0.944   9.858  20.274  0.00  0.00    +0.000 OA
ATOM      6  C   UNL     1       1.436   8.617  19.986  0.00  0.00    +0.000 C 
ATOM      7  O   UNL     1       1.473   7.668  20.736  0.00  0.00    +0.000 OA
ENDROOT
BRANCH   1  11
ATOM      8  C   UNL     1       3.333   3.755  18.952  0.00  0.00    +0.000 A 
ATOM      9  C   UNL     1       2.133   4.115  18.314  0.00  0.00    +0.000 A 
ATOM     10  C   UNL     1       1.843   5.438  17.960  0.00  0.00    +0.000 A 
ATOM     11  C   UNL     1       2.757   6.451  18.222  0.00  0.00    +0.000 A 
ATOM     12  C   UNL     1       3.956   6.133  18.856  0.00  0.00    +0.000 A 
ATOM     13  C   UNL     1       4.233   4.805  19.210  0.00  0.00    +0.000 A 
BRANCH   8  15
ATOM     14  C   UNL     1       4.522   2.143  20.401  0.00  0.00    +0.000 C 
ATOM     15  N   UNL     1       3.623   2.432  19.287  0.00  0.00    +0.000 N 
ATOM     16  C   UNL     1       3.496   1.413  18.251  0.00  0.00    +0.000 C 
ENDBRANCH   8  15
ENDBRANCH   1  11
BRANCH   4  17
ATOM     17  C   UNL     1       0.597  12.030  19.224  0.00  0.00    +0.000 C 
ATOM     18  C   UNL     1       1.593  12.951  18.506  0.00  0.00    +0.000 C 
ATOM     19  C   UNL     1      -0.774  12.116  18.543  0.00  0.00    +0.000 C 
ATOM     20  C   UNL     1       0.470  12.473  20.689  0.00  0.00    +0.000 C 
ENDBRANCH   4  17
TORSDOF 3
ENDMDL
MODEL 3
REMARK VINA RESULT:      -6.3      0.196      1.653
REMARK  Name = 
REMARK  8 active torsions:
REMARK  status: ('A' for Active; 'I' for Inactive)
REMARK    1  A    between atoms: C_1  and  N_2
REMARK    2  A    between atoms: N_2  and  C_3
REMARK    3  A    between atoms: N_2  and  C_4
REMARK    4  A    between atoms: C_7  and  C_8
REMARK    5  A    between atoms: C_11  and  C_12
REMARK    6  A    between atoms: C_12  and  C_13
REMARK    7  A    between atoms: C_12  and  C_14
REMARK    8  A    between atoms: C_12  and  C_15
REMARK                            x       y       z     vdW  Elec       q    Type
REMARK                         _______ _______ _______ _____ _____    ______ ____
ROOT
ATOM      1  C   UNL     1       2.481   7.812  17.744  0.00  0.00    +0.000 C 
ATOM      2  C   UNL     1       1.912   8.729  18.539  0.00  0.00    +0.000 C 
ATOM      3  N   UNL     1       1.645  10.008  18.130  0.00  0.00    +0.000 NA
ATOM      4  C   UNL     1       1.120  10.550  19.184  0.00  0.00    +0.000 C 
ATOM      5  O   UNL     1       0.992   9.776  20.284  0.00  0.00    +0.000 OA
ATOM      6  C   UNL     1       1.483   8.544  19.956  0.00  0.00    +0.000 C 
ATOM      7  O   UNL     1       1.535   7.576  20.679  0.00  0.00    +0.000 OA
ENDROOT
BRANCH   1  11
ATOM      8  C   UNL     1       3.353   3.752  18.902  0.00  0.00    +0.000 A 
ATOM      9  C   UNL     1       4.277   4.796  19.081  0.00  0.00    +0.000 A 
ATOM     10  C   UNL     1       4.004   6.112  18.690  0.00  0.00    +0.000 A 
ATOM     11  C   UNL     1       2.780   6.431  18.112  0.00  0.00    +0.000 A 
ATOM     12  C   UNL     1       1.841   5.422  17.916  0.00  0.00    +0.000 A 
ATOM     13  C   UNL     1       2.129   4.107  18.309  0.00  0.00    +0.000 A 
BRANCH   8  15
ATOM     14  C   UNL     1       4.465   2.209  20.482  0.00  0.00    +0.000 C 
ATOM     15  N   UNL     1       3.627   2.445  19.311  0.00  0.00    +0.000 N 
ATOM     16  C   UNL     1       3.554   1.381  18.316  0.00  0.00    +0.000 C 
ENDBRANCH   8  15
ENDBRANCH   1  11
BRANCH   4  17
ATOM     17  C   UNL     1       0.620  11.973  19.299  0.00  0.00    +0.000 C 
ATOM     18  C   UNL     1       1.650  12.927  18.680  0.00  0.00    +0.000 C 
ATOM     19  C   UNL     1      -0.715  12.097  18.554  0.00  0.00    +0.000 C 
ATOM     20  C   UNL     1       0.418  12.343  20.776  0.00  0.00    +0.000 C 
ENDBRANCH   4  17
TORSDOF 3
ENDMDL
MODEL 4
REMARK VINA RESULT:      -6.3      0.428      1.152
REMARK  Name = 
REMARK  8 active torsions:
REMARK  status: ('A' for Active; 'I' for Inactive)
REMARK    1  A    between atoms: C_1  and  N_2
REMARK    2  A    between atoms: N_2  and  C_3
REMARK    3  A    between atoms: N_2  and  C_4
REMARK    4  A    between atoms: C_7  and  C_8
REMARK    5  A    between atoms: C_11  and  C_12
REMARK    6  A    between atoms: C_12  and  C_13
REMARK    7  A    between atoms: C_12  and  C_14
REMARK    8  A    between atoms: C_12  and  C_15
REMARK                            x       y       z     vdW  Elec       q    Type
REMARK                         _______ _______ _______ _____ _____    ______ ____
ROOT
ATOM      1  C   UNL     1       2.395   7.877  17.883  0.00  0.00    +0.000 C 
ATOM      2  C   UNL     1       1.782   8.695  18.750  0.00  0.00    +0.000 C 
ATOM      3  N   UNL     1       1.405   9.972  18.433  0.00  0.00    +0.000 NA
ATOM      4  C   UNL     1       0.872  10.403  19.533  0.00  0.00    +0.000 C 
ATOM      5  O   UNL     1       0.839   9.554  20.583  0.00  0.00    +0.000 OA
ATOM      6  C   UNL     1       1.413   8.388  20.162  0.00  0.00    +0.000 C 
ATOM      7  O   UNL     1       1.563   7.383  20.820  0.00  0.00    +0.000 OA
ENDROOT
BRANCH   1  11
ATOM      8  C   UNL     1       3.617   3.835  18.751  0.00  0.00    +0.000 A 
ATOM      9  C   UNL     1       4.477   4.931  18.931  0.00  0.00    +0.000 A 
ATOM     10  C   UNL     1       4.089   6.243  18.633  0.00  0.00    +0.000 A 
ATOM     11  C   UNL     1       2.811   6.504  18.152  0.00  0.00    +0.000 A 
ATOM     12  C   UNL     1       1.932   5.442  17.957  0.00  0.00    +0.000 A 
ATOM     13  C   UNL     1       2.334   4.132  18.256  0.00  0.00    +0.000 A 
BRANCH   8  15
ATOM     14  C   UNL     1       3.513   1.412  18.269  0.00  0.00    +0.000 C 
ATOM     15  N   UNL     1       4.004   2.532  19.066  0.00  0.00    +0.000 N 
ATOM     16  C   UNL     1       4.415   2.246  20.437  0.00  0.00    +0.000 C 
ENDBRANCH   8  15
ENDBRANCH   1  11
BRANCH   4  17
ATOM     17  C   UNL     1       0.268  11.772  19.753  0.00  0.00    +0.000 C 
ATOM     18  C   UNL     1      -0.509  11.780  21.076  0.00  0.00    +0.000 C 
ATOM     19  C   UNL     1       1.391  12.814  19.804  0.00  0.00    +0.000 C 
ATOM     20  C   UNL     1      -0.694  12.113  18.605  0.00  0.00    +0.000 C 
ENDBRANCH   4  17
TORSDOF 3
ENDMDL
MODEL 5
REMARK VINA RESULT:      -6.2      1.831      7.632
REMARK  Name = 
REMARK  8 active torsions:
REMARK  status: ('A' for Active; 'I' for Inactive)
REMARK    1  A    between atoms: C_1  and  N_2
REMARK    2  A    between atoms: N_2  and  C_3
REMARK    3  A    between atoms: N_2  and  C_4
REMARK    4  A    between atoms: C_7  and  C_8
REMARK    5  A    between atoms: C_11  and  C_12
REMARK    6  A    between atoms: C_12  and  C_13
REMARK    7  A    between atoms: C_12  and  C_14
REMARK    8  A    between atoms: C_12  and  C_15
REMARK                            x       y       z     vdW  Elec       q    Type
REMARK                         _______ _______ _______ _____ _____    ______ ____
ROOT
ATOM      1  C   UNL     1       2.053   8.853  17.620  0.00  0.00    +0.000 C 
ATOM      2  C   UNL     1       2.531   7.793  18.287  0.00  0.00    +0.000 C 
ATOM      3  N   UNL     1       3.415   6.903  17.739  0.00  0.00    +0.000 NA
ATOM      4  C   UNL     1       3.602   6.048  18.695  0.00  0.00    +0.000 C 
ATOM      5  O   UNL     1       2.940   6.255  19.854  0.00  0.00    +0.000 OA
ATOM      6  C   UNL     1       2.206   7.395  19.688  0.00  0.00    +0.000 C 
ATOM      7  O   UNL     1       1.482   7.909  20.509  0.00  0.00    +0.000 OA
ENDROOT
BRANCH   1  11
ATOM      8  C   UNL     1      -0.686  11.824  19.123  0.00  0.00    +0.000 A 
ATOM      9  C   UNL     1       0.708  11.984  19.200  0.00  0.00    +0.000 A 
ATOM     10  C   UNL     1       1.600  11.013  18.730  0.00  0.00    +0.000 A 
ATOM     11  C   UNL     1       1.121   9.844  18.149  0.00  0.00    +0.000 A 
ATOM     12  C   UNL     1      -0.255   9.649  18.058  0.00  0.00    +0.000 A 
ATOM     13  C   UNL     1      -1.138  10.628  18.536  0.00  0.00    +0.000 A 
BRANCH   8  15
ATOM     14  C   UNL     1      -1.056  13.970  20.294  0.00  0.00    +0.000 C 
ATOM     15  N   UNL     1      -1.569  12.805  19.578  0.00  0.00    +0.000 N 
ATOM     16  C   UNL     1      -2.955  12.425  19.827  0.00  0.00    +0.000 C 
ENDBRANCH   8  15
ENDBRANCH   1  11
BRANCH   4  17
ATOM     17  C   UNL     1       4.509   4.838  18.642  0.00  0.00    +0.000 C 
ATOM     18  C   UNL     1       4.637   4.359  17.190  0.00  0.00    +0.000 C 
ATOM     19  C   UNL     1       5.890   5.223  19.186  0.00  0.00    +0.000 C 
ATOM     20  C   UNL     1       3.922   3.703  19.495  0.00  0.00    +0.000 C 
ENDBRANCH   4  17
TORSDOF 3
ENDMDL
MODEL 6
REMARK VINA RESULT:      -6.1      1.842      7.527
REMARK  Name = 
REMARK  8 active torsions:
REMARK  status: ('A' for Active; 'I' for Inactive)
REMARK    1  A    between atoms: C_1  and  N_2
REMARK    2  A    between atoms: N_2  and  C_3
REMARK    3  A    between atoms: N_2  and  C_4
REMARK    4  A    between atoms: C_7  and  C_8
REMARK    5  A    between atoms: C_11  and  C_12
REMARK    6  A    between atoms: C_12  and  C_13
REMARK    7  A    between atoms: C_12  and  C_14
REMARK    8  A    between atoms: C_12  and  C_15
REMARK                            x       y       z     vdW  Elec       q    Type
REMARK                         _______ _______ _______ _____ _____    ______ ____
ROOT
ATOM      1  C   UNL     1       2.109   8.845  17.635  0.00  0.00    +0.000 C 
ATOM      2  C   UNL     1       2.569   7.769  18.289  0.00  0.00    +0.000 C 
ATOM      3  N   UNL     1       3.441   6.873  17.731  0.00  0.00    +0.000 NA
ATOM      4  C   UNL     1       3.612   6.002  18.676  0.00  0.00    +0.000 C 
ATOM      5  O   UNL     1       2.949   6.204  19.836  0.00  0.00    +0.000 OA
ATOM      6  C   UNL     1       2.233   7.357  19.683  0.00  0.00    +0.000 C 
ATOM      7  O   UNL     1       1.514   7.870  20.509  0.00  0.00    +0.000 OA
ENDROOT
BRANCH   1  11
ATOM      8  C   UNL     1      -0.619  11.748  19.283  0.00  0.00    +0.000 A 
ATOM      9  C   UNL     1      -1.066  10.608  18.593  0.00  0.00    +0.000 A 
ATOM     10  C   UNL     1      -0.182   9.673  18.041  0.00  0.00    +0.000 A 
ATOM     11  C   UNL     1       1.191   9.843  18.174  0.00  0.00    +0.000 A 
ATOM     12  C   UNL     1       1.671  10.963  18.849  0.00  0.00    +0.000 A 
ATOM     13  C   UNL     1       0.775  11.894  19.394  0.00  0.00    +0.000 A 
BRANCH   8  15
ATOM     14  C   UNL     1      -2.945  12.430  19.768  0.00  0.00    +0.000 C 
ATOM     15  N   UNL     1      -1.507  12.666  19.846  0.00  0.00    +0.000 N 
ATOM     16  C   UNL     1      -1.065  14.048  20.002  0.00  0.00    +0.000 C 
ENDBRANCH   8  15
ENDBRANCH   1  11
BRANCH   4  17
ATOM     17  C   UNL     1       4.500   4.780  18.610  0.00  0.00    +0.000 C 
ATOM     18  C   UNL     1       3.947   3.696  19.546  0.00  0.00    +0.000 C 
ATOM     19  C   UNL     1       4.527   4.256  17.169  0.00  0.00    +0.000 C 
ATOM     20  C   UNL     1       5.927   5.141  19.050  0.00  0.00    +0.000 C 
ENDBRANCH   4  17
TORSDOF 3
ENDMDL
MODEL 7
REMARK VINA RESULT:      -6.1      2.060      7.471
REMARK  Name = 
REMARK  8 active torsions:
REMARK  status: ('A' for Active; 'I' for Inactive)
REMARK    1  A    between atoms: C_1  and  N_2
REMARK    2  A    between atoms: N_2  and  C_3
REMARK    3  A    between atoms: N_2  and  C_4
REMARK    4  A    between atoms: C_7  and  C_8
REMARK    5  A    between atoms: C_11  and  C_12
REMARK    6  A    between atoms: C_12  and  C_13
REMARK    7  A    between atoms: C_12  and  C_14
REMARK    8  A    between atoms: C_12  and  C_15
REMARK                            x       y       z     vdW  Elec       q    Type
REMARK                         _______ _______ _______ _____ _____    ______ ____
ROOT
ATOM      1  C   UNL     1       1.849   9.390  17.782  0.00  0.00    +0.000 C 
ATOM      2  C   UNL     1       2.421   8.250  18.193  0.00  0.00    +0.000 C 
ATOM      3  N   UNL     1       3.357   7.576  17.456  0.00  0.00    +0.000 NA
ATOM      4  C   UNL     1       3.630   6.548  18.197  0.00  0.00    +0.000 C 
ATOM      5  O   UNL     1       2.980   6.440  19.377  0.00  0.00    +0.000 OA
ATOM      6  C   UNL     1       2.159   7.527  19.472  0.00  0.00    +0.000 C 
ATOM      7  O   UNL     1       1.417   7.788  20.392  0.00  0.00    +0.000 OA
ENDROOT
BRANCH   1  11
ATOM      8  C   UNL     1      -1.096  11.614  20.010  0.00  0.00    +0.000 A 
ATOM      9  C   UNL     1      -1.453  10.696  19.008  0.00  0.00    +0.000 A 
ATOM     10  C   UNL     1      -0.498   9.986  18.270  0.00  0.00    +0.000 A 
ATOM     11  C   UNL     1       0.857  10.163  18.523  0.00  0.00    +0.000 A 
ATOM     12  C   UNL     1       1.248  11.068  19.507  0.00  0.00    +0.000 A 
ATOM     13  C   UNL     1       0.282  11.776  20.236  0.00  0.00    +0.000 A 
BRANCH   8  15
ATOM     14  C   UNL     1      -2.042  12.227  22.211  0.00  0.00    +0.000 C 
ATOM     15  N   UNL     1      -2.055  12.306  20.753  0.00  0.00    +0.000 N 
ATOM     16  C   UNL     1      -3.325  12.628  20.114  0.00  0.00    +0.000 C 
ENDBRANCH   8  15
ENDBRANCH   1  11
BRANCH   4  17
ATOM     17  C   UNL     1       4.624   5.455  17.872  0.00  0.00    +0.000 C 
ATOM     18  C   UNL     1       3.871   4.144  17.604  0.00  0.00    +0.000 C 
ATOM     19  C   UNL     1       5.424   5.858  16.627  0.00  0.00    +0.000 C 
ATOM     20  C   UNL     1       5.585   5.249  19.053  0.00  0.00    +0.000 C 
ENDBRANCH   4  17
TORSDOF 3
ENDMDL
MODEL 8
REMARK VINA RESULT:      -6.1      1.861      7.610
REMARK  Name = 
REMARK  8 active torsions:
REMARK  status: ('A' for Active; 'I' for Inactive)
REMARK    1  A    between atoms: C_1  and  N_2
REMARK    2  A    between atoms: N_2  and  C_3
REMARK    3  A    between atoms: N_2  and  C_4
REMARK    4  A    between atoms: C_7  and  C_8
REMARK    5  A    between atoms: C_11  and  C_12
REMARK    6  A    between atoms: C_12  and  C_13
REMARK    7  A    between atoms: C_12  and  C_14
REMARK    8  A    between atoms: C_12  and  C_15
REMARK                            x       y       z     vdW  Elec       q    Type
REMARK                         _______ _______ _______ _____ _____    ______ ____
ROOT
ATOM      1  C   UNL     1       2.057   8.899  17.692  0.00  0.00    +0.000 C 
ATOM      2  C   UNL     1       2.564   7.814  18.294  0.00  0.00    +0.000 C 
ATOM      3  N   UNL     1       3.471   6.983  17.695  0.00  0.00    +0.000 NA
ATOM      4  C   UNL     1       3.681   6.077  18.598  0.00  0.00    +0.000 C 
ATOM      5  O   UNL     1       3.015   6.196  19.767  0.00  0.00    +0.000 OA
ATOM      6  C   UNL     1       2.250   7.324  19.668  0.00  0.00    +0.000 C 
ATOM      7  O   UNL     1       1.513   7.768  20.519  0.00  0.00    +0.000 OA
ENDROOT
BRANCH   1  11
ATOM      8  C   UNL     1      -0.755  11.703  19.370  0.00  0.00    +0.000 A 
ATOM      9  C   UNL     1       0.634  11.848  19.533  0.00  0.00    +0.000 A 
ATOM     10  C   UNL     1       1.548  10.929  19.005  0.00  0.00    +0.000 A 
ATOM     11  C   UNL     1       1.099   9.832  18.278  0.00  0.00    +0.000 A 
ATOM     12  C   UNL     1      -0.270   9.654  18.099  0.00  0.00    +0.000 A 
ATOM     13  C   UNL     1      -1.176  10.580  18.637  0.00  0.00    +0.000 A 
BRANCH   8  15
ATOM     14  C   UNL     1      -3.094  12.425  19.714  0.00  0.00    +0.000 C 
ATOM     15  N   UNL     1      -1.660  12.633  19.886  0.00  0.00    +0.000 N 
ATOM     16  C   UNL     1      -1.203  14.004  20.086  0.00  0.00    +0.000 C 
ENDBRANCH   8  15
ENDBRANCH   1  11
BRANCH   4  17
ATOM     17  C   UNL     1       4.620   4.897  18.474  0.00  0.00    +0.000 C 
ATOM     18  C   UNL     1       4.101   3.740  19.338  0.00  0.00    +0.000 C 
ATOM     19  C   UNL     1       4.685   4.460  17.005  0.00  0.00    +0.000 C 
ATOM     20  C   UNL     1       6.026   5.290  18.953  0.00  0.00    +0.000 C 
ENDBRANCH   4  17
TORSDOF 3
ENDMDL
MODEL 9
REMARK VINA RESULT:      -6.1      1.823      7.554
REMARK  Name = 
REMARK  8 active torsions:
REMARK  status: ('A' for Active; 'I' for Inactive)
REMARK    1  A    between atoms: C_1  and  N_2
REMARK    2  A    between atoms: N_2  and  C_3
REMARK    3  A    between atoms: N_2  and  C_4
REMARK    4  A    between atoms: C_7  and  C_8
REMARK    5  A    between atoms: C_11  and  C_12
REMARK    6  A    between atoms: C_12  and  C_13
REMARK    7  A    between atoms: C_12  and  C_14
REMARK    8  A    between atoms: C_12  and  C_15
REMARK                            x       y       z     vdW  Elec       q    Type
REMARK                         _______ _______ _______ _____ _____    ______ ____
ROOT
ATOM      1  C   UNL     1       2.054   8.866  17.605  0.00  0.00    +0.000 C 
ATOM      2  C   UNL     1       2.485   7.803  18.298  0.00  0.00    +0.000 C 
ATOM      3  N   UNL     1       3.321   6.857  17.770  0.00  0.00    +0.000 NA
ATOM      4  C   UNL     1       3.473   6.020  18.748  0.00  0.00    +0.000 C 
ATOM      5  O   UNL     1       2.829   6.290  19.905  0.00  0.00    +0.000 OA
ATOM      6  C   UNL     1       2.150   7.460  19.711  0.00  0.00    +0.000 C 
ATOM      7  O   UNL     1       1.458   8.030  20.522  0.00  0.00    +0.000 OA
ENDROOT
BRANCH   1  11
ATOM      8  C   UNL     1      -0.556  11.926  19.160  0.00  0.00    +0.000 A 
ATOM      9  C   UNL     1      -1.050  10.741  18.588  0.00  0.00    +0.000 A 
ATOM     10  C   UNL     1      -0.205   9.754  18.066  0.00  0.00    +0.000 A 
ATOM     11  C   UNL     1       1.175   9.916  18.111  0.00  0.00    +0.000 A 
ATOM     12  C   UNL     1       1.701  11.079  18.668  0.00  0.00    +0.000 A 
ATOM     13  C   UNL     1       0.844  12.062  19.184  0.00  0.00    +0.000 A 
BRANCH   8  15
ATOM     14  C   UNL     1      -0.842  14.062  20.370  0.00  0.00    +0.000 C 
ATOM     15  N   UNL     1      -1.404  12.897  19.694  0.00  0.00    +0.000 N 
ATOM     16  C   UNL     1      -2.761  12.506  20.056  0.00  0.00    +0.000 C 
ENDBRANCH   8  15
ENDBRANCH   1  11
BRANCH   4  17
ATOM     17  C   UNL     1       4.320   4.767  18.724  0.00  0.00    +0.000 C 
ATOM     18  C   UNL     1       5.743   5.103  19.190  0.00  0.00    +0.000 C 
ATOM     19  C   UNL     1       3.700   3.724  19.663  0.00  0.00    +0.000 C 
ATOM     20  C   UNL     1       4.380   4.199  17.298  0.00  0.00    +0.000 C 
ENDBRANCH   4  17
TORSDOF 3
ENDMDL
