MODEL 1
REMARK VINA RESULT:      -7.7      0.000      0.000
REMARK  Name = 
REMARK  6 active torsions:
REMARK  status: ('A' for Active; 'I' for Inactive)
REMARK    1  A    between atoms: C_2  and  C_14
REMARK    2  A    between atoms: N_3  and  C_4
REMARK    3  A    between atoms: C_4  and  C_5
REMARK    4  A    between atoms: C_5  and  C_6
REMARK    5  A    between atoms: C_6  and  N_7
REMARK    6  A    between atoms: C_17  and  C_18
REMARK                            x       y       z     vdW  Elec       q    Type
REMARK                         _______ _______ _______ _____ _____    ______ ____
ROOT
ATOM      1  O   UNL     1       5.695   5.188  19.866  0.00  0.00    +0.000 OA
ATOM      2  C   UNL     1       5.718   4.536  18.834  0.00  0.00    +0.000 C 
ATOM      3  N   UNL     1       5.115   3.286  18.735  0.00  0.00    +0.000 N 
ATOM      4  H   UNL     1       5.069   2.846  17.822  0.00  0.00    +0.000 HD
ENDROOT
BRANCH   2   5
ATOM      5  C   UNL     1       6.363   4.970  17.608  0.00  0.00    +0.000 A 
ATOM      6  N   UNL     1       7.118   6.040  17.465  0.00  0.00    +0.000 NA
ATOM      7  N   UNL     1       7.484   6.079  16.135  0.00  0.00    +0.000 NA
ATOM      8  C   UNL     1       6.901   5.051  15.555  0.00  0.00    +0.000 A 
ATOM      9  O   UNL     1       6.185   4.280  16.437  0.00  0.00    +0.000 OA
BRANCH   8  10
ATOM     10  C   UNL     1       6.818   4.704  14.143  0.00  0.00    +0.000 A 
ATOM     11  C   UNL     1       5.909   3.722  13.713  0.00  0.00    +0.000 A 
ATOM     12  C   UNL     1       5.909   3.292  12.383  0.00  0.00    +0.000 A 
ATOM     13  C   UNL     1       6.810   3.840  11.475  0.00  0.00    +0.000 A 
ATOM     14  C   UNL     1       7.699   4.833  11.883  0.00  0.00    +0.000 A 
ATOM     15  C   UNL     1       7.693   5.271  13.207  0.00  0.00    +0.000 A 
ENDBRANCH   8  10
ENDBRANCH   2   5
BRANCH   3  16
ATOM     16  C   UNL     1       4.452   2.677  19.867  0.00  0.00    +0.000 C 
BRANCH  16  17
ATOM     17  C   UNL     1       3.267   1.817  19.442  0.00  0.00    +0.000 C 
BRANCH  17  18
ATOM     18  C   UNL     1       2.179   2.684  18.793  0.00  0.00    +0.000 C 
BRANCH  18  19
ATOM     19  N   UNL     1       2.341   4.121  19.100  0.00  0.00    +0.000 NA
ATOM     20  C   UNL     1       2.018   4.970  17.951  0.00  0.00    +0.000 C 
ATOM     21  C   UNL     1       2.815   6.275  17.927  0.00  0.00    +0.000 C 
ATOM     22  C   UNL     1       2.317   7.360  18.868  0.00  0.00    +0.000 C 
ATOM     23  C   UNL     1       2.250   6.948  20.332  0.00  0.00    +0.000 C 
ATOM     24  C   UNL     1       1.175   5.899  20.578  0.00  0.00    +0.000 C 
ATOM     25  C   UNL     1       1.618   4.454  20.335  0.00  0.00    +0.000 C 
ENDBRANCH  18  19
ENDBRANCH  17  18
ENDBRANCH  16  17
ENDBRANCH   3  16
TORSDOF 6
ENDMDL
MODEL 2
REMARK VINA RESULT:      -7.6      4.643      6.247
REMARK  Name = 
REMARK  6 active torsions:
REMARK  status: ('A' for Active; 'I' for Inactive)
REMARK    1  A    between atoms: C_2  and  C_14
REMARK    2  A    between atoms: N_3  and  C_4
REMARK    3  A    between atoms: C_4  and  C_5
REMARK    4  A    between atoms: C_5  and  C_6
REMARK    5  A    between atoms: C_6  and  N_7
REMARK    6  A    between atoms: C_17  and  C_18
REMARK                            x       y       z     vdW  Elec       q    Type
REMARK                         _______ _______ _______ _____ _____    ______ ____
ROOT
ATOM      1  O   UNL     1       8.074   5.647  19.118  0.00  0.00    +0.000 OA
ATOM      2  C   UNL     1       7.709   6.351  18.190  0.00  0.00    +0.000 C 
ATOM      3  N   UNL     1       7.042   5.833  17.084  0.00  0.00    +0.000 N 
ATOM      4  H   UNL     1       6.664   6.483  16.404  0.00  0.00    +0.000 HD
ENDROOT
BRANCH   2   5
ATOM      5  C   UNL     1       7.918   7.787  18.123  0.00  0.00    +0.000 A 
ATOM      6  N   UNL     1       7.348   8.615  17.272  0.00  0.00    +0.000 NA
ATOM      7  N   UNL     1       7.862   9.865  17.547  0.00  0.00    +0.000 NA
ATOM      8  C   UNL     1       8.732   9.707  18.523  0.00  0.00    +0.000 A 
ATOM      9  O   UNL     1       8.806   8.408  18.962  0.00  0.00    +0.000 OA
BRANCH   8  10
ATOM     10  C   UNL     1       9.672  10.662  19.093  0.00  0.00    +0.000 A 
ATOM     11  C   UNL     1       9.557  11.041  20.441  0.00  0.00    +0.000 A 
ATOM     12  C   UNL     1      10.372  12.047  20.965  0.00  0.00    +0.000 A 
ATOM     13  C   UNL     1      11.308  12.679  20.152  0.00  0.00    +0.000 A 
ATOM     14  C   UNL     1      11.450  12.294  18.820  0.00  0.00    +0.000 A 
ATOM     15  C   UNL     1      10.644  11.283  18.298  0.00  0.00    +0.000 A 
ENDBRANCH   8  10
ENDBRANCH   2   5
BRANCH   3  16
ATOM     16  C   UNL     1       6.774   4.417  16.962  0.00  0.00    +0.000 C 
BRANCH  16  17
ATOM     17  C   UNL     1       5.550   3.995  17.766  0.00  0.00    +0.000 C 
BRANCH  17  18
ATOM     18  C   UNL     1       4.513   5.126  17.802  0.00  0.00    +0.000 C 
BRANCH  18  19
ATOM     19  N   UNL     1       3.255   4.722  18.467  0.00  0.00    +0.000 NA
ATOM     20  C   UNL     1       2.997   3.286  18.333  0.00  0.00    +0.000 C 
ATOM     21  C   UNL     1       1.506   2.945  18.311  0.00  0.00    +0.000 C 
ATOM     22  C   UNL     1       0.818   2.942  19.666  0.00  0.00    +0.000 C 
ATOM     23  C   UNL     1       0.927   4.252  20.435  0.00  0.00    +0.000 C 
ATOM     24  C   UNL     1       2.355   4.529  20.886  0.00  0.00    +0.000 C 
ATOM     25  C   UNL     1       3.235   5.227  19.846  0.00  0.00    +0.000 C 
ENDBRANCH  18  19
ENDBRANCH  17  18
ENDBRANCH  16  17
ENDBRANCH   3  16
TORSDOF 6
ENDMDL
MODEL 3
REMARK VINA RESULT:      -7.5      4.093      5.618
REMARK  Name = 
REMARK  6 active torsions:
REMARK  status: ('A' for Active; 'I' for Inactive)
REMARK    1  A    between atoms: C_2  and  C_14
REMARK    2  A    between atoms: N_3  and  C_4
REMARK    3  A    between atoms: C_4  and  C_5
REMARK    4  A    between atoms: C_5  and  C_6
REMARK    5  A    between atoms: C_6  and  N_7
REMARK    6  A    between atoms: C_17  and  C_18
REMARK                            x       y       z     vdW  Elec       q    Type
REMARK                         _______ _______ _______ _____ _____    ______ ____
ROOT
ATOM      1  O   UNL     1       5.544   6.895  15.876  0.00  0.00    +0.000 OA
ATOM      2  C   UNL     1       6.353   6.348  16.609  0.00  0.00    +0.000 C 
ATOM      3  N   UNL     1       6.471   4.963  16.679  0.00  0.00    +0.000 N 
ATOM      4  H   UNL     1       7.236   4.573  17.218  0.00  0.00    +0.000 HD
ENDROOT
BRANCH   2   5
ATOM      5  C   UNL     1       7.274   7.055  17.481  0.00  0.00    +0.000 A 
ATOM      6  N   UNL     1       7.893   6.550  18.529  0.00  0.00    +0.000 NA
ATOM      7  N   UNL     1       8.632   7.579  19.073  0.00  0.00    +0.000 NA
ATOM      8  C   UNL     1       8.387   8.646  18.341  0.00  0.00    +0.000 A 
ATOM      9  O   UNL     1       7.545   8.384  17.288  0.00  0.00    +0.000 OA
BRANCH   8  10
ATOM     10  C   UNL     1       8.777  10.032  18.558  0.00  0.00    +0.000 A 
ATOM     11  C   UNL     1       8.405  11.020  17.631  0.00  0.00    +0.000 A 
ATOM     12  C   UNL     1       8.878  12.328  17.762  0.00  0.00    +0.000 A 
ATOM     13  C   UNL     1       9.720  12.661  18.818  0.00  0.00    +0.000 A 
ATOM     14  C   UNL     1      10.076  11.696  19.760  0.00  0.00    +0.000 A 
ATOM     15  C   UNL     1       9.596  10.393  19.636  0.00  0.00    +0.000 A 
ENDBRANCH   8  10
ENDBRANCH   2   5
BRANCH   3  16
ATOM     16  C   UNL     1       5.613   4.094  15.905  0.00  0.00    +0.000 C 
BRANCH  16  17
ATOM     17  C   UNL     1       4.191   4.057  16.453  0.00  0.00    +0.000 C 
BRANCH  17  18
ATOM     18  C   UNL     1       4.034   2.914  17.466  0.00  0.00    +0.000 C 
BRANCH  18  19
ATOM     19  N   UNL     1       3.252   3.313  18.655  0.00  0.00    +0.000 NA
ATOM     20  C   UNL     1       2.813   4.709  18.583  0.00  0.00    +0.000 C 
ATOM     21  C   UNL     1       2.685   5.369  19.957  0.00  0.00    +0.000 C 
ATOM     22  C   UNL     1       1.429   5.013  20.737  0.00  0.00    +0.000 C 
ATOM     23  C   UNL     1       1.233   3.523  20.978  0.00  0.00    +0.000 C 
ATOM     24  C   UNL     1       0.940   2.772  19.687  0.00  0.00    +0.000 C 
ATOM     25  C   UNL     1       2.179   2.340  18.898  0.00  0.00    +0.000 C 
ENDBRANCH  18  19
ENDBRANCH  17  18
ENDBRANCH  16  17
ENDBRANCH   3  16
TORSDOF 6
ENDMDL
MODEL 4
REMARK VINA RESULT:      -7.5      5.475      8.532
REMARK  Name = 
REMARK  6 active torsions:
REMARK  status: ('A' for Active; 'I' for Inactive)
REMARK    1  A    between atoms: C_2  and  C_14
REMARK    2  A    between atoms: N_3  and  C_4
REMARK    3  A    between atoms: C_4  and  C_5
REMARK    4  A    between atoms: C_5  and  C_6
REMARK    5  A    between atoms: C_6  and  N_7
REMARK    6  A    between atoms: C_17  and  C_18
REMARK                            x       y       z     vdW  Elec       q    Type
REMARK                         _______ _______ _______ _____ _____    ______ ____
ROOT
ATOM      1  O   UNL     1       7.503   6.496  16.158  0.00  0.00    +0.000 OA
ATOM      2  C   UNL     1       7.223   6.619  17.340  0.00  0.00    +0.000 C 
ATOM      3  N   UNL     1       7.635   7.718  18.089  0.00  0.00    +0.000 N 
ATOM      4  H   UNL     1       7.275   7.819  19.031  0.00  0.00    +0.000 HD
ENDROOT
BRANCH   2   5
ATOM      5  C   UNL     1       6.443   5.658  18.099  0.00  0.00    +0.000 A 
ATOM      6  N   UNL     1       6.907   4.576  18.690  0.00  0.00    +0.000 NA
ATOM      7  N   UNL     1       5.817   3.948  19.257  0.00  0.00    +0.000 NA
ATOM      8  C   UNL     1       4.762   4.673  18.945  0.00  0.00    +0.000 A 
ATOM      9  O   UNL     1       5.085   5.797  18.225  0.00  0.00    +0.000 OA
BRANCH   8  10
ATOM     10  C   UNL     1       3.348   4.391  19.149  0.00  0.00    +0.000 A 
ATOM     11  C   UNL     1       2.734   4.724  20.368  0.00  0.00    +0.000 A 
ATOM     12  C   UNL     1       1.414   4.346  20.623  0.00  0.00    +0.000 A 
ATOM     13  C   UNL     1       0.695   3.638  19.663  0.00  0.00    +0.000 A 
ATOM     14  C   UNL     1       1.284   3.325  18.439  0.00  0.00    +0.000 A 
ATOM     15  C   UNL     1       2.599   3.710  18.180  0.00  0.00    +0.000 A 
ENDBRANCH   8  10
ENDBRANCH   2   5
BRANCH   3  16
ATOM     16  C   UNL     1       8.449   8.762  17.508  0.00  0.00    +0.000 C 
BRANCH  16  17
ATOM     17  C   UNL     1       8.198  10.115  18.163  0.00  0.00    +0.000 C 
BRANCH  17  18
ATOM     18  C   UNL     1       9.226  10.374  19.273  0.00  0.00    +0.000 C 
BRANCH  18  19
ATOM     19  N   UNL     1       9.948  11.651  19.092  0.00  0.00    +0.000 NA
ATOM     20  C   UNL     1      10.757  11.999  20.263  0.00  0.00    +0.000 C 
ATOM     21  C   UNL     1      10.904  13.508  20.463  0.00  0.00    +0.000 C 
ATOM     22  C   UNL     1      11.919  14.190  19.560  0.00  0.00    +0.000 C 
ATOM     23  C   UNL     1      11.671  13.997  18.070  0.00  0.00    +0.000 C 
ATOM     24  C   UNL     1      11.892  12.553  17.639  0.00  0.00    +0.000 C 
ATOM     25  C   UNL     1      10.679  11.636  17.819  0.00  0.00    +0.000 C 
ENDBRANCH  18  19
ENDBRANCH  17  18
ENDBRANCH  16  17
ENDBRANCH   3  16
TORSDOF 6
ENDMDL
MODEL 5
REMARK VINA RESULT:      -7.4      1.783      3.060
REMARK  Name = 
REMARK  6 active torsions:
REMARK  status: ('A' for Active; 'I' for Inactive)
REMARK    1  A    between atoms: C_2  and  C_14
REMARK    2  A    between atoms: N_3  and  C_4
REMARK    3  A    between atoms: C_4  and  C_5
REMARK    4  A    between atoms: C_5  and  C_6
REMARK    5  A    between atoms: C_6  and  N_7
REMARK    6  A    between atoms: C_17  and  C_18
REMARK                            x       y       z     vdW  Elec       q    Type
REMARK                         _______ _______ _______ _____ _____    ______ ____
ROOT
ATOM      1  O   UNL     1       8.207   4.058  17.568  0.00  0.00    +0.000 OA
ATOM      2  C   UNL     1       7.436   4.758  16.931  0.00  0.00    +0.000 C 
ATOM      3  N   UNL     1       6.592   5.678  17.546  0.00  0.00    +0.000 N 
ATOM      4  H   UNL     1       6.059   6.309  16.957  0.00  0.00    +0.000 HD
ENDROOT
BRANCH   2   5
ATOM      5  C   UNL     1       7.302   4.721  15.486  0.00  0.00    +0.000 A 
ATOM      6  N   UNL     1       7.797   5.600  14.638  0.00  0.00    +0.000 NA
ATOM      7  N   UNL     1       7.398   5.191  13.383  0.00  0.00    +0.000 NA
ATOM      8  C   UNL     1       6.662   4.113  13.554  0.00  0.00    +0.000 A 
ATOM      9  O   UNL     1       6.574   3.735  14.872  0.00  0.00    +0.000 OA
BRANCH   8  10
ATOM     10  C   UNL     1       5.865   3.368  12.590  0.00  0.00    +0.000 A 
ATOM     11  C   UNL     1       6.391   2.213  11.986  0.00  0.00    +0.000 A 
ATOM     12  C   UNL     1       5.688   1.563  10.969  0.00  0.00    +0.000 A 
ATOM     13  C   UNL     1       4.456   2.057  10.549  0.00  0.00    +0.000 A 
ATOM     14  C   UNL     1       3.911   3.187  11.157  0.00  0.00    +0.000 A 
ATOM     15  C   UNL     1       4.607   3.831  12.180  0.00  0.00    +0.000 A 
ENDBRANCH   8  10
ENDBRANCH   2   5
BRANCH   3  16
ATOM     16  C   UNL     1       6.563   5.831  18.983  0.00  0.00    +0.000 C 
BRANCH  16  17
ATOM     17  C   UNL     1       5.324   5.195  19.603  0.00  0.00    +0.000 C 
BRANCH  17  18
ATOM     18  C   UNL     1       4.050   5.805  19.005  0.00  0.00    +0.000 C 
BRANCH  18  19
ATOM     19  N   UNL     1       2.869   4.931  19.171  0.00  0.00    +0.000 NA
ATOM     20  C   UNL     1       2.909   3.774  18.274  0.00  0.00    +0.000 C 
ATOM     21  C   UNL     1       1.519   3.287  17.861  0.00  0.00    +0.000 C 
ATOM     22  C   UNL     1       0.784   2.456  18.900  0.00  0.00    +0.000 C 
ATOM     23  C   UNL     1       0.595   3.144  20.245  0.00  0.00    +0.000 C 
ATOM     24  C   UNL     1       1.916   3.337  20.976  0.00  0.00    +0.000 C 
ATOM     25  C   UNL     1       2.686   4.604  20.591  0.00  0.00    +0.000 C 
ENDBRANCH  18  19
ENDBRANCH  17  18
ENDBRANCH  16  17
ENDBRANCH   3  16
TORSDOF 6
ENDMDL
MODEL 6
REMARK VINA RESULT:      -7.3      4.726      6.324
REMARK  Name = 
REMARK  6 active torsions:
REMARK  status: ('A' for Active; 'I' for Inactive)
REMARK    1  A    between atoms: C_2  and  C_14
REMARK    2  A    between atoms: N_3  and  C_4
REMARK    3  A    between atoms: C_4  and  C_5
REMARK    4  A    between atoms: C_5  and  C_6
REMARK    5  A    between atoms: C_6  and  N_7
REMARK    6  A    between atoms: C_17  and  C_18
REMARK                            x       y       z     vdW  Elec       q    Type
REMARK                         _______ _______ _______ _____ _____    ______ ____
ROOT
ATOM      1  O   UNL     1       7.322   6.040  18.788  0.00  0.00    +0.000 OA
ATOM      2  C   UNL     1       7.432   6.759  17.808  0.00  0.00    +0.000 C 
ATOM      3  N   UNL     1       7.283   6.273  16.512  0.00  0.00    +0.000 N 
ATOM      4  H   UNL     1       7.272   6.939  15.748  0.00  0.00    +0.000 HD
ENDROOT
BRANCH   2   5
ATOM      5  C   UNL     1       7.726   8.180  17.865  0.00  0.00    +0.000 A 
ATOM      6  N   UNL     1       7.115   9.127  17.181  0.00  0.00    +0.000 NA
ATOM      7  N   UNL     1       7.739  10.310  17.520  0.00  0.00    +0.000 NA
ATOM      8  C   UNL     1       8.705   9.999  18.359  0.00  0.00    +0.000 A 
ATOM      9  O   UNL     1       8.745   8.657  18.648  0.00  0.00    +0.000 OA
BRANCH   8  10
ATOM     10  C   UNL     1       9.767  10.833  18.905  0.00  0.00    +0.000 A 
ATOM     11  C   UNL     1      10.867  11.182  18.104  0.00  0.00    +0.000 A 
ATOM     12  C   UNL     1      11.950  11.875  18.652  0.00  0.00    +0.000 A 
ATOM     13  C   UNL     1      11.942  12.226  19.998  0.00  0.00    +0.000 A 
ATOM     14  C   UNL     1      10.844  11.908  20.797  0.00  0.00    +0.000 A 
ATOM     15  C   UNL     1       9.758  11.226  20.250  0.00  0.00    +0.000 A 
ENDBRANCH   8  10
ENDBRANCH   2   5
BRANCH   3  16
ATOM     16  C   UNL     1       7.019   4.874  16.259  0.00  0.00    +0.000 C 
BRANCH  16  17
ATOM     17  C   UNL     1       5.566   4.626  15.871  0.00  0.00    +0.000 C 
BRANCH  17  18
ATOM     18  C   UNL     1       4.977   3.476  16.700  0.00  0.00    +0.000 C 
BRANCH  18  19
ATOM     19  N   UNL     1       4.036   3.948  17.738  0.00  0.00    +0.000 NA
ATOM     20  C   UNL     1       3.854   5.401  17.698  0.00  0.00    +0.000 C 
ATOM     21  C   UNL     1       3.547   6.005  19.069  0.00  0.00    +0.000 C 
ATOM     22  C   UNL     1       2.114   5.839  19.548  0.00  0.00    +0.000 C 
ATOM     23  C   UNL     1       1.631   4.397  19.619  0.00  0.00    +0.000 C 
ATOM     24  C   UNL     1       1.501   3.773  18.236  0.00  0.00    +0.000 C 
ATOM     25  C   UNL     1       2.792   3.169  17.678  0.00  0.00    +0.000 C 
ENDBRANCH  18  19
ENDBRANCH  17  18
ENDBRANCH  16  17
ENDBRANCH   3  16
TORSDOF 6
ENDMDL
MODEL 7
REMARK VINA RESULT:      -7.2      5.518      8.330
REMARK  Name = 
REMARK  6 active torsions:
REMARK  status: ('A' for Active; 'I' for Inactive)
REMARK    1  A    between atoms: C_2  and  C_14
REMARK    2  A    between atoms: N_3  and  C_4
REMARK    3  A    between atoms: C_4  and  C_5
REMARK    4  A    between atoms: C_5  and  C_6
REMARK    5  A    between atoms: C_6  and  N_7
REMARK    6  A    between atoms: C_17  and  C_18
REMARK                            x       y       z     vdW  Elec       q    Type
REMARK                         _______ _______ _______ _____ _____    ______ ____
ROOT
ATOM      1  O   UNL     1       7.686   6.789  16.372  0.00  0.00    +0.000 OA
ATOM      2  C   UNL     1       7.305   6.858  17.530  0.00  0.00    +0.000 C 
ATOM      3  N   UNL     1       7.555   7.972  18.326  0.00  0.00    +0.000 N 
ATOM      4  H   UNL     1       7.115   8.017  19.239  0.00  0.00    +0.000 HD
ENDROOT
BRANCH   2   5
ATOM      5  C   UNL     1       6.560   5.813  18.208  0.00  0.00    +0.000 A 
ATOM      6  N   UNL     1       7.041   4.971  19.101  0.00  0.00    +0.000 NA
ATOM      7  N   UNL     1       5.998   4.139  19.448  0.00  0.00    +0.000 NA
ATOM      8  C   UNL     1       4.964   4.509  18.720  0.00  0.00    +0.000 A 
ATOM      9  O   UNL     1       5.239   5.590  17.920  0.00  0.00    +0.000 OA
BRANCH   8  10
ATOM     10  C   UNL     1       3.660   3.878  18.569  0.00  0.00    +0.000 A 
ATOM     11  C   UNL     1       2.618   4.565  17.924  0.00  0.00    +0.000 A 
ATOM     12  C   UNL     1       1.331   4.023  17.885  0.00  0.00    +0.000 A 
ATOM     13  C   UNL     1       1.075   2.793  18.483  0.00  0.00    +0.000 A 
ATOM     14  C   UNL     1       2.106   2.089  19.103  0.00  0.00    +0.000 A 
ATOM     15  C   UNL     1       3.394   2.624  19.135  0.00  0.00    +0.000 A 
ENDBRANCH   8  10
ENDBRANCH   2   5
BRANCH   3  16
ATOM     16  C   UNL     1       8.312   9.099  17.829  0.00  0.00    +0.000 C 
BRANCH  16  17
ATOM     17  C   UNL     1       9.212   9.702  18.902  0.00  0.00    +0.000 C 
BRANCH  17  18
ATOM     18  C   UNL     1       8.790  11.146  19.208  0.00  0.00    +0.000 C 
BRANCH  18  19
ATOM     19  N   UNL     1       9.503  12.135  18.372  0.00  0.00    +0.000 NA
ATOM     20  C   UNL     1       9.532  13.462  18.991  0.00  0.00    +0.000 C 
ATOM     21  C   UNL     1       9.555  14.600  17.969  0.00  0.00    +0.000 C 
ATOM     22  C   UNL     1      10.907  14.870  17.326  0.00  0.00    +0.000 C 
ATOM     23  C   UNL     1      11.524  13.672  16.619  0.00  0.00    +0.000 C 
ATOM     24  C   UNL     1      11.934  12.582  17.601  0.00  0.00    +0.000 C 
ATOM     25  C   UNL     1      10.817  11.607  17.983  0.00  0.00    +0.000 C 
ENDBRANCH  18  19
ENDBRANCH  17  18
ENDBRANCH  16  17
ENDBRANCH   3  16
TORSDOF 6
ENDMDL
MODEL 8
REMARK VINA RESULT:      -7.2      3.222      7.651
REMARK  Name = 
REMARK  6 active torsions:
REMARK  status: ('A' for Active; 'I' for Inactive)
REMARK    1  A    between atoms: C_2  and  C_14
REMARK    2  A    between atoms: N_3  and  C_4
REMARK    3  A    between atoms: C_4  and  C_5
REMARK    4  A    between atoms: C_5  and  C_6
REMARK    5  A    between atoms: C_6  and  N_7
REMARK    6  A    between atoms: C_17  and  C_18
REMARK                            x       y       z     vdW  Elec       q    Type
REMARK                         _______ _______ _______ _____ _____    ______ ____
ROOT
ATOM      1  O   UNL     1       3.999   6.031  19.587  0.00  0.00    +0.000 OA
ATOM      2  C   UNL     1       3.516   6.651  18.652  0.00  0.00    +0.000 C 
ATOM      3  N   UNL     1       3.895   6.416  17.334  0.00  0.00    +0.000 N 
ATOM      4  H   UNL     1       3.376   6.880  16.596  0.00  0.00    +0.000 HD
ENDROOT
BRANCH   2   5
ATOM      5  C   UNL     1       2.508   7.686  18.793  0.00  0.00    +0.000 A 
ATOM      6  N   UNL     1       2.058   8.467  17.831  0.00  0.00    +0.000 NA
ATOM      7  N   UNL     1       1.145   9.316  18.419  0.00  0.00    +0.000 NA
ATOM      8  C   UNL     1       1.125   9.017  19.702  0.00  0.00    +0.000 A 
ATOM      9  O   UNL     1       1.953   7.968  20.014  0.00  0.00    +0.000 OA
BRANCH   8  10
ATOM     10  C   UNL     1       0.462   9.699  20.805  0.00  0.00    +0.000 A 
ATOM     11  C   UNL     1       0.441   9.112  22.082  0.00  0.00    +0.000 A 
ATOM     12  C   UNL     1      -0.297   9.693  23.116  0.00  0.00    +0.000 A 
ATOM     13  C   UNL     1      -1.016  10.863  22.886  0.00  0.00    +0.000 A 
ATOM     14  C   UNL     1      -0.982  11.469  21.631  0.00  0.00    +0.000 A 
ATOM     15  C   UNL     1      -0.237  10.896  20.600  0.00  0.00    +0.000 A 
ENDBRANCH   8  10
ENDBRANCH   2   5
BRANCH   3  16
ATOM     16  C   UNL     1       4.911   5.442  17.004  0.00  0.00    +0.000 C 
BRANCH  16  17
ATOM     17  C   UNL     1       4.314   4.172  16.409  0.00  0.00    +0.000 C 
BRANCH  17  18
ATOM     18  C   UNL     1       4.386   3.019  17.419  0.00  0.00    +0.000 C 
BRANCH  18  19
ATOM     19  N   UNL     1       3.550   3.259  18.615  0.00  0.00    +0.000 NA
ATOM     20  C   UNL     1       2.142   2.932  18.378  0.00  0.00    +0.000 C 
ATOM     21  C   UNL     1       1.181   3.788  19.205  0.00  0.00    +0.000 C 
ATOM     22  C   UNL     1       1.031   3.378  20.661  0.00  0.00    +0.000 C 
ATOM     23  C   UNL     1       2.334   3.349  21.449  0.00  0.00    +0.000 C 
ATOM     24  C   UNL     1       3.259   2.236  20.975  0.00  0.00    +0.000 C 
ATOM     25  C   UNL     1       4.148   2.601  19.784  0.00  0.00    +0.000 C 
ENDBRANCH  18  19
ENDBRANCH  17  18
ENDBRANCH  16  17
ENDBRANCH   3  16
TORSDOF 6
ENDMDL
MODEL 9
REMARK VINA RESULT:      -7.2      3.369      7.972
REMARK  Name = 
REMARK  6 active torsions:
REMARK  status: ('A' for Active; 'I' for Inactive)
REMARK    1  A    between atoms: C_2  and  C_14
REMARK    2  A    between atoms: N_3  and  C_4
REMARK    3  A    between atoms: C_4  and  C_5
REMARK    4  A    between atoms: C_5  and  C_6
REMARK    5  A    between atoms: C_6  and  N_7
REMARK    6  A    between atoms: C_17  and  C_18
REMARK                            x       y       z     vdW  Elec       q    Type
REMARK                         _______ _______ _______ _____ _____    ______ ____
ROOT
ATOM      1  O   UNL     1       2.761   8.120  16.945  0.00  0.00    +0.000 OA
ATOM      2  C   UNL     1       3.026   7.530  17.980  0.00  0.00    +0.000 C 
ATOM      3  N   UNL     1       4.083   6.630  18.069  0.00  0.00    +0.000 N 
ATOM      4  H   UNL     1       4.323   6.260  18.983  0.00  0.00    +0.000 HD
ENDROOT
BRANCH   2   5
ATOM      5  C   UNL     1       2.290   7.688  19.222  0.00  0.00    +0.000 A 
ATOM      6  N   UNL     1       2.003   6.731  20.081  0.00  0.00    +0.000 NA
ATOM      7  N   UNL     1       1.269   7.323  21.087  0.00  0.00    +0.000 NA
ATOM      8  C   UNL     1       1.131   8.590  20.756  0.00  0.00    +0.000 A 
ATOM      9  O   UNL     1       1.778   8.906  19.587  0.00  0.00    +0.000 OA
BRANCH   8  10
ATOM     10  C   UNL     1       0.319   9.629  21.374  0.00  0.00    +0.000 A 
ATOM     11  C   UNL     1      -0.104   9.490  22.707  0.00  0.00    +0.000 A 
ATOM     12  C   UNL     1      -0.985  10.416  23.270  0.00  0.00    +0.000 A 
ATOM     13  C   UNL     1      -1.447  11.488  22.512  0.00  0.00    +0.000 A 
ATOM     14  C   UNL     1      -1.014  11.652  21.197  0.00  0.00    +0.000 A 
ATOM     15  C   UNL     1      -0.126  10.734  20.636  0.00  0.00    +0.000 A 
ENDBRANCH   8  10
ENDBRANCH   2   5
BRANCH   3  16
ATOM     16  C   UNL     1       4.908   6.321  16.923  0.00  0.00    +0.000 C 
BRANCH  16  17
ATOM     17  C   UNL     1       4.551   4.974  16.305  0.00  0.00    +0.000 C 
BRANCH  17  18
ATOM     18  C   UNL     1       4.767   3.843  17.320  0.00  0.00    +0.000 C 
BRANCH  18  19
ATOM     19  N   UNL     1       3.664   3.741  18.299  0.00  0.00    +0.000 NA
ATOM     20  C   UNL     1       2.546   2.941  17.790  0.00  0.00    +0.000 C 
ATOM     21  C   UNL     1       1.192   3.379  18.350  0.00  0.00    +0.000 C 
ATOM     22  C   UNL     1       0.887   2.906  19.762  0.00  0.00    +0.000 C 
ATOM     23  C   UNL     1       1.915   3.320  20.806  0.00  0.00    +0.000 C 
ATOM     24  C   UNL     1       3.251   2.620  20.597  0.00  0.00    +0.000 C 
ATOM     25  C   UNL     1       4.188   3.308  19.601  0.00  0.00    +0.000 C 
ENDBRANCH  18  19
ENDBRANCH  17  18
ENDBRANCH  16  17
ENDBRANCH   3  16
TORSDOF 6
ENDMDL
