MODEL 1
REMARK VINA RESULT:      -7.3      0.000      0.000
REMARK  Name = 
REMARK  5 active torsions:
REMARK  status: ('A' for Active; 'I' for Inactive)
REMARK    1  A    between atoms: C_1  and  C_2
REMARK    2  A    between atoms: C_4  and  S_5
REMARK    3  A    between atoms: S_5  and  N_8
REMARK    4  A    between atoms: C_15  and  N_16
REMARK    5  A    between atoms: C_17  and  C_18
REMARK                            x       y       z     vdW  Elec       q    Type
REMARK                         _______ _______ _______ _____ _____    ______ ____
ROOT
ATOM      1  N   UNL     1       3.532   4.439  18.848  0.00  0.00    +0.000 NA
ATOM      2  C   UNL     1       2.139   4.659  18.408  0.00  0.00    +0.000 C 
ATOM      3  C   UNL     1       1.155   3.595  18.921  0.00  0.00    +0.000 C 
ATOM      4  C   UNL     1       0.930   3.694  20.439  0.00  0.00    +0.000 C 
ATOM      5  C   UNL     1       2.078   2.897  21.067  0.00  0.00    +0.000 C 
ATOM      6  C   UNL     1       2.822   2.267  19.873  0.00  0.00    +0.000 C 
ATOM      7  C   UNL     1       3.980   3.170  19.447  0.00  0.00    +0.000 C 
ATOM      8  C   UNL     1       1.737   2.188  18.794  0.00  0.00    +0.000 C 
ENDROOT
BRANCH   1   9
ATOM      9  S   UNL     1       4.667   5.664  18.642  0.00  0.00    +0.000 S 
ATOM     10  O   UNL     1       5.726   5.481  19.609  0.00  0.00    +0.000 OA
ATOM     11  O   UNL     1       3.985   6.931  18.466  0.00  0.00    +0.000 OA
BRANCH   9  15
ATOM     12  C   UNL     1       5.583   3.508  13.858  0.00  0.00    +0.000 C 
ATOM     13  C   UNL     1       5.772   4.396  15.039  0.00  0.00    +0.000 A 
ATOM     14  C   UNL     1       4.925   4.555  16.108  0.00  0.00    +0.000 A 
ATOM     15  C   UNL     1       5.462   5.406  17.117  0.00  0.00    +0.000 A 
ATOM     16  C   UNL     1       6.669   5.958  16.738  0.00  0.00    +0.000 A 
ATOM     17  C   UNL     1       7.544   6.928  17.459  0.00  0.00    +0.000 C 
ATOM     18  S   UNL     1       7.164   5.368  15.201  0.00  0.00    +0.000 S 
ENDBRANCH   9  15
ENDBRANCH   1   9
BRANCH   8  19
ATOM     19  N   UNL     1       2.187   1.806  17.465  0.00  0.00    +0.000 NA
ATOM     20  H   UNL     1       2.600   0.872  17.478  0.00  0.00    +0.000 HD
ATOM     21  H   UNL     1       2.935   2.430  17.160  0.00  0.00    +0.000 HD
ENDBRANCH   8  19
TORSDOF 3
ENDMDL
MODEL 2
REMARK VINA RESULT:      -7.0      2.348      5.719
REMARK  Name = 
REMARK  5 active torsions:
REMARK  status: ('A' for Active; 'I' for Inactive)
REMARK    1  A    between atoms: C_1  and  C_2
REMARK    2  A    between atoms: C_4  and  S_5
REMARK    3  A    between atoms: S_5  and  N_8
REMARK    4  A    between atoms: C_15  and  N_16
REMARK    5  A    between atoms: C_17  and  C_18
REMARK                            x       y       z     vdW  Elec       q    Type
REMARK                         _______ _______ _______ _____ _____    ______ ____
ROOT
ATOM      1  N   UNL     1       4.664   5.776  18.100  0.00  0.00    +0.000 NA
ATOM      2  C   UNL     1       5.592   4.919  18.865  0.00  0.00    +0.000 C 
ATOM      3  C   UNL     1       7.042   4.971  18.357  0.00  0.00    +0.000 C 
ATOM      4  C   UNL     1       7.707   6.329  18.638  0.00  0.00    +0.000 C 
ATOM      5  C   UNL     1       7.292   7.228  17.468  0.00  0.00    +0.000 C 
ATOM      6  C   UNL     1       6.525   6.299  16.507  0.00  0.00    +0.000 C 
ATOM      7  C   UNL     1       5.026   6.370  16.801  0.00  0.00    +0.000 C 
ATOM      8  C   UNL     1       7.102   4.916  16.831  0.00  0.00    +0.000 C 
ENDROOT
BRANCH   1   9
ATOM      9  S   UNL     1       3.124   6.077  18.708  0.00  0.00    +0.000 S 
ATOM     10  O   UNL     1       2.259   6.457  17.613  0.00  0.00    +0.000 OA
ATOM     11  O   UNL     1       3.228   6.859  19.924  0.00  0.00    +0.000 OA
BRANCH   9  15
ATOM     12  C   UNL     1       1.231   2.452  22.122  0.00  0.00    +0.000 C 
ATOM     13  C   UNL     1       1.644   3.052  20.823  0.00  0.00    +0.000 A 
ATOM     14  C   UNL     1       2.020   4.351  20.584  0.00  0.00    +0.000 A 
ATOM     15  C   UNL     1       2.456   4.564  19.244  0.00  0.00    +0.000 A 
ATOM     16  C   UNL     1       2.303   3.433  18.466  0.00  0.00    +0.000 A 
ATOM     17  C   UNL     1       2.585   3.227  17.016  0.00  0.00    +0.000 C 
ATOM     18  S   UNL     1       1.708   2.117  19.398  0.00  0.00    +0.000 S 
ENDBRANCH   9  15
ENDBRANCH   1   9
BRANCH   8  19
ATOM     19  N   UNL     1       6.431   3.785  16.211  0.00  0.00    +0.000 NA
ATOM     20  H   UNL     1       7.104   3.181  15.737  0.00  0.00    +0.000 HD
ATOM     21  H   UNL     1       5.800   4.114  15.479  0.00  0.00    +0.000 HD
ENDBRANCH   8  19
TORSDOF 3
ENDMDL
MODEL 3
REMARK VINA RESULT:      -6.8      2.479      5.818
REMARK  Name = 
REMARK  5 active torsions:
REMARK  status: ('A' for Active; 'I' for Inactive)
REMARK    1  A    between atoms: C_1  and  C_2
REMARK    2  A    between atoms: C_4  and  S_5
REMARK    3  A    between atoms: S_5  and  N_8
REMARK    4  A    between atoms: C_15  and  N_16
REMARK    5  A    between atoms: C_17  and  C_18
REMARK                            x       y       z     vdW  Elec       q    Type
REMARK                         _______ _______ _______ _____ _____    ______ ____
ROOT
ATOM      1  N   UNL     1       4.698   3.908  17.207  0.00  0.00    +0.000 NA
ATOM      2  C   UNL     1       5.344   4.602  18.340  0.00  0.00    +0.000 C 
ATOM      3  C   UNL     1       6.270   5.752  17.913  0.00  0.00    +0.000 C 
ATOM      4  C   UNL     1       5.487   6.945  17.337  0.00  0.00    +0.000 C 
ATOM      5  C   UNL     1       5.272   6.604  15.858  0.00  0.00    +0.000 C 
ATOM      6  C   UNL     1       6.061   5.300  15.633  0.00  0.00    +0.000 C 
ATOM      7  C   UNL     1       5.138   4.095  15.813  0.00  0.00    +0.000 C 
ATOM      8  C   UNL     1       7.139   5.357  16.721  0.00  0.00    +0.000 C 
ENDROOT
BRANCH   1   9
ATOM      9  S   UNL     1       3.428   2.845  17.503  0.00  0.00    +0.000 S 
ATOM     10  O   UNL     1       3.978   1.561  17.880  0.00  0.00    +0.000 OA
ATOM     11  O   UNL     1       2.425   2.987  16.466  0.00  0.00    +0.000 OA
BRANCH   9  15
ATOM     12  C   UNL     1       1.192   2.480  22.324  0.00  0.00    +0.000 C 
ATOM     13  C   UNL     1       1.660   3.104  21.056  0.00  0.00    +0.000 A 
ATOM     14  C   UNL     1       2.437   2.531  20.079  0.00  0.00    +0.000 A 
ATOM     15  C   UNL     1       2.613   3.375  18.944  0.00  0.00    +0.000 A 
ATOM     16  C   UNL     1       2.043   4.618  19.133  0.00  0.00    +0.000 A 
ATOM     17  C   UNL     1       2.031   5.809  18.235  0.00  0.00    +0.000 C 
ATOM     18  S   UNL     1       1.240   4.707  20.651  0.00  0.00    +0.000 S 
ENDBRANCH   9  15
ENDBRANCH   1   9
BRANCH   8  19
ATOM     19  N   UNL     1       7.938   4.154  16.890  0.00  0.00    +0.000 NA
ATOM     20  H   UNL     1       8.149   3.997  17.877  0.00  0.00    +0.000 HD
ATOM     21  H   UNL     1       8.843   4.272  16.434  0.00  0.00    +0.000 HD
ENDBRANCH   8  19
TORSDOF 3
ENDMDL
MODEL 4
REMARK VINA RESULT:      -6.6      2.480      5.842
REMARK  Name = 
REMARK  5 active torsions:
REMARK  status: ('A' for Active; 'I' for Inactive)
REMARK    1  A    between atoms: C_1  and  C_2
REMARK    2  A    between atoms: C_4  and  S_5
REMARK    3  A    between atoms: S_5  and  N_8
REMARK    4  A    between atoms: C_15  and  N_16
REMARK    5  A    between atoms: C_17  and  C_18
REMARK                            x       y       z     vdW  Elec       q    Type
REMARK                         _______ _______ _______ _____ _____    ______ ____
ROOT
ATOM      1  N   UNL     1       5.203   4.233  17.711  0.00  0.00    +0.000 NA
ATOM      2  C   UNL     1       6.343   4.965  18.300  0.00  0.00    +0.000 C 
ATOM      3  C   UNL     1       6.936   6.035  17.371  0.00  0.00    +0.000 C 
ATOM      4  C   UNL     1       5.983   7.226  17.173  0.00  0.00    +0.000 C 
ATOM      5  C   UNL     1       5.042   6.802  16.041  0.00  0.00    +0.000 C 
ATOM      6  C   UNL     1       5.592   5.447  15.555  0.00  0.00    +0.000 C 
ATOM      7  C   UNL     1       4.875   4.305  16.276  0.00  0.00    +0.000 C 
ATOM      8  C   UNL     1       7.074   5.519  15.939  0.00  0.00    +0.000 C 
ENDROOT
BRANCH   1   9
ATOM      9  S   UNL     1       4.248   3.257  18.695  0.00  0.00    +0.000 S 
ATOM     10  O   UNL     1       5.050   2.799  19.809  0.00  0.00    +0.000 OA
ATOM     11  O   UNL     1       3.471   2.352  17.872  0.00  0.00    +0.000 OA
BRANCH   9  15
ATOM     12  C   UNL     1       1.812   7.758  20.173  0.00  0.00    +0.000 C 
ATOM     13  C   UNL     1       2.065   6.297  20.039  0.00  0.00    +0.000 A 
ATOM     14  C   UNL     1       3.011   5.680  19.258  0.00  0.00    +0.000 A 
ATOM     15  C   UNL     1       3.050   4.268  19.447  0.00  0.00    +0.000 A 
ATOM     16  C   UNL     1       2.055   3.834  20.300  0.00  0.00    +0.000 A 
ATOM     17  C   UNL     1       1.706   2.450  20.734  0.00  0.00    +0.000 C 
ATOM     18  S   UNL     1       1.146   5.157  20.915  0.00  0.00    +0.000 S 
ENDBRANCH   9  15
ENDBRANCH   1   9
BRANCH   8  19
ATOM     19  N   UNL     1       7.835   4.290  15.780  0.00  0.00    +0.000 NA
ATOM     20  H   UNL     1       7.770   3.714  16.621  0.00  0.00    +0.000 HD
ATOM     21  H   UNL     1       8.826   4.507  15.675  0.00  0.00    +0.000 HD
ENDBRANCH   8  19
TORSDOF 3
ENDMDL
MODEL 5
REMARK VINA RESULT:      -6.5      0.989      1.884
REMARK  Name = 
REMARK  5 active torsions:
REMARK  status: ('A' for Active; 'I' for Inactive)
REMARK    1  A    between atoms: C_1  and  C_2
REMARK    2  A    between atoms: C_4  and  S_5
REMARK    3  A    between atoms: S_5  and  N_8
REMARK    4  A    between atoms: C_15  and  N_16
REMARK    5  A    between atoms: C_17  and  C_18
REMARK                            x       y       z     vdW  Elec       q    Type
REMARK                         _______ _______ _______ _____ _____    ______ ____
ROOT
ATOM      1  N   UNL     1       3.458   4.584  18.839  0.00  0.00    +0.000 NA
ATOM      2  C   UNL     1       3.757   3.555  19.855  0.00  0.00    +0.000 C 
ATOM      3  C   UNL     1       2.850   2.317  19.767  0.00  0.00    +0.000 C 
ATOM      4  C   UNL     1       3.132   1.478  18.509  0.00  0.00    +0.000 C 
ATOM      5  C   UNL     1       2.304   2.133  17.398  0.00  0.00    +0.000 C 
ATOM      6  C   UNL     1       1.483   3.227  18.107  0.00  0.00    +0.000 C 
ATOM      7  C   UNL     1       2.224   4.563  18.033  0.00  0.00    +0.000 C 
ATOM      8  C   UNL     1       1.390   2.709  19.547  0.00  0.00    +0.000 C 
ENDROOT
BRANCH   1   9
ATOM      9  S   UNL     1       4.543   5.846  18.595  0.00  0.00    +0.000 S 
ATOM     10  O   UNL     1       5.569   5.777  19.612  0.00  0.00    +0.000 OA
ATOM     11  O   UNL     1       3.813   7.065  18.309  0.00  0.00    +0.000 OA
BRANCH   9  15
ATOM     12  C   UNL     1       5.650   3.550  13.917  0.00  0.00    +0.000 C 
ATOM     13  C   UNL     1       5.802   4.459  15.087  0.00  0.00    +0.000 A 
ATOM     14  C   UNL     1       4.904   4.669  16.105  0.00  0.00    +0.000 A 
ATOM     15  C   UNL     1       5.411   5.528  17.122  0.00  0.00    +0.000 A 
ATOM     16  C   UNL     1       6.655   6.033  16.798  0.00  0.00    +0.000 A 
ATOM     17  C   UNL     1       7.519   6.994  17.544  0.00  0.00    +0.000 C 
ATOM     18  S   UNL     1       7.213   5.392  15.304  0.00  0.00    +0.000 S 
ENDBRANCH   9  15
ENDBRANCH   1   9
BRANCH   8  19
ATOM     19  N   UNL     1       0.828   3.631  20.521  0.00  0.00    +0.000 NA
ATOM     20  H   UNL     1       1.554   4.238  20.904  0.00  0.00    +0.000 HD
ATOM     21  H   UNL     1       0.461   3.111  21.319  0.00  0.00    +0.000 HD
ENDBRANCH   8  19
TORSDOF 3
ENDMDL
MODEL 6
REMARK VINA RESULT:      -6.4      1.163      1.950
REMARK  Name = 
REMARK  5 active torsions:
REMARK  status: ('A' for Active; 'I' for Inactive)
REMARK    1  A    between atoms: C_1  and  C_2
REMARK    2  A    between atoms: C_4  and  S_5
REMARK    3  A    between atoms: S_5  and  N_8
REMARK    4  A    between atoms: C_15  and  N_16
REMARK    5  A    between atoms: C_17  and  C_18
REMARK                            x       y       z     vdW  Elec       q    Type
REMARK                         _______ _______ _______ _____ _____    ______ ____
ROOT
ATOM      1  N   UNL     1       3.571   4.436  19.282  0.00  0.00    +0.000 NA
ATOM      2  C   UNL     1       4.061   3.042  19.267  0.00  0.00    +0.000 C 
ATOM      3  C   UNL     1       2.952   1.996  19.461  0.00  0.00    +0.000 C 
ATOM      4  C   UNL     1       2.010   1.916  18.248  0.00  0.00    +0.000 C 
ATOM      5  C   UNL     1       0.971   3.019  18.474  0.00  0.00    +0.000 C 
ATOM      6  C   UNL     1       1.290   3.584  19.872  0.00  0.00    +0.000 C 
ATOM      7  C   UNL     1       2.218   4.793  19.746  0.00  0.00    +0.000 C 
ATOM      8  C   UNL     1       1.982   2.407  20.569  0.00  0.00    +0.000 C 
ENDROOT
BRANCH   1   9
ATOM      9  S   UNL     1       4.589   5.676  18.776  0.00  0.00    +0.000 S 
ATOM     10  O   UNL     1       5.665   5.811  19.734  0.00  0.00    +0.000 OA
ATOM     11  O   UNL     1       3.795   6.806  18.335  0.00  0.00    +0.000 OA
BRANCH   9  15
ATOM     12  C   UNL     1       5.110   3.966  13.759  0.00  0.00    +0.000 C 
ATOM     13  C   UNL     1       5.513   4.403  15.124  0.00  0.00    +0.000 A 
ATOM     14  C   UNL     1       4.709   4.937  16.101  0.00  0.00    +0.000 A 
ATOM     15  C   UNL     1       5.398   5.148  17.331  0.00  0.00    +0.000 A 
ATOM     16  C   UNL     1       6.744   4.859  17.224  0.00  0.00    +0.000 A 
ATOM     17  C   UNL     1       7.830   4.981  18.239  0.00  0.00    +0.000 C 
ATOM     18  S   UNL     1       7.127   4.264  15.657  0.00  0.00    +0.000 S 
ENDBRANCH   9  15
ENDBRANCH   1   9
BRANCH   8  19
ATOM     19  N   UNL     1       2.583   2.696  21.861  0.00  0.00    +0.000 NA
ATOM     20  H   UNL     1       3.111   3.569  21.827  0.00  0.00    +0.000 HD
ATOM     21  H   UNL     1       3.267   1.974  22.094  0.00  0.00    +0.000 HD
ENDBRANCH   8  19
TORSDOF 3
ENDMDL
MODEL 7
REMARK VINA RESULT:      -6.4      2.259      5.661
REMARK  Name = 
REMARK  5 active torsions:
REMARK  status: ('A' for Active; 'I' for Inactive)
REMARK    1  A    between atoms: C_1  and  C_2
REMARK    2  A    between atoms: C_4  and  S_5
REMARK    3  A    between atoms: S_5  and  N_8
REMARK    4  A    between atoms: C_15  and  N_16
REMARK    5  A    between atoms: C_17  and  C_18
REMARK                            x       y       z     vdW  Elec       q    Type
REMARK                         _______ _______ _______ _____ _____    ______ ____
ROOT
ATOM      1  N   UNL     1       4.376   6.135  17.854  0.00  0.00    +0.000 NA
ATOM      2  C   UNL     1       4.567   6.665  16.488  0.00  0.00    +0.000 C 
ATOM      3  C   UNL     1       5.864   6.187  15.816  0.00  0.00    +0.000 C 
ATOM      4  C   UNL     1       5.822   4.689  15.471  0.00  0.00    +0.000 C 
ATOM      5  C   UNL     1       6.254   3.971  16.754  0.00  0.00    +0.000 C 
ATOM      6  C   UNL     1       6.653   5.100  17.725  0.00  0.00    +0.000 C 
ATOM      7  C   UNL     1       5.461   5.476  18.604  0.00  0.00    +0.000 C 
ATOM      8  C   UNL     1       7.047   6.242  16.781  0.00  0.00    +0.000 C 
ENDROOT
BRANCH   1   9
ATOM      9  S   UNL     1       2.879   6.301  18.604  0.00  0.00    +0.000 S 
ATOM     10  O   UNL     1       1.896   6.650  17.603  0.00  0.00    +0.000 OA
ATOM     11  O   UNL     1       3.035   7.050  19.836  0.00  0.00    +0.000 OA
BRANCH   9  15
ATOM     12  C   UNL     1       1.383   2.493  22.016  0.00  0.00    +0.000 C 
ATOM     13  C   UNL     1       1.726   3.135  20.717  0.00  0.00    +0.000 A 
ATOM     14  C   UNL     1       1.967   4.466  20.480  0.00  0.00    +0.000 A 
ATOM     15  C   UNL     1       2.371   4.726  19.139  0.00  0.00    +0.000 A 
ATOM     16  C   UNL     1       2.329   3.588  18.358  0.00  0.00    +0.000 A 
ATOM     17  C   UNL     1       2.622   3.416  16.905  0.00  0.00    +0.000 C 
ATOM     18  S   UNL     1       1.877   2.215  19.288  0.00  0.00    +0.000 S 
ENDBRANCH   9  15
ENDBRANCH   1   9
BRANCH   8  19
ATOM     19  N   UNL     1       7.293   7.531  17.408  0.00  0.00    +0.000 NA
ATOM     20  H   UNL     1       8.153   7.506  17.959  0.00  0.00    +0.000 HD
ATOM     21  H   UNL     1       6.549   7.739  18.076  0.00  0.00    +0.000 HD
ENDBRANCH   8  19
TORSDOF 3
ENDMDL
MODEL 8
REMARK VINA RESULT:      -6.3      1.228      1.396
REMARK  Name = 
REMARK  5 active torsions:
REMARK  status: ('A' for Active; 'I' for Inactive)
REMARK    1  A    between atoms: C_1  and  C_2
REMARK    2  A    between atoms: C_4  and  S_5
REMARK    3  A    between atoms: S_5  and  N_8
REMARK    4  A    between atoms: C_15  and  N_16
REMARK    5  A    between atoms: C_17  and  C_18
REMARK                            x       y       z     vdW  Elec       q    Type
REMARK                         _______ _______ _______ _____ _____    ______ ____
ROOT
ATOM      1  N   UNL     1       3.665   3.900  19.170  0.00  0.00    +0.000 NA
ATOM      2  C   UNL     1       2.430   4.478  18.602  0.00  0.00    +0.000 C 
ATOM      3  C   UNL     1       1.147   3.774  19.069  0.00  0.00    +0.000 C 
ATOM      4  C   UNL     1       0.852   4.030  20.557  0.00  0.00    +0.000 C 
ATOM      5  C   UNL     1       1.673   2.981  21.315  0.00  0.00    +0.000 C 
ATOM      6  C   UNL     1       2.287   2.090  20.217  0.00  0.00    +0.000 C 
ATOM      7  C   UNL     1       3.684   2.597  19.857  0.00  0.00    +0.000 C 
ATOM      8  C   UNL     1       1.305   2.254  19.052  0.00  0.00    +0.000 C 
ENDROOT
BRANCH   1   9
ATOM      9  S   UNL     1       5.117   4.736  19.014  0.00  0.00    +0.000 S 
ATOM     10  O   UNL     1       6.209   3.807  19.209  0.00  0.00    +0.000 OA
ATOM     11  O   UNL     1       5.031   5.995  19.727  0.00  0.00    +0.000 OA
BRANCH   9  15
ATOM     12  C   UNL     1       6.858   4.564  13.982  0.00  0.00    +0.000 C 
ATOM     13  C   UNL     1       6.107   5.045  15.175  0.00  0.00    +0.000 A 
ATOM     14  C   UNL     1       5.990   4.426  16.395  0.00  0.00    +0.000 A 
ATOM     15  C   UNL     1       5.284   5.213  17.350  0.00  0.00    +0.000 A 
ATOM     16  C   UNL     1       4.790   6.377  16.796  0.00  0.00    +0.000 A 
ATOM     17  C   UNL     1       3.962   7.453  17.414  0.00  0.00    +0.000 C 
ATOM     18  S   UNL     1       5.262   6.527  15.149  0.00  0.00    +0.000 S 
ENDBRANCH   9  15
ENDBRANCH   1   9
BRANCH   8  19
ATOM     19  N   UNL     1       1.720   1.676  17.783  0.00  0.00    +0.000 NA
ATOM     20  H   UNL     1       2.623   2.052  17.493  0.00  0.00    +0.000 HD
ATOM     21  H   UNL     1       1.065   1.945  17.049  0.00  0.00    +0.000 HD
ENDBRANCH   8  19
TORSDOF 3
ENDMDL
MODEL 9
REMARK VINA RESULT:      -6.2      1.223      1.373
REMARK  Name = 
REMARK  5 active torsions:
REMARK  status: ('A' for Active; 'I' for Inactive)
REMARK    1  A    between atoms: C_1  and  C_2
REMARK    2  A    between atoms: C_4  and  S_5
REMARK    3  A    between atoms: S_5  and  N_8
REMARK    4  A    between atoms: C_15  and  N_16
REMARK    5  A    between atoms: C_17  and  C_18
REMARK                            x       y       z     vdW  Elec       q    Type
REMARK                         _______ _______ _______ _____ _____    ______ ____
ROOT
ATOM      1  N   UNL     1       2.775   4.510  19.030  0.00  0.00    +0.000 NA
ATOM      2  C   UNL     1       1.456   4.623  19.686  0.00  0.00    +0.000 C 
ATOM      3  C   UNL     1       1.035   3.358  20.451  0.00  0.00    +0.000 C 
ATOM      4  C   UNL     1       1.892   3.128  21.708  0.00  0.00    +0.000 C 
ATOM      5  C   UNL     1       3.137   2.384  21.214  0.00  0.00    +0.000 C 
ATOM      6  C   UNL     1       2.865   2.104  19.723  0.00  0.00    +0.000 C 
ATOM      7  C   UNL     1       3.466   3.219  18.866  0.00  0.00    +0.000 C 
ATOM      8  C   UNL     1       1.334   2.093  19.648  0.00  0.00    +0.000 C 
ENDROOT
BRANCH   1   9
ATOM      9  S   UNL     1       3.518   5.891  18.422  0.00  0.00    +0.000 S 
ATOM     10  O   UNL     1       4.108   6.621  19.522  0.00  0.00    +0.000 OA
ATOM     11  O   UNL     1       2.647   6.521  17.449  0.00  0.00    +0.000 OA
BRANCH   9  15
ATOM     12  C   UNL     1       6.219   4.093  14.198  0.00  0.00    +0.000 C 
ATOM     13  C   UNL     1       5.977   4.597  15.578  0.00  0.00    +0.000 A 
ATOM     14  C   UNL     1       4.804   5.092  16.093  0.00  0.00    +0.000 A 
ATOM     15  C   UNL     1       4.893   5.390  17.484  0.00  0.00    +0.000 A 
ATOM     16  C   UNL     1       6.172   5.207  17.970  0.00  0.00    +0.000 A 
ATOM     17  C   UNL     1       6.717   5.443  19.339  0.00  0.00    +0.000 C 
ATOM     18  S   UNL     1       7.219   4.602  16.748  0.00  0.00    +0.000 S 
ENDBRANCH   9  15
ENDBRANCH   1   9
BRANCH   8  19
ATOM     19  N   UNL     1       0.762   2.042  18.312  0.00  0.00    +0.000 NA
ATOM     20  H   UNL     1       0.449   1.096  18.089  0.00  0.00    +0.000 HD
ATOM     21  H   UNL     1       1.478   2.261  17.619  0.00  0.00    +0.000 HD
ENDBRANCH   8  19
TORSDOF 3
ENDMDL
