MODEL 1
REMARK VINA RESULT:      -7.3      0.000      0.000
REMARK  Name = 
REMARK  8 active torsions:
REMARK  status: ('A' for Active; 'I' for Inactive)
REMARK    1  A    between atoms: C_1  and  C_2
REMARK    2  A    between atoms: C_5  and  C_6
REMARK    3  A    between atoms: C_7  and  C_8
REMARK    4  A    between atoms: C_8  and  N_9
REMARK    5  A    between atoms: N_9  and  C_10
REMARK    6  A    between atoms: C_10  and  C_11
REMARK    7  A    between atoms: C_10  and  C_12
REMARK    8  A    between atoms: C_12  and  C_13
REMARK                            x       y       z     vdW  Elec       q    Type
REMARK                         _______ _______ _______ _____ _____    ______ ____
ROOT
ATOM      1  N   UNL     1       3.800   4.206  16.632  0.00  0.00    +0.000 NA
ATOM      2  H   UNL     1       3.245   3.449  16.232  0.00  0.00    +0.000 HD
ENDROOT
BRANCH   1   3
ATOM      3  C   UNL     1       3.083   4.778  17.775  0.00  0.00    +0.000 C 
ATOM      4  C   UNL     1       3.179   6.311  17.833  0.00  0.00    +0.000 C 
BRANCH   3   5
ATOM      5  C   UNL     1       1.602   4.301  17.803  0.00  0.00    +0.000 C 
BRANCH   5   6
ATOM      6  C   UNL     1       1.169   3.377  18.978  0.00  0.00    +0.000 C 
ATOM      7  C   UNL     1       2.057   2.126  19.180  0.00  0.00    +0.000 C 
ATOM      8  C   UNL     1       2.992   2.081  20.389  0.00  0.00    +0.000 C 
ATOM      9  C   UNL     1       2.433   2.774  21.613  0.00  0.00    +0.000 C 
ATOM     10  C   UNL     1       2.064   4.202  21.258  0.00  0.00    +0.000 C 
ATOM     11  C   UNL     1       0.918   4.200  20.261  0.00  0.00    +0.000 C 
ENDBRANCH   5   6
ENDBRANCH   3   5
ENDBRANCH   1   3
BRANCH   1  12
ATOM     12  C   UNL     1       5.130   3.702  16.945  0.00  0.00    +0.000 C 
BRANCH  12  19
ATOM     13  C   UNL     1       6.930   6.051  18.280  0.00  0.00    +0.000 C 
ATOM     14  C   UNL     1       6.917   5.606  16.868  0.00  0.00    +0.000 A 
ATOM     15  N   UNL     1       7.705   6.201  15.969  0.00  0.00    +0.000 NA
ATOM     16  O   UNL     1       7.459   5.563  14.770  0.00  0.00    +0.000 OA
ATOM     17  C   UNL     1       6.523   4.595  14.955  0.00  0.00    +0.000 A 
ATOM     18  C   UNL     1       6.140   3.822  13.755  0.00  0.00    +0.000 C 
ATOM     19  C   UNL     1       6.141   4.567  16.281  0.00  0.00    +0.000 A 
ENDBRANCH  12  19
ENDBRANCH   1  12
TORSDOF 5
ENDMDL
MODEL 2
REMARK VINA RESULT:      -7.2      1.257      2.452
REMARK  Name = 
REMARK  8 active torsions:
REMARK  status: ('A' for Active; 'I' for Inactive)
REMARK    1  A    between atoms: C_1  and  C_2
REMARK    2  A    between atoms: C_5  and  C_6
REMARK    3  A    between atoms: C_7  and  C_8
REMARK    4  A    between atoms: C_8  and  N_9
REMARK    5  A    between atoms: N_9  and  C_10
REMARK    6  A    between atoms: C_10  and  C_11
REMARK    7  A    between atoms: C_10  and  C_12
REMARK    8  A    between atoms: C_12  and  C_13
REMARK                            x       y       z     vdW  Elec       q    Type
REMARK                         _______ _______ _______ _____ _____    ______ ____
ROOT
ATOM      1  N   UNL     1       5.007   3.427  17.114  0.00  0.00    +0.000 NA
ATOM      2  H   UNL     1       6.022   3.344  17.175  0.00  0.00    +0.000 HD
ENDROOT
BRANCH   1   3
ATOM      3  C   UNL     1       4.480   3.870  18.407  0.00  0.00    +0.000 C 
ATOM      4  C   UNL     1       5.586   4.264  19.399  0.00  0.00    +0.000 C 
BRANCH   3   5
ATOM      5  C   UNL     1       3.446   5.019  18.225  0.00  0.00    +0.000 C 
BRANCH   5   6
ATOM      6  C   UNL     1       2.029   4.811  18.833  0.00  0.00    +0.000 C 
ATOM      7  C   UNL     1       1.360   3.464  18.473  0.00  0.00    +0.000 C 
ATOM      8  C   UNL     1       1.237   2.395  19.558  0.00  0.00    +0.000 C 
ATOM      9  C   UNL     1       1.016   2.961  20.944  0.00  0.00    +0.000 C 
ATOM     10  C   UNL     1       2.122   3.946  21.267  0.00  0.00    +0.000 C 
ATOM     11  C   UNL     1       2.024   5.147  20.342  0.00  0.00    +0.000 C 
ENDBRANCH   5   6
ENDBRANCH   3   5
ENDBRANCH   1   3
BRANCH   1  12
ATOM     12  C   UNL     1       4.672   4.299  15.996  0.00  0.00    +0.000 C 
BRANCH  12  19
ATOM     13  C   UNL     1       6.030   3.571  13.138  0.00  0.00    +0.000 C 
ATOM     14  C   UNL     1       6.528   4.511  14.169  0.00  0.00    +0.000 A 
ATOM     15  N   UNL     1       7.673   5.168  13.981  0.00  0.00    +0.000 NA
ATOM     16  O   UNL     1       7.851   5.947  15.106  0.00  0.00    +0.000 OA
ATOM     17  C   UNL     1       6.815   5.750  15.963  0.00  0.00    +0.000 A 
ATOM     18  C   UNL     1       6.862   6.510  17.230  0.00  0.00    +0.000 C 
ATOM     19  C   UNL     1       5.928   4.844  15.417  0.00  0.00    +0.000 A 
ENDBRANCH  12  19
ENDBRANCH   1  12
TORSDOF 5
ENDMDL
MODEL 3
REMARK VINA RESULT:      -7.2      1.514      2.074
REMARK  Name = 
REMARK  8 active torsions:
REMARK  status: ('A' for Active; 'I' for Inactive)
REMARK    1  A    between atoms: C_1  and  C_2
REMARK    2  A    between atoms: C_5  and  C_6
REMARK    3  A    between atoms: C_7  and  C_8
REMARK    4  A    between atoms: C_8  and  N_9
REMARK    5  A    between atoms: N_9  and  C_10
REMARK    6  A    between atoms: C_10  and  C_11
REMARK    7  A    between atoms: C_10  and  C_12
REMARK    8  A    between atoms: C_12  and  C_13
REMARK                            x       y       z     vdW  Elec       q    Type
REMARK                         _______ _______ _______ _____ _____    ______ ____
ROOT
ATOM      1  N   UNL     1       4.354   6.505  17.106  0.00  0.00    +0.000 NA
ATOM      2  H   UNL     1       4.348   5.489  17.018  0.00  0.00    +0.000 HD
ENDROOT
BRANCH   1   3
ATOM      3  C   UNL     1       3.648   6.887  18.333  0.00  0.00    +0.000 C 
ATOM      4  C   UNL     1       2.416   7.765  18.062  0.00  0.00    +0.000 C 
BRANCH   3   5
ATOM      5  C   UNL     1       3.277   5.634  19.177  0.00  0.00    +0.000 C 
BRANCH   5   6
ATOM      6  C   UNL     1       1.936   4.918  18.846  0.00  0.00    +0.000 C 
ATOM      7  C   UNL     1       2.026   3.859  17.723  0.00  0.00    +0.000 C 
ATOM      8  C   UNL     1       1.934   2.381  18.102  0.00  0.00    +0.000 C 
ATOM      9  C   UNL     1       1.013   2.113  19.273  0.00  0.00    +0.000 C 
ATOM     10  C   UNL     1       1.446   2.956  20.456  0.00  0.00    +0.000 C 
ATOM     11  C   UNL     1       1.241   4.427  20.137  0.00  0.00    +0.000 C 
ENDBRANCH   5   6
ENDBRANCH   3   5
ENDBRANCH   1   3
BRANCH   1  12
ATOM     12  C   UNL     1       5.730   6.978  17.032  0.00  0.00    +0.000 C 
BRANCH  12  19
ATOM     13  C   UNL     1       7.558   5.813  19.448  0.00  0.00    +0.000 C 
ATOM     14  C   UNL     1       7.454   5.306  18.060  0.00  0.00    +0.000 A 
ATOM     15  N   UNL     1       8.177   4.253  17.674  0.00  0.00    +0.000 NA
ATOM     16  O   UNL     1       7.855   4.040  16.349  0.00  0.00    +0.000 OA
ATOM     17  C   UNL     1       6.947   4.967  15.948  0.00  0.00    +0.000 A 
ATOM     18  C   UNL     1       6.504   4.880  14.540  0.00  0.00    +0.000 C 
ATOM     19  C   UNL     1       6.642   5.804  17.002  0.00  0.00    +0.000 A 
ENDBRANCH  12  19
ENDBRANCH   1  12
TORSDOF 5
ENDMDL
MODEL 4
REMARK VINA RESULT:      -7.2      1.416      1.744
REMARK  Name = 
REMARK  8 active torsions:
REMARK  status: ('A' for Active; 'I' for Inactive)
REMARK    1  A    between atoms: C_1  and  C_2
REMARK    2  A    between atoms: C_5  and  C_6
REMARK    3  A    between atoms: C_7  and  C_8
REMARK    4  A    between atoms: C_8  and  N_9
REMARK    5  A    between atoms: N_9  and  C_10
REMARK    6  A    between atoms: C_10  and  C_11
REMARK    7  A    between atoms: C_10  and  C_12
REMARK    8  A    between atoms: C_12  and  C_13
REMARK                            x       y       z     vdW  Elec       q    Type
REMARK                         _______ _______ _______ _____ _____    ______ ____
ROOT
ATOM      1  N   UNL     1       4.158   6.212  17.071  0.00  0.00    +0.000 NA
ATOM      2  H   UNL     1       4.223   5.675  16.206  0.00  0.00    +0.000 HD
ENDROOT
BRANCH   1   3
ATOM      3  C   UNL     1       3.592   5.364  18.124  0.00  0.00    +0.000 C 
ATOM      4  C   UNL     1       2.817   6.166  19.182  0.00  0.00    +0.000 C 
BRANCH   3   5
ATOM      5  C   UNL     1       2.716   4.229  17.518  0.00  0.00    +0.000 C 
BRANCH   5   6
ATOM      6  C   UNL     1       2.488   2.959  18.387  0.00  0.00    +0.000 C 
ATOM      7  C   UNL     1       3.537   2.739  19.502  0.00  0.00    +0.000 C 
ATOM      8  C   UNL     1       3.121   2.976  20.955  0.00  0.00    +0.000 C 
ATOM      9  C   UNL     1       1.680   2.612  21.239  0.00  0.00    +0.000 C 
ATOM     10  C   UNL     1       0.774   3.360  20.281  0.00  0.00    +0.000 C 
ATOM     11  C   UNL     1       1.019   2.875  18.862  0.00  0.00    +0.000 C 
ENDBRANCH   5   6
ENDBRANCH   3   5
ENDBRANCH   1   3
BRANCH   1  12
ATOM     12  C   UNL     1       5.468   6.765  17.383  0.00  0.00    +0.000 C 
BRANCH  12  19
ATOM     13  C   UNL     1       7.487   5.610  19.649  0.00  0.00    +0.000 C 
ATOM     14  C   UNL     1       7.384   5.203  18.229  0.00  0.00    +0.000 A 
ATOM     15  N   UNL     1       8.194   4.262  17.740  0.00  0.00    +0.000 NA
ATOM     16  O   UNL     1       7.849   4.118  16.412  0.00  0.00    +0.000 OA
ATOM     17  C   UNL     1       6.839   4.977  16.110  0.00  0.00    +0.000 A 
ATOM     18  C   UNL     1       6.359   4.953  14.713  0.00  0.00    +0.000 C 
ATOM     19  C   UNL     1       6.491   5.696  17.236  0.00  0.00    +0.000 A 
ENDBRANCH  12  19
ENDBRANCH   1  12
TORSDOF 5
ENDMDL
MODEL 5
REMARK VINA RESULT:      -7.1      1.658      2.300
REMARK  Name = 
REMARK  8 active torsions:
REMARK  status: ('A' for Active; 'I' for Inactive)
REMARK    1  A    between atoms: C_1  and  C_2
REMARK    2  A    between atoms: C_5  and  C_6
REMARK    3  A    between atoms: C_7  and  C_8
REMARK    4  A    between atoms: C_8  and  N_9
REMARK    5  A    between atoms: N_9  and  C_10
REMARK    6  A    between atoms: C_10  and  C_11
REMARK    7  A    between atoms: C_10  and  C_12
REMARK    8  A    between atoms: C_12  and  C_13
REMARK                            x       y       z     vdW  Elec       q    Type
REMARK                         _______ _______ _______ _____ _____    ______ ____
ROOT
ATOM      1  N   UNL     1       4.510   6.773  16.926  0.00  0.00    +0.000 NA
ATOM      2  H   UNL     1       4.435   5.767  16.779  0.00  0.00    +0.000 HD
ENDROOT
BRANCH   1   3
ATOM      3  C   UNL     1       3.693   7.154  18.082  0.00  0.00    +0.000 C 
ATOM      4  C   UNL     1       2.552   8.116  17.714  0.00  0.00    +0.000 C 
BRANCH   3   5
ATOM      5  C   UNL     1       3.157   5.897  18.826  0.00  0.00    +0.000 C 
BRANCH   5   6
ATOM      6  C   UNL     1       3.110   4.560  18.033  0.00  0.00    +0.000 C 
ATOM      7  C   UNL     1       4.049   3.454  18.571  0.00  0.00    +0.000 C 
ATOM      8  C   UNL     1       3.430   2.257  19.293  0.00  0.00    +0.000 C 
ATOM      9  C   UNL     1       2.079   1.852  18.746  0.00  0.00    +0.000 C 
ATOM     10  C   UNL     1       1.147   3.048  18.770  0.00  0.00    +0.000 C 
ATOM     11  C   UNL     1       1.650   4.107  17.804  0.00  0.00    +0.000 C 
ENDBRANCH   5   6
ENDBRANCH   3   5
ENDBRANCH   1   3
BRANCH   1  12
ATOM     12  C   UNL     1       5.917   7.130  17.040  0.00  0.00    +0.000 C 
BRANCH  12  19
ATOM     13  C   UNL     1       7.578   5.782  19.482  0.00  0.00    +0.000 C 
ATOM     14  C   UNL     1       7.473   5.309  18.082  0.00  0.00    +0.000 A 
ATOM     15  N   UNL     1       8.120   4.208  17.694  0.00  0.00    +0.000 NA
ATOM     16  O   UNL     1       7.820   4.044  16.358  0.00  0.00    +0.000 OA
ATOM     17  C   UNL     1       7.000   5.047  15.950  0.00  0.00    +0.000 A 
ATOM     18  C   UNL     1       6.592   5.020  14.530  0.00  0.00    +0.000 C 
ATOM     19  C   UNL     1       6.734   5.888  17.012  0.00  0.00    +0.000 A 
ENDBRANCH  12  19
ENDBRANCH   1  12
TORSDOF 5
ENDMDL
MODEL 6
REMARK VINA RESULT:      -7.1      1.233      1.431
REMARK  Name = 
REMARK  8 active torsions:
REMARK  status: ('A' for Active; 'I' for Inactive)
REMARK    1  A    between atoms: C_1  and  C_2
REMARK    2  A    between atoms: C_5  and  C_6
REMARK    3  A    between atoms: C_7  and  C_8
REMARK    4  A    between atoms: C_8  and  N_9
REMARK    5  A    between atoms: N_9  and  C_10
REMARK    6  A    between atoms: C_10  and  C_11
REMARK    7  A    between atoms: C_10  and  C_12
REMARK    8  A    between atoms: C_12  and  C_13
REMARK                            x       y       z     vdW  Elec       q    Type
REMARK                         _______ _______ _______ _____ _____    ______ ____
ROOT
ATOM      1  N   UNL     1       4.156   5.753  18.615  0.00  0.00    +0.000 NA
ATOM      2  H   UNL     1       4.544   5.972  19.532  0.00  0.00    +0.000 HD
ENDROOT
BRANCH   1   3
ATOM      3  C   UNL     1       2.726   6.075  18.606  0.00  0.00    +0.000 C 
ATOM      4  C   UNL     1       2.428   7.446  17.979  0.00  0.00    +0.000 C 
BRANCH   3   5
ATOM      5  C   UNL     1       1.903   4.946  17.920  0.00  0.00    +0.000 C 
BRANCH   5   6
ATOM      6  C   UNL     1       1.492   3.726  18.794  0.00  0.00    +0.000 C 
ATOM      7  C   UNL     1       2.525   2.575  18.827  0.00  0.00    +0.000 C 
ATOM      8  C   UNL     1       3.333   2.353  20.106  0.00  0.00    +0.000 C 
ATOM      9  C   UNL     1       2.563   2.667  21.370  0.00  0.00    +0.000 C 
ATOM     10  C   UNL     1       2.031   4.085  21.296  0.00  0.00    +0.000 C 
ATOM     11  C   UNL     1       1.001   4.187  20.185  0.00  0.00    +0.000 C 
ENDBRANCH   5   6
ENDBRANCH   3   5
ENDBRANCH   1   3
BRANCH   1  12
ATOM     12  C   UNL     1       4.934   6.443  17.596  0.00  0.00    +0.000 C 
BRANCH  12  19
ATOM     13  C   UNL     1       7.614   5.751  19.293  0.00  0.00    +0.000 C 
ATOM     14  C   UNL     1       7.254   5.289  17.932  0.00  0.00    +0.000 A 
ATOM     15  N   UNL     1       8.085   4.500  17.249  0.00  0.00    +0.000 NA
ATOM     16  O   UNL     1       7.466   4.255  16.040  0.00  0.00    +0.000 OA
ATOM     17  C   UNL     1       6.272   4.902  16.003  0.00  0.00    +0.000 A 
ATOM     18  C   UNL     1       5.485   4.748  14.761  0.00  0.00    +0.000 C 
ATOM     19  C   UNL     1       6.074   5.578  17.190  0.00  0.00    +0.000 A 
ENDBRANCH  12  19
ENDBRANCH   1  12
TORSDOF 5
ENDMDL
MODEL 7
REMARK VINA RESULT:      -7.0      1.424      2.482
REMARK  Name = 
REMARK  8 active torsions:
REMARK  status: ('A' for Active; 'I' for Inactive)
REMARK    1  A    between atoms: C_1  and  C_2
REMARK    2  A    between atoms: C_5  and  C_6
REMARK    3  A    between atoms: C_7  and  C_8
REMARK    4  A    between atoms: C_8  and  N_9
REMARK    5  A    between atoms: N_9  and  C_10
REMARK    6  A    between atoms: C_10  and  C_11
REMARK    7  A    between atoms: C_10  and  C_12
REMARK    8  A    between atoms: C_12  and  C_13
REMARK                            x       y       z     vdW  Elec       q    Type
REMARK                         _______ _______ _______ _____ _____    ______ ____
ROOT
ATOM      1  N   UNL     1       4.102   6.216  17.046  0.00  0.00    +0.000 NA
ATOM      2  H   UNL     1       4.183   5.653  16.200  0.00  0.00    +0.000 HD
ENDROOT
BRANCH   1   3
ATOM      3  C   UNL     1       3.555   5.390  18.126  0.00  0.00    +0.000 C 
ATOM      4  C   UNL     1       2.942   6.223  19.263  0.00  0.00    +0.000 C 
BRANCH   3   5
ATOM      5  C   UNL     1       2.538   4.349  17.573  0.00  0.00    +0.000 C 
BRANCH   5   6
ATOM      6  C   UNL     1       2.341   3.038  18.386  0.00  0.00    +0.000 C 
ATOM      7  C   UNL     1       3.496   2.697  19.357  0.00  0.00    +0.000 C 
ATOM      8  C   UNL     1       3.260   2.859  20.859  0.00  0.00    +0.000 C 
ATOM      9  C   UNL     1       1.843   2.545  21.287  0.00  0.00    +0.000 C 
ATOM     10  C   UNL     1       0.876   3.395  20.486  0.00  0.00    +0.000 C 
ATOM     11  C   UNL     1       0.933   2.992  19.022  0.00  0.00    +0.000 C 
ENDBRANCH   5   6
ENDBRANCH   3   5
ENDBRANCH   1   3
BRANCH   1  12
ATOM     12  C   UNL     1       5.398   6.812  17.342  0.00  0.00    +0.000 C 
BRANCH  12  19
ATOM     13  C   UNL     1       5.987   4.996  14.716  0.00  0.00    +0.000 C 
ATOM     14  C   UNL     1       6.699   4.977  16.015  0.00  0.00    +0.000 A 
ATOM     15  N   UNL     1       7.711   4.129  16.213  0.00  0.00    +0.000 NA
ATOM     16  O   UNL     1       8.150   4.359  17.501  0.00  0.00    +0.000 OA
ATOM     17  C   UNL     1       7.398   5.339  18.068  0.00  0.00    +0.000 A 
ATOM     18  C   UNL     1       7.739   5.698  19.461  0.00  0.00    +0.000 C 
ATOM     19  C   UNL     1       6.455   5.782  17.163  0.00  0.00    +0.000 A 
ENDBRANCH  12  19
ENDBRANCH   1  12
TORSDOF 5
ENDMDL
MODEL 8
REMARK VINA RESULT:      -7.0      1.219      1.732
REMARK  Name = 
REMARK  8 active torsions:
REMARK  status: ('A' for Active; 'I' for Inactive)
REMARK    1  A    between atoms: C_1  and  C_2
REMARK    2  A    between atoms: C_5  and  C_6
REMARK    3  A    between atoms: C_7  and  C_8
REMARK    4  A    between atoms: C_8  and  N_9
REMARK    5  A    between atoms: N_9  and  C_10
REMARK    6  A    between atoms: C_10  and  C_11
REMARK    7  A    between atoms: C_10  and  C_12
REMARK    8  A    between atoms: C_12  and  C_13
REMARK                            x       y       z     vdW  Elec       q    Type
REMARK                         _______ _______ _______ _____ _____    ______ ____
ROOT
ATOM      1  N   UNL     1       5.152   3.657  17.304  0.00  0.00    +0.000 NA
ATOM      2  H   UNL     1       6.169   3.719  17.340  0.00  0.00    +0.000 HD
ENDROOT
BRANCH   1   3
ATOM      3  C   UNL     1       4.589   4.269  18.512  0.00  0.00    +0.000 C 
ATOM      4  C   UNL     1       5.665   4.851  19.442  0.00  0.00    +0.000 C 
BRANCH   3   5
ATOM      5  C   UNL     1       3.515   5.335  18.150  0.00  0.00    +0.000 C 
BRANCH   5   6
ATOM      6  C   UNL     1       2.071   5.106  18.681  0.00  0.00    +0.000 C 
ATOM      7  C   UNL     1       1.408   3.789  18.213  0.00  0.00    +0.000 C 
ATOM      8  C   UNL     1       1.229   2.660  19.228  0.00  0.00    +0.000 C 
ATOM      9  C   UNL     1       0.950   3.147  20.633  0.00  0.00    +0.000 C 
ATOM     10  C   UNL     1       2.048   4.101  21.062  0.00  0.00    +0.000 C 
ATOM     11  C   UNL     1       2.000   5.354  20.205  0.00  0.00    +0.000 C 
ENDBRANCH   5   6
ENDBRANCH   3   5
ENDBRANCH   1   3
BRANCH   1  12
ATOM     12  C   UNL     1       4.686   4.249  16.057  0.00  0.00    +0.000 C 
BRANCH  12  19
ATOM     13  C   UNL     1       7.222   6.121  16.836  0.00  0.00    +0.000 C 
ATOM     14  C   UNL     1       6.966   5.422  15.555  0.00  0.00    +0.000 A 
ATOM     15  N   UNL     1       7.830   5.534  14.544  0.00  0.00    +0.000 NA
ATOM     16  O   UNL     1       7.309   4.776  13.516  0.00  0.00    +0.000 OA
ATOM     17  C   UNL     1       6.136   4.218  13.913  0.00  0.00    +0.000 A 
ATOM     18  C   UNL     1       5.442   3.377  12.914  0.00  0.00    +0.000 C 
ATOM     19  C   UNL     1       5.864   4.587  15.215  0.00  0.00    +0.000 A 
ENDBRANCH  12  19
ENDBRANCH   1  12
TORSDOF 5
ENDMDL
MODEL 9
REMARK VINA RESULT:      -7.0      1.591      2.384
REMARK  Name = 
REMARK  8 active torsions:
REMARK  status: ('A' for Active; 'I' for Inactive)
REMARK    1  A    between atoms: C_1  and  C_2
REMARK    2  A    between atoms: C_5  and  C_6
REMARK    3  A    between atoms: C_7  and  C_8
REMARK    4  A    between atoms: C_8  and  N_9
REMARK    5  A    between atoms: N_9  and  C_10
REMARK    6  A    between atoms: C_10  and  C_11
REMARK    7  A    between atoms: C_10  and  C_12
REMARK    8  A    between atoms: C_12  and  C_13
REMARK                            x       y       z     vdW  Elec       q    Type
REMARK                         _______ _______ _______ _____ _____    ______ ____
ROOT
ATOM      1  N   UNL     1       4.472   6.773  16.890  0.00  0.00    +0.000 NA
ATOM      2  H   UNL     1       4.433   5.799  16.591  0.00  0.00    +0.000 HD
ENDROOT
BRANCH   1   3
ATOM      3  C   UNL     1       3.433   7.012  17.896  0.00  0.00    +0.000 C 
ATOM      4  C   UNL     1       2.695   8.343  17.685  0.00  0.00    +0.000 C 
BRANCH   3   5
ATOM      5  C   UNL     1       2.439   5.817  17.968  0.00  0.00    +0.000 C 
BRANCH   5   6
ATOM      6  C   UNL     1       2.787   4.653  18.940  0.00  0.00    +0.000 C 
ATOM      7  C   UNL     1       1.708   4.353  20.006  0.00  0.00    +0.000 C 
ATOM      8  C   UNL     1       0.875   3.079  19.865  0.00  0.00    +0.000 C 
ATOM      9  C   UNL     1       1.641   1.918  19.269  0.00  0.00    +0.000 C 
ATOM     10  C   UNL     1       2.232   2.336  17.937  0.00  0.00    +0.000 C 
ATOM     11  C   UNL     1       3.280   3.413  18.159  0.00  0.00    +0.000 C 
ENDBRANCH   5   6
ENDBRANCH   3   5
ENDBRANCH   1   3
BRANCH   1  12
ATOM     12  C   UNL     1       5.825   7.076  17.338  0.00  0.00    +0.000 C 
BRANCH  12  19
ATOM     13  C   UNL     1       7.849   5.749  19.502  0.00  0.00    +0.000 C 
ATOM     14  C   UNL     1       7.567   5.294  18.121  0.00  0.00    +0.000 A 
ATOM     15  N   UNL     1       8.190   4.222  17.627  0.00  0.00    +0.000 NA
ATOM     16  O   UNL     1       7.715   4.067  16.341  0.00  0.00    +0.000 OA
ATOM     17  C   UNL     1       6.814   5.048  16.070  0.00  0.00    +0.000 A 
ATOM     18  C   UNL     1       6.215   5.028  14.718  0.00  0.00    +0.000 C 
ATOM     19  C   UNL     1       6.669   5.863  17.174  0.00  0.00    +0.000 A 
ENDBRANCH  12  19
ENDBRANCH   1  12
TORSDOF 5
ENDMDL
