MODEL 1
REMARK VINA RESULT:      -8.1      0.000      0.000
REMARK  Name = 
REMARK  10 active torsions:
REMARK  status: ('A' for Active; 'I' for Inactive)
REMARK    1  A    between atoms: C_2  and  C_3
REMARK    2  A    between atoms: N_5  and  C_6
REMARK    3  A    between atoms: C_11  and  N_12
REMARK    4  A    between atoms: C_16  and  O_17
REMARK    5  A    between atoms: O_17  and  C_18
REMARK    6  A    between atoms: C_18  and  C_19
REMARK    7  A    between atoms: C_22  and  O_23
REMARK    8  A    between atoms: O_23  and  C_24
REMARK    9  A    between atoms: C_26  and  O_27
REMARK   10  A    between atoms: O_27  and  C_28
REMARK                            x       y       z     vdW  Elec       q    Type
REMARK                         _______ _______ _______ _____ _____    ______ ____
ROOT
ATOM      1  N   UNL     1       3.136   6.992  17.901  0.00  0.00    +0.000 N 
ATOM      2  C   UNL     1       2.419   7.989  18.494  0.00  0.00    +0.000 A 
ATOM      3  N   UNL     1       1.847   7.832  19.694  0.00  0.00    +0.000 NA
ATOM      4  C   UNL     1       1.064   8.856  20.128  0.00  0.00    +0.000 A 
ATOM      5  C   UNL     1       0.855  10.037  19.445  0.00  0.00    +0.000 A 
ATOM      6  C   UNL     1       1.554  10.113  18.264  0.00  0.00    +0.000 A 
ATOM      7  N   UNL     1       2.323   9.113  17.774  0.00  0.00    +0.000 NA
ATOM      8  H   UNL     1       3.348   7.236  16.942  0.00  0.00    +0.000 HD
ENDROOT
BRANCH   1  14
ATOM      9  C   UNL     1       4.208   4.793  17.392  0.00  0.00    +0.000 C 
ATOM     10  C   UNL     1       4.117   3.311  17.777  0.00  0.00    +0.000 C 
ATOM     11  C   UNL     1       4.359   3.145  19.270  0.00  0.00    +0.000 C 
ATOM     12  O   UNL     1       3.371   3.866  20.014  0.00  0.00    +0.000 OA
ATOM     13  C   UNL     1       3.417   5.279  19.759  0.00  0.00    +0.000 C 
ATOM     14  C   UNL     1       3.200   5.583  18.267  0.00  0.00    +0.000 C 
BRANCH   9  17
ATOM     15  C   UNL     1       6.089   6.286  16.725  0.00  0.00    +0.000 C 
ATOM     16  O   UNL     1       5.505   6.794  15.780  0.00  0.00    +0.000 OA
ATOM     17  N   UNL     1       5.575   5.305  17.529  0.00  0.00    +0.000 N 
ATOM     18  H   UNL     1       6.071   5.042  18.376  0.00  0.00    +0.000 HD
BRANCH  15  20
ATOM     19  C   UNL     1       7.718   7.871  17.666  0.00  0.00    +0.000 C 
ATOM     20  C   UNL     1       7.465   6.671  17.128  0.00  0.00    +0.000 C 
ENDBRANCH  15  20
ENDBRANCH   9  17
ENDBRANCH   1  14
BRANCH   5  21
ATOM     21  O   UNL     1      -0.022  10.942  19.970  0.00  0.00    +0.000 OA
BRANCH  21  22
ATOM     22  C   UNL     1      -0.567  11.913  19.067  0.00  0.00    +0.000 C 
BRANCH  22  23
ATOM     23  C   UNL     1      -1.978  11.580  18.642  0.00  0.00    +0.000 A 
ATOM     24  C   UNL     1      -3.096  12.177  19.234  0.00  0.00    +0.000 A 
ATOM     25  F   UNL     1      -2.896  13.029  20.250  0.00  0.00    +0.000 F 
ATOM     26  C   UNL     1      -4.391  11.921  18.761  0.00  0.00    +0.000 A 
ATOM     27  C   UNL     1      -4.571  11.057  17.670  0.00  0.00    +0.000 A 
ATOM     28  C   UNL     1      -3.476  10.455  17.054  0.00  0.00    +0.000 A 
ATOM     29  C   UNL     1      -2.194  10.727  17.553  0.00  0.00    +0.000 A 
ATOM     30  F   UNL     1      -1.131  10.169  16.948  0.00  0.00    +0.000 F 
BRANCH  26  31
ATOM     31  O   UNL     1      -5.569  12.436  19.236  0.00  0.00    +0.000 OA
ATOM     32  C   UNL     1      -6.091  11.884  20.436  0.00  0.00    +0.000 C 
ENDBRANCH  26  31
BRANCH  28  33
ATOM     33  O   UNL     1      -3.530   9.609  15.982  0.00  0.00    +0.000 OA
ATOM     34  C   UNL     1      -3.524  10.190  14.683  0.00  0.00    +0.000 C 
ENDBRANCH  28  33
ENDBRANCH  22  23
ENDBRANCH  21  22
ENDBRANCH   5  21
TORSDOF 8
ENDMDL
MODEL 2
REMARK VINA RESULT:      -8.0      1.440      3.122
REMARK  Name = 
REMARK  10 active torsions:
REMARK  status: ('A' for Active; 'I' for Inactive)
REMARK    1  A    between atoms: C_2  and  C_3
REMARK    2  A    between atoms: N_5  and  C_6
REMARK    3  A    between atoms: C_11  and  N_12
REMARK    4  A    between atoms: C_16  and  O_17
REMARK    5  A    between atoms: O_17  and  C_18
REMARK    6  A    between atoms: C_18  and  C_19
REMARK    7  A    between atoms: C_22  and  O_23
REMARK    8  A    between atoms: O_23  and  C_24
REMARK    9  A    between atoms: C_26  and  O_27
REMARK   10  A    between atoms: O_27  and  C_28
REMARK                            x       y       z     vdW  Elec       q    Type
REMARK                         _______ _______ _______ _____ _____    ______ ____
ROOT
ATOM      1  N   UNL     1       2.963   6.326  19.932  0.00  0.00    +0.000 N 
ATOM      2  C   UNL     1       2.115   7.393  19.965  0.00  0.00    +0.000 A 
ATOM      3  N   UNL     1       2.087   8.305  18.986  0.00  0.00    +0.000 NA
ATOM      4  C   UNL     1       1.282   9.383  19.188  0.00  0.00    +0.000 A 
ATOM      5  C   UNL     1       0.479   9.575  20.294  0.00  0.00    +0.000 A 
ATOM      6  C   UNL     1       0.535   8.537  21.193  0.00  0.00    +0.000 A 
ATOM      7  N   UNL     1       1.340   7.458  21.054  0.00  0.00    +0.000 NA
ATOM      8  H   UNL     1       2.955   5.845  20.823  0.00  0.00    +0.000 HD
ENDROOT
BRANCH   1  14
ATOM      9  C   UNL     1       4.654   4.658  19.155  0.00  0.00    +0.000 C 
ATOM     10  C   UNL     1       5.919   4.565  18.292  0.00  0.00    +0.000 C 
ATOM     11  C   UNL     1       5.610   4.998  16.867  0.00  0.00    +0.000 C 
ATOM     12  O   UNL     1       5.152   6.353  16.850  0.00  0.00    +0.000 OA
ATOM     13  C   UNL     1       3.933   6.529  17.590  0.00  0.00    +0.000 C 
ATOM     14  C   UNL     1       4.109   6.107  19.059  0.00  0.00    +0.000 C 
BRANCH   9  17
ATOM     15  C   UNL     1       3.143   2.731  19.614  0.00  0.00    +0.000 C 
ATOM     16  O   UNL     1       3.502   2.574  20.772  0.00  0.00    +0.000 OA
ATOM     17  N   UNL     1       3.651   3.666  18.755  0.00  0.00    +0.000 N 
ATOM     18  H   UNL     1       3.197   3.822  17.860  0.00  0.00    +0.000 HD
BRANCH  15  20
ATOM     19  C   UNL     1       0.823   2.332  18.898  0.00  0.00    +0.000 C 
ATOM     20  C   UNL     1       2.089   1.902  18.976  0.00  0.00    +0.000 C 
ENDBRANCH  15  20
ENDBRANCH   9  17
ENDBRANCH   1  14
BRANCH   5  21
ATOM     21  O   UNL     1      -0.215  10.746  20.394  0.00  0.00    +0.000 OA
BRANCH  21  22
ATOM     22  C   UNL     1      -0.422  11.481  19.180  0.00  0.00    +0.000 C 
BRANCH  22  23
ATOM     23  C   UNL     1      -1.812  11.291  18.619  0.00  0.00    +0.000 A 
ATOM     24  C   UNL     1      -2.919  11.984  19.119  0.00  0.00    +0.000 A 
ATOM     25  F   UNL     1      -2.737  12.799  20.169  0.00  0.00    +0.000 F 
ATOM     26  C   UNL     1      -4.183  11.860  18.522  0.00  0.00    +0.000 A 
ATOM     27  C   UNL     1      -4.339  11.034  17.400  0.00  0.00    +0.000 A 
ATOM     28  C   UNL     1      -3.253  10.337  16.874  0.00  0.00    +0.000 A 
ATOM     29  C   UNL     1      -2.004  10.478  17.495  0.00  0.00    +0.000 A 
ATOM     30  F   UNL     1      -0.946   9.829  16.978  0.00  0.00    +0.000 F 
BRANCH  26  31
ATOM     31  O   UNL     1      -5.346  12.480  18.898  0.00  0.00    +0.000 OA
ATOM     32  C   UNL     1      -6.306  12.744  17.885  0.00  0.00    +0.000 C 
ENDBRANCH  26  31
BRANCH  28  33
ATOM     33  O   UNL     1      -3.286   9.515  15.782  0.00  0.00    +0.000 OA
ATOM     34  C   UNL     1      -3.074  10.108  14.505  0.00  0.00    +0.000 C 
ENDBRANCH  28  33
ENDBRANCH  22  23
ENDBRANCH  21  22
ENDBRANCH   5  21
TORSDOF 8
ENDMDL
MODEL 3
REMARK VINA RESULT:      -7.8      1.297      3.853
REMARK  Name = 
REMARK  10 active torsions:
REMARK  status: ('A' for Active; 'I' for Inactive)
REMARK    1  A    between atoms: C_2  and  C_3
REMARK    2  A    between atoms: N_5  and  C_6
REMARK    3  A    between atoms: C_11  and  N_12
REMARK    4  A    between atoms: C_16  and  O_17
REMARK    5  A    between atoms: O_17  and  C_18
REMARK    6  A    between atoms: C_18  and  C_19
REMARK    7  A    between atoms: C_22  and  O_23
REMARK    8  A    between atoms: O_23  and  C_24
REMARK    9  A    between atoms: C_26  and  O_27
REMARK   10  A    between atoms: O_27  and  C_28
REMARK                            x       y       z     vdW  Elec       q    Type
REMARK                         _______ _______ _______ _____ _____    ______ ____
ROOT
ATOM      1  N   UNL     1       3.706   5.970  19.154  0.00  0.00    +0.000 N 
ATOM      2  C   UNL     1       2.784   6.951  19.369  0.00  0.00    +0.000 A 
ATOM      3  N   UNL     1       2.672   8.007  18.555  0.00  0.00    +0.000 NA
ATOM      4  C   UNL     1       1.795   8.974  18.938  0.00  0.00    +0.000 A 
ATOM      5  C   UNL     1       1.002   8.922  20.067  0.00  0.00    +0.000 A 
ATOM      6  C   UNL     1       1.150   7.757  20.781  0.00  0.00    +0.000 A 
ATOM      7  N   UNL     1       2.028   6.778  20.460  0.00  0.00    +0.000 NA
ATOM      8  H   UNL     1       3.751   5.349  19.953  0.00  0.00    +0.000 HD
ENDROOT
BRANCH   1  14
ATOM      9  C   UNL     1       5.703   4.694  18.359  0.00  0.00    +0.000 C 
ATOM     10  C   UNL     1       6.933   4.856  17.457  0.00  0.00    +0.000 C 
ATOM     11  C   UNL     1       6.496   5.168  16.033  0.00  0.00    +0.000 C 
ATOM     12  O   UNL     1       5.749   6.388  16.001  0.00  0.00    +0.000 OA
ATOM     13  C   UNL     1       4.543   6.312  16.777  0.00  0.00    +0.000 C 
ATOM     14  C   UNL     1       4.848   5.984  18.249  0.00  0.00    +0.000 C 
BRANCH   9  17
ATOM     15  C   UNL     1       4.249   2.756  18.942  0.00  0.00    +0.000 C 
ATOM     16  O   UNL     1       4.248   2.968  20.146  0.00  0.00    +0.000 OA
ATOM     17  N   UNL     1       4.934   3.494  18.016  0.00  0.00    +0.000 N 
ATOM     18  H   UNL     1       4.765   3.336  17.027  0.00  0.00    +0.000 HD
BRANCH  15  20
ATOM     19  C   UNL     1       2.299   1.846  17.748  0.00  0.00    +0.000 C 
ATOM     20  C   UNL     1       3.494   1.640  18.318  0.00  0.00    +0.000 C 
ENDBRANCH  15  20
ENDBRANCH   9  17
ENDBRANCH   1  14
BRANCH   5  21
ATOM     21  O   UNL     1       0.227  10.006  20.365  0.00  0.00    +0.000 OA
BRANCH  21  22
ATOM     22  C   UNL     1       0.123  11.021  19.358  0.00  0.00    +0.000 C 
BRANCH  22  23
ATOM     23  C   UNL     1      -1.252  11.075  18.733  0.00  0.00    +0.000 A 
ATOM     24  C   UNL     1      -1.594  10.306  17.616  0.00  0.00    +0.000 A 
ATOM     25  F   UNL     1      -0.645   9.543  17.056  0.00  0.00    +0.000 F 
ATOM     26  C   UNL     1      -2.903  10.305  17.110  0.00  0.00    +0.000 A 
ATOM     27  C   UNL     1      -3.888  11.080  17.739  0.00  0.00    +0.000 A 
ATOM     28  C   UNL     1      -3.579  11.850  18.858  0.00  0.00    +0.000 A 
ATOM     29  C   UNL     1      -2.262  11.835  19.337  0.00  0.00    +0.000 A 
ATOM     30  F   UNL     1      -1.962  12.555  20.432  0.00  0.00    +0.000 F 
BRANCH  26  31
ATOM     31  O   UNL     1      -3.379   9.600  16.035  0.00  0.00    +0.000 OA
ATOM     32  C   UNL     1      -3.063  10.087  14.739  0.00  0.00    +0.000 C 
ENDBRANCH  26  31
BRANCH  28  33
ATOM     33  O   UNL     1      -4.457  12.632  19.555  0.00  0.00    +0.000 OA
ATOM     34  C   UNL     1      -5.781  12.750  19.045  0.00  0.00    +0.000 C 
ENDBRANCH  28  33
ENDBRANCH  22  23
ENDBRANCH  21  22
ENDBRANCH   5  21
TORSDOF 8
ENDMDL
MODEL 4
REMARK VINA RESULT:      -7.8      1.125      2.701
REMARK  Name = 
REMARK  10 active torsions:
REMARK  status: ('A' for Active; 'I' for Inactive)
REMARK    1  A    between atoms: C_2  and  C_3
REMARK    2  A    between atoms: N_5  and  C_6
REMARK    3  A    between atoms: C_11  and  N_12
REMARK    4  A    between atoms: C_16  and  O_17
REMARK    5  A    between atoms: O_17  and  C_18
REMARK    6  A    between atoms: C_18  and  C_19
REMARK    7  A    between atoms: C_22  and  O_23
REMARK    8  A    between atoms: O_23  and  C_24
REMARK    9  A    between atoms: C_26  and  O_27
REMARK   10  A    between atoms: O_27  and  C_28
REMARK                            x       y       z     vdW  Elec       q    Type
REMARK                         _______ _______ _______ _____ _____    ______ ____
ROOT
ATOM      1  N   UNL     1       3.225   6.033  17.901  0.00  0.00    +0.000 N 
ATOM      2  C   UNL     1       2.665   7.217  18.277  0.00  0.00    +0.000 A 
ATOM      3  N   UNL     1       2.009   7.354  19.435  0.00  0.00    +0.000 NA
ATOM      4  C   UNL     1       1.396   8.551  19.644  0.00  0.00    +0.000 A 
ATOM      5  C   UNL     1       1.438   9.624  18.777  0.00  0.00    +0.000 A 
ATOM      6  C   UNL     1       2.204   9.390  17.660  0.00  0.00    +0.000 A 
ATOM      7  N   UNL     1       2.809   8.210  17.390  0.00  0.00    +0.000 NA
ATOM      8  H   UNL     1       3.530   6.079  16.937  0.00  0.00    +0.000 HD
ENDROOT
BRANCH   1  14
ATOM      9  C   UNL     1       3.802   3.608  17.718  0.00  0.00    +0.000 C 
ATOM     10  C   UNL     1       3.430   2.250  18.328  0.00  0.00    +0.000 C 
ATOM     11  C   UNL     1       3.703   2.259  19.825  0.00  0.00    +0.000 C 
ATOM     12  O   UNL     1       2.919   3.271  20.464  0.00  0.00    +0.000 OA
ATOM     13  C   UNL     1       3.239   4.591  19.995  0.00  0.00    +0.000 C 
ATOM     14  C   UNL     1       3.019   4.710  18.478  0.00  0.00    +0.000 C 
BRANCH   9  17
ATOM     15  C   UNL     1       5.917   4.547  16.792  0.00  0.00    +0.000 C 
ATOM     16  O   UNL     1       5.407   5.007  15.781  0.00  0.00    +0.000 OA
ATOM     17  N   UNL     1       5.250   3.839  17.754  0.00  0.00    +0.000 N 
ATOM     18  H   UNL     1       5.719   3.619  18.628  0.00  0.00    +0.000 HD
BRANCH  15  20
ATOM     19  C   UNL     1       7.760   5.252  18.261  0.00  0.00    +0.000 C 
ATOM     20  C   UNL     1       7.360   4.697  17.110  0.00  0.00    +0.000 C 
ENDBRANCH  15  20
ENDBRANCH   9  17
ENDBRANCH   1  14
BRANCH   5  21
ATOM     21  O   UNL     1       0.707  10.734  19.087  0.00  0.00    +0.000 OA
BRANCH  21  22
ATOM     22  C   UNL     1      -0.552  10.519  19.738  0.00  0.00    +0.000 C 
BRANCH  22  23
ATOM     23  C   UNL     1      -1.726  10.737  18.812  0.00  0.00    +0.000 A 
ATOM     24  C   UNL     1      -1.876  10.024  17.618  0.00  0.00    +0.000 A 
ATOM     25  F   UNL     1      -0.909   9.164  17.266  0.00  0.00    +0.000 F 
ATOM     26  C   UNL     1      -3.020  10.177  16.821  0.00  0.00    +0.000 A 
ATOM     27  C   UNL     1      -4.037  11.053  17.231  0.00  0.00    +0.000 A 
ATOM     28  C   UNL     1      -3.919  11.769  18.420  0.00  0.00    +0.000 A 
ATOM     29  C   UNL     1      -2.762  11.599  19.192  0.00  0.00    +0.000 A 
ATOM     30  F   UNL     1      -2.653  12.268  20.354  0.00  0.00    +0.000 F 
BRANCH  26  31
ATOM     31  O   UNL     1      -3.303   9.544  15.639  0.00  0.00    +0.000 OA
ATOM     32  C   UNL     1      -3.268  10.323  14.452  0.00  0.00    +0.000 C 
ENDBRANCH  26  31
BRANCH  28  33
ATOM     33  O   UNL     1      -4.847  12.639  18.922  0.00  0.00    +0.000 OA
ATOM     34  C   UNL     1      -6.075  12.093  19.393  0.00  0.00    +0.000 C 
ENDBRANCH  28  33
ENDBRANCH  22  23
ENDBRANCH  21  22
ENDBRANCH   5  21
TORSDOF 8
ENDMDL
MODEL 5
REMARK VINA RESULT:      -7.8      1.946      3.403
REMARK  Name = 
REMARK  10 active torsions:
REMARK  status: ('A' for Active; 'I' for Inactive)
REMARK    1  A    between atoms: C_2  and  C_3
REMARK    2  A    between atoms: N_5  and  C_6
REMARK    3  A    between atoms: C_11  and  N_12
REMARK    4  A    between atoms: C_16  and  O_17
REMARK    5  A    between atoms: O_17  and  C_18
REMARK    6  A    between atoms: C_18  and  C_19
REMARK    7  A    between atoms: C_22  and  O_23
REMARK    8  A    between atoms: O_23  and  C_24
REMARK    9  A    between atoms: C_26  and  O_27
REMARK   10  A    between atoms: O_27  and  C_28
REMARK                            x       y       z     vdW  Elec       q    Type
REMARK                         _______ _______ _______ _____ _____    ______ ____
ROOT
ATOM      1  N   UNL     1       2.010   6.488  20.265  0.00  0.00    +0.000 N 
ATOM      2  C   UNL     1       1.338   7.640  20.545  0.00  0.00    +0.000 A 
ATOM      3  N   UNL     1       0.335   7.677  21.431  0.00  0.00    +0.000 NA
ATOM      4  C   UNL     1      -0.332   8.858  21.537  0.00  0.00    +0.000 A 
ATOM      5  C   UNL     1      -0.026  10.007  20.836  0.00  0.00    +0.000 A 
ATOM      6  C   UNL     1       1.068   9.867  20.016  0.00  0.00    +0.000 A 
ATOM      7  N   UNL     1       1.749   8.709  19.852  0.00  0.00    +0.000 NA
ATOM      8  H   UNL     1       2.614   6.619  19.463  0.00  0.00    +0.000 HD
ENDROOT
BRANCH   1  14
ATOM      9  C   UNL     1       1.577   4.193  19.375  0.00  0.00    +0.000 C 
ATOM     10  C   UNL     1       1.080   2.816  19.835  0.00  0.00    +0.000 C 
ATOM     11  C   UNL     1       1.983   2.278  20.936  0.00  0.00    +0.000 C 
ATOM     12  O   UNL     1       1.969   3.161  22.062  0.00  0.00    +0.000 OA
ATOM     13  C   UNL     1       2.473   4.468  21.739  0.00  0.00    +0.000 C 
ATOM     14  C   UNL     1       1.648   5.120  20.616  0.00  0.00    +0.000 C 
BRANCH   9  17
ATOM     15  C   UNL     1       2.986   3.694  17.382  0.00  0.00    +0.000 C 
ATOM     16  O   UNL     1       2.063   3.309  16.679  0.00  0.00    +0.000 OA
ATOM     17  N   UNL     1       2.865   4.100  18.682  0.00  0.00    +0.000 N 
ATOM     18  H   UNL     1       3.657   4.539  19.145  0.00  0.00    +0.000 HD
BRANCH  15  20
ATOM     19  C   UNL     1       4.930   4.928  16.514  0.00  0.00    +0.000 C 
ATOM     20  C   UNL     1       4.390   3.766  16.904  0.00  0.00    +0.000 C 
ENDBRANCH  15  20
ENDBRANCH   9  17
ENDBRANCH   1  14
BRANCH   5  21
ATOM     21  O   UNL     1      -0.836  11.094  20.990  0.00  0.00    +0.000 OA
BRANCH  21  22
ATOM     22  C   UNL     1      -0.961  11.972  19.863  0.00  0.00    +0.000 C 
BRANCH  22  23
ATOM     23  C   UNL     1      -2.198  11.688  19.044  0.00  0.00    +0.000 A 
ATOM     24  C   UNL     1      -2.168  10.875  17.906  0.00  0.00    +0.000 A 
ATOM     25  F   UNL     1      -0.986  10.386  17.507  0.00  0.00    +0.000 F 
ATOM     26  C   UNL     1      -3.346  10.552  17.215  0.00  0.00    +0.000 A 
ATOM     27  C   UNL     1      -4.576  11.042  17.677  0.00  0.00    +0.000 A 
ATOM     28  C   UNL     1      -4.638  11.846  18.813  0.00  0.00    +0.000 A 
ATOM     29  C   UNL     1      -3.444  12.157  19.479  0.00  0.00    +0.000 A 
ATOM     30  F   UNL     1      -3.499  12.912  20.590  0.00  0.00    +0.000 F 
BRANCH  26  31
ATOM     31  O   UNL     1      -3.467   9.767  16.098  0.00  0.00    +0.000 OA
ATOM     32  C   UNL     1      -2.943  10.275  14.879  0.00  0.00    +0.000 C 
ENDBRANCH  26  31
BRANCH  28  33
ATOM     33  O   UNL     1      -5.777  12.370  19.357  0.00  0.00    +0.000 OA
ATOM     34  C   UNL     1      -6.235  13.619  18.851  0.00  0.00    +0.000 C 
ENDBRANCH  28  33
ENDBRANCH  22  23
ENDBRANCH  21  22
ENDBRANCH   5  21
TORSDOF 8
ENDMDL
MODEL 6
REMARK VINA RESULT:      -7.7      3.252      3.958
REMARK  Name = 
REMARK  10 active torsions:
REMARK  status: ('A' for Active; 'I' for Inactive)
REMARK    1  A    between atoms: C_2  and  C_3
REMARK    2  A    between atoms: N_5  and  C_6
REMARK    3  A    between atoms: C_11  and  N_12
REMARK    4  A    between atoms: C_16  and  O_17
REMARK    5  A    between atoms: O_17  and  C_18
REMARK    6  A    between atoms: C_18  and  C_19
REMARK    7  A    between atoms: C_22  and  O_23
REMARK    8  A    between atoms: O_23  and  C_24
REMARK    9  A    between atoms: C_26  and  O_27
REMARK   10  A    between atoms: O_27  and  C_28
REMARK                            x       y       z     vdW  Elec       q    Type
REMARK                         _______ _______ _______ _____ _____    ______ ____
ROOT
ATOM      1  N   UNL     1       3.052   5.952  18.059  0.00  0.00    +0.000 N 
ATOM      2  C   UNL     1       2.525   7.093  18.585  0.00  0.00    +0.000 A 
ATOM      3  N   UNL     1       2.066   7.147  19.841  0.00  0.00    +0.000 NA
ATOM      4  C   UNL     1       1.458   8.307  20.212  0.00  0.00    +0.000 A 
ATOM      5  C   UNL     1       1.320   9.421  19.409  0.00  0.00    +0.000 A 
ATOM      6  C   UNL     1       1.897   9.272  18.170  0.00  0.00    +0.000 A 
ATOM      7  N   UNL     1       2.487   8.132  17.741  0.00  0.00    +0.000 NA
ATOM      8  H   UNL     1       3.192   6.057  17.061  0.00  0.00    +0.000 HD
ENDROOT
BRANCH   1  14
ATOM      9  C   UNL     1       3.709   3.571  17.676  0.00  0.00    +0.000 C 
ATOM     10  C   UNL     1       3.487   2.170  18.260  0.00  0.00    +0.000 C 
ATOM     11  C   UNL     1       3.962   2.126  19.705  0.00  0.00    +0.000 C 
ATOM     12  O   UNL     1       3.228   3.067  20.495  0.00  0.00    +0.000 OA
ATOM     13  C   UNL     1       3.420   4.421  20.056  0.00  0.00    +0.000 C 
ATOM     14  C   UNL     1       2.988   4.596  18.590  0.00  0.00    +0.000 C 
BRANCH   9  17
ATOM     15  C   UNL     1       5.704   4.225  16.333  0.00  0.00    +0.000 C 
ATOM     16  O   UNL     1       5.117   4.262  15.262  0.00  0.00    +0.000 OA
ATOM     17  N   UNL     1       5.136   3.875  17.527  0.00  0.00    +0.000 N 
ATOM     18  H   UNL     1       5.659   4.009  18.388  0.00  0.00    +0.000 HD
BRANCH  15  20
ATOM     19  C   UNL     1       7.716   4.649  17.684  0.00  0.00    +0.000 C 
ATOM     20  C   UNL     1       7.145   4.555  16.477  0.00  0.00    +0.000 C 
ENDBRANCH  15  20
ENDBRANCH   9  17
ENDBRANCH   1  14
BRANCH   5  21
ATOM     21  O   UNL     1       0.616  10.485  19.893  0.00  0.00    +0.000 OA
BRANCH  21  22
ATOM     22  C   UNL     1       0.712  10.737  21.302  0.00  0.00    +0.000 C 
BRANCH  22  23
ATOM     23  C   UNL     1      -0.289  11.765  21.775  0.00  0.00    +0.000 A 
ATOM     24  C   UNL     1      -0.284  13.082  21.304  0.00  0.00    +0.000 A 
ATOM     25  F   UNL     1       0.682  13.447  20.449  0.00  0.00    +0.000 F 
ATOM     26  C   UNL     1      -1.280  13.993  21.689  0.00  0.00    +0.000 A 
ATOM     27  C   UNL     1      -2.304  13.575  22.552  0.00  0.00    +0.000 A 
ATOM     28  C   UNL     1      -2.339  12.266  23.030  0.00  0.00    +0.000 A 
ATOM     29  C   UNL     1      -1.328  11.381  22.632  0.00  0.00    +0.000 A 
ATOM     30  F   UNL     1      -1.370  10.110  23.069  0.00  0.00    +0.000 F 
BRANCH  26  31
ATOM     31  O   UNL     1      -1.404  15.302  21.305  0.00  0.00    +0.000 OA
ATOM     32  C   UNL     1      -1.072  16.301  22.258  0.00  0.00    +0.000 C 
ENDBRANCH  26  31
BRANCH  28  33
ATOM     33  O   UNL     1      -3.291  11.748  23.864  0.00  0.00    +0.000 OA
ATOM     34  C   UNL     1      -4.110  12.666  24.579  0.00  0.00    +0.000 C 
ENDBRANCH  28  33
ENDBRANCH  22  23
ENDBRANCH  21  22
ENDBRANCH   5  21
TORSDOF 8
ENDMDL
MODEL 7
REMARK VINA RESULT:      -7.6      1.215      2.608
REMARK  Name = 
REMARK  10 active torsions:
REMARK  status: ('A' for Active; 'I' for Inactive)
REMARK    1  A    between atoms: C_2  and  C_3
REMARK    2  A    between atoms: N_5  and  C_6
REMARK    3  A    between atoms: C_11  and  N_12
REMARK    4  A    between atoms: C_16  and  O_17
REMARK    5  A    between atoms: O_17  and  C_18
REMARK    6  A    between atoms: C_18  and  C_19
REMARK    7  A    between atoms: C_22  and  O_23
REMARK    8  A    between atoms: O_23  and  C_24
REMARK    9  A    between atoms: C_26  and  O_27
REMARK   10  A    between atoms: O_27  and  C_28
REMARK                            x       y       z     vdW  Elec       q    Type
REMARK                         _______ _______ _______ _____ _____    ______ ____
ROOT
ATOM      1  N   UNL     1       3.003   7.151  17.841  0.00  0.00    +0.000 N 
ATOM      2  C   UNL     1       2.297   8.162  18.420  0.00  0.00    +0.000 A 
ATOM      3  N   UNL     1       1.762   8.043  19.641  0.00  0.00    +0.000 NA
ATOM      4  C   UNL     1       0.984   9.077  20.063  0.00  0.00    +0.000 A 
ATOM      5  C   UNL     1       0.746  10.232  19.346  0.00  0.00    +0.000 A 
ATOM      6  C   UNL     1       1.409  10.271  18.143  0.00  0.00    +0.000 A 
ATOM      7  N   UNL     1       2.170   9.260  17.664  0.00  0.00    +0.000 NA
ATOM      8  H   UNL     1       3.185   7.362  16.867  0.00  0.00    +0.000 HD
ENDROOT
BRANCH   1  14
ATOM      9  C   UNL     1       4.181   4.977  17.473  0.00  0.00    +0.000 C 
ATOM     10  C   UNL     1       4.114   3.504  17.896  0.00  0.00    +0.000 C 
ATOM     11  C   UNL     1       4.256   3.389  19.407  0.00  0.00    +0.000 C 
ATOM     12  O   UNL     1       3.196   4.095  20.059  0.00  0.00    +0.000 OA
ATOM     13  C   UNL     1       3.212   5.501  19.765  0.00  0.00    +0.000 C 
ATOM     14  C   UNL     1       3.089   5.755  18.253  0.00  0.00    +0.000 C 
BRANCH   9  17
ATOM     15  C   UNL     1       6.070   6.486  16.867  0.00  0.00    +0.000 C 
ATOM     16  O   UNL     1       5.553   6.915  15.846  0.00  0.00    +0.000 OA
ATOM     17  N   UNL     1       5.518   5.541  17.688  0.00  0.00    +0.000 N 
ATOM     18  H   UNL     1       5.948   5.348  18.588  0.00  0.00    +0.000 HD
BRANCH  15  20
ATOM     19  C   UNL     1       7.865   6.556  18.548  0.00  0.00    +0.000 C 
ATOM     20  C   UNL     1       7.397   6.941  17.355  0.00  0.00    +0.000 C 
ENDBRANCH  15  20
ENDBRANCH   9  17
ENDBRANCH   1  14
BRANCH   5  21
ATOM     21  O   UNL     1      -0.122  11.149  19.865  0.00  0.00    +0.000 OA
BRANCH  21  22
ATOM     22  C   UNL     1      -0.731  12.060  18.940  0.00  0.00    +0.000 C 
BRANCH  22  23
ATOM     23  C   UNL     1      -2.216  12.210  19.171  0.00  0.00    +0.000 A 
ATOM     24  C   UNL     1      -3.166  11.637  18.319  0.00  0.00    +0.000 A 
ATOM     25  F   UNL     1      -2.731  10.982  17.233  0.00  0.00    +0.000 F 
ATOM     26  C   UNL     1      -4.537  11.713  18.606  0.00  0.00    +0.000 A 
ATOM     27  C   UNL     1      -4.965  12.368  19.770  0.00  0.00    +0.000 A 
ATOM     28  C   UNL     1      -4.042  12.942  20.642  0.00  0.00    +0.000 A 
ATOM     29  C   UNL     1      -2.679  12.854  20.326  0.00  0.00    +0.000 A 
ATOM     30  F   UNL     1      -1.781  13.383  21.176  0.00  0.00    +0.000 F 
BRANCH  26  31
ATOM     31  O   UNL     1      -5.572  11.196  17.871  0.00  0.00    +0.000 OA
ATOM     32  C   UNL     1      -6.676  10.655  18.581  0.00  0.00    +0.000 C 
ENDBRANCH  26  31
BRANCH  28  33
ATOM     33  O   UNL     1      -4.343  13.593  21.806  0.00  0.00    +0.000 OA
ATOM     34  C   UNL     1      -5.695  13.989  22.008  0.00  0.00    +0.000 C 
ENDBRANCH  28  33
ENDBRANCH  22  23
ENDBRANCH  21  22
ENDBRANCH   5  21
TORSDOF 8
ENDMDL
MODEL 8
REMARK VINA RESULT:      -7.6      2.853      3.635
REMARK  Name = 
REMARK  10 active torsions:
REMARK  status: ('A' for Active; 'I' for Inactive)
REMARK    1  A    between atoms: C_2  and  C_3
REMARK    2  A    between atoms: N_5  and  C_6
REMARK    3  A    between atoms: C_11  and  N_12
REMARK    4  A    between atoms: C_16  and  O_17
REMARK    5  A    between atoms: O_17  and  C_18
REMARK    6  A    between atoms: C_18  and  C_19
REMARK    7  A    between atoms: C_22  and  O_23
REMARK    8  A    between atoms: O_23  and  C_24
REMARK    9  A    between atoms: C_26  and  O_27
REMARK   10  A    between atoms: O_27  and  C_28
REMARK                            x       y       z     vdW  Elec       q    Type
REMARK                         _______ _______ _______ _____ _____    ______ ____
ROOT
ATOM      1  N   UNL     1       3.053   6.961  17.839  0.00  0.00    +0.000 N 
ATOM      2  C   UNL     1       2.401   8.013  18.411  0.00  0.00    +0.000 A 
ATOM      3  N   UNL     1       1.914   7.951  19.656  0.00  0.00    +0.000 NA
ATOM      4  C   UNL     1       1.184   9.021  20.072  0.00  0.00    +0.000 A 
ATOM      5  C   UNL     1       0.950  10.158  19.327  0.00  0.00    +0.000 A 
ATOM      6  C   UNL     1       1.564  10.138  18.097  0.00  0.00    +0.000 A 
ATOM      7  N   UNL     1       2.276   9.088  17.624  0.00  0.00    +0.000 NA
ATOM      8  H   UNL     1       3.201   7.135  16.852  0.00  0.00    +0.000 HD
ENDROOT
BRANCH   1  14
ATOM      9  C   UNL     1       4.077   4.718  17.435  0.00  0.00    +0.000 C 
ATOM     10  C   UNL     1       3.984   3.266  17.921  0.00  0.00    +0.000 C 
ATOM     11  C   UNL     1       4.283   3.195  19.411  0.00  0.00    +0.000 C 
ATOM     12  O   UNL     1       3.335   3.978  20.144  0.00  0.00    +0.000 OA
ATOM     13  C   UNL     1       3.388   5.370  19.794  0.00  0.00    +0.000 C 
ATOM     14  C   UNL     1       3.115   5.578  18.294  0.00  0.00    +0.000 C 
BRANCH   9  17
ATOM     15  C   UNL     1       5.943   6.148  16.608  0.00  0.00    +0.000 C 
ATOM     16  O   UNL     1       5.322   6.615  15.664  0.00  0.00    +0.000 OA
ATOM     17  N   UNL     1       5.455   5.218  17.484  0.00  0.00    +0.000 N 
ATOM     18  H   UNL     1       5.985   4.993  18.321  0.00  0.00    +0.000 HD
BRANCH  15  20
ATOM     19  C   UNL     1       7.606   7.626  17.659  0.00  0.00    +0.000 C 
ATOM     20  C   UNL     1       7.340   6.536  16.928  0.00  0.00    +0.000 C 
ENDBRANCH  15  20
ENDBRANCH   9  17
ENDBRANCH   1  14
BRANCH   5  21
ATOM     21  O   UNL     1       0.132  11.118  19.849  0.00  0.00    +0.000 OA
BRANCH  21  22
ATOM     22  C   UNL     1       0.289  11.413  21.243  0.00  0.00    +0.000 C 
BRANCH  22  23
ATOM     23  C   UNL     1      -0.845  12.250  21.788  0.00  0.00    +0.000 A 
ATOM     24  C   UNL     1      -1.108  13.542  21.323  0.00  0.00    +0.000 A 
ATOM     25  F   UNL     1      -0.285  14.066  20.403  0.00  0.00    +0.000 F 
ATOM     26  C   UNL     1      -2.221  14.264  21.779  0.00  0.00    +0.000 A 
ATOM     27  C   UNL     1      -3.092  13.678  22.710  0.00  0.00    +0.000 A 
ATOM     28  C   UNL     1      -2.859  12.389  23.185  0.00  0.00    +0.000 A 
ATOM     29  C   UNL     1      -1.736  11.695  22.715  0.00  0.00    +0.000 A 
ATOM     30  F   UNL     1      -1.520  10.441  23.150  0.00  0.00    +0.000 F 
BRANCH  26  31
ATOM     31  O   UNL     1      -2.604  15.527  21.408  0.00  0.00    +0.000 OA
ATOM     32  C   UNL     1      -3.917  15.690  20.890  0.00  0.00    +0.000 C 
ENDBRANCH  26  31
BRANCH  28  33
ATOM     33  O   UNL     1      -3.642  11.717  24.082  0.00  0.00    +0.000 OA
ATOM     34  C   UNL     1      -4.429  12.493  24.980  0.00  0.00    +0.000 C 
ENDBRANCH  28  33
ENDBRANCH  22  23
ENDBRANCH  21  22
ENDBRANCH   5  21
TORSDOF 8
ENDMDL
MODEL 9
REMARK VINA RESULT:      -7.5      3.354      9.675
REMARK  Name = 
REMARK  10 active torsions:
REMARK  status: ('A' for Active; 'I' for Inactive)
REMARK    1  A    between atoms: C_2  and  C_3
REMARK    2  A    between atoms: N_5  and  C_6
REMARK    3  A    between atoms: C_11  and  N_12
REMARK    4  A    between atoms: C_16  and  O_17
REMARK    5  A    between atoms: O_17  and  C_18
REMARK    6  A    between atoms: C_18  and  C_19
REMARK    7  A    between atoms: C_22  and  O_23
REMARK    8  A    between atoms: O_23  and  C_24
REMARK    9  A    between atoms: C_26  and  O_27
REMARK   10  A    between atoms: O_27  and  C_28
REMARK                            x       y       z     vdW  Elec       q    Type
REMARK                         _______ _______ _______ _____ _____    ______ ____
ROOT
ATOM      1  N   UNL     1       1.297   9.380  19.892  0.00  0.00    +0.000 N 
ATOM      2  C   UNL     1       1.625   8.065  19.750  0.00  0.00    +0.000 A 
ATOM      3  N   UNL     1       1.315   7.153  20.680  0.00  0.00    +0.000 NA
ATOM      4  C   UNL     1       1.797   5.897  20.478  0.00  0.00    +0.000 A 
ATOM      5  C   UNL     1       2.536   5.499  19.382  0.00  0.00    +0.000 A 
ATOM      6  C   UNL     1       2.724   6.501  18.461  0.00  0.00    +0.000 A 
ATOM      7  N   UNL     1       2.292   7.773  18.626  0.00  0.00    +0.000 NA
ATOM      8  H   UNL     1       1.752   9.934  19.177  0.00  0.00    +0.000 HD
ENDROOT
BRANCH   1  14
ATOM      9  C   UNL     1       0.059  11.373  20.751  0.00  0.00    +0.000 C 
ATOM     10  C   UNL     1      -0.282  12.082  22.069  0.00  0.00    +0.000 C 
ATOM     11  C   UNL     1      -1.054  11.140  22.982  0.00  0.00    +0.000 C 
ATOM     12  O   UNL     1      -0.264   9.985  23.282  0.00  0.00    +0.000 OA
ATOM     13  C   UNL     1       0.059   9.222  22.108  0.00  0.00    +0.000 C 
ATOM     14  C   UNL     1       0.835  10.074  21.088  0.00  0.00    +0.000 C 
BRANCH   9  17
ATOM     15  C   UNL     1      -1.392  11.714  18.754  0.00  0.00    +0.000 C 
ATOM     16  O   UNL     1      -0.692  12.578  18.247  0.00  0.00    +0.000 OA
ATOM     17  N   UNL     1      -1.142  11.106  19.954  0.00  0.00    +0.000 N 
ATOM     18  H   UNL     1      -1.696  10.300  20.230  0.00  0.00    +0.000 HD
BRANCH  15  20
ATOM     19  C   UNL     1      -3.839  11.647  18.509  0.00  0.00    +0.000 C 
ATOM     20  C   UNL     1      -2.636  11.207  18.120  0.00  0.00    +0.000 C 
ENDBRANCH  15  20
ENDBRANCH   9  17
ENDBRANCH   1  14
BRANCH   5  21
ATOM     21  O   UNL     1       3.019   4.222  19.356  0.00  0.00    +0.000 OA
BRANCH  21  22
ATOM     22  C   UNL     1       4.410   4.051  19.659  0.00  0.00    +0.000 C 
BRANCH  22  23
ATOM     23  C   UNL     1       5.300   4.356  18.477  0.00  0.00    +0.000 A 
ATOM     24  C   UNL     1       5.083   3.795  17.215  0.00  0.00    +0.000 A 
ATOM     25  F   UNL     1       4.082   2.913  17.076  0.00  0.00    +0.000 F 
ATOM     26  C   UNL     1       5.867   4.164  16.112  0.00  0.00    +0.000 A 
ATOM     27  C   UNL     1       6.882   5.120  16.273  0.00  0.00    +0.000 A 
ATOM     28  C   UNL     1       7.116   5.702  17.517  0.00  0.00    +0.000 A 
ATOM     29  C   UNL     1       6.319   5.309  18.601  0.00  0.00    +0.000 A 
ATOM     30  F   UNL     1       6.523   5.886  19.799  0.00  0.00    +0.000 F 
BRANCH  26  31
ATOM     31  O   UNL     1       5.764   3.705  14.824  0.00  0.00    +0.000 OA
ATOM     32  C   UNL     1       6.554   4.346  13.833  0.00  0.00    +0.000 C 
ENDBRANCH  26  31
BRANCH  28  33
ATOM     33  O   UNL     1       8.066   6.648  17.788  0.00  0.00    +0.000 OA
ATOM     34  C   UNL     1       7.726   8.009  17.553  0.00  0.00    +0.000 C 
ENDBRANCH  28  33
ENDBRANCH  22  23
ENDBRANCH  21  22
ENDBRANCH   5  21
TORSDOF 8
ENDMDL
