MODEL 1
REMARK VINA RESULT:      -8.0      0.000      0.000
REMARK  Name = 
REMARK  5 active torsions:
REMARK  status: ('A' for Active; 'I' for Inactive)
REMARK    1  A    between atoms: C_4  and  O_5
REMARK    2  A    between atoms: C_8  and  C_9
REMARK    3  A    between atoms: C_13  and  C_14
REMARK    4  A    between atoms: C_14  and  C_15
REMARK    5  A    between atoms: C_25  and  O_26
REMARK                            x       y       z     vdW  Elec       q    Type
REMARK                         _______ _______ _______ _____ _____    ______ ____
ROOT
ATOM      1  C   UNL     1       0.755   9.801  20.397  0.00  0.00    +0.000 A 
ATOM      2  C   UNL     1       0.738   9.100  21.580  0.00  0.00    +0.000 A 
ATOM      3  N   UNL     1       1.448   7.942  21.383  0.00  0.00    +0.000 N 
ATOM      4  C   UNL     1       1.898   7.860  20.080  0.00  0.00    +0.000 A 
ATOM      5  C   UNL     1       2.639   6.849  19.433  0.00  0.00    +0.000 A 
ATOM      6  C   UNL     1       2.945   7.084  18.075  0.00  0.00    +0.000 A 
ATOM      7  C   UNL     1       2.562   8.253  17.420  0.00  0.00    +0.000 A 
ATOM      8  C   UNL     1       1.842   9.239  18.094  0.00  0.00    +0.000 A 
ATOM      9  C   UNL     1       1.492   9.037  19.444  0.00  0.00    +0.000 A 
ATOM     10  H   UNL     1       1.619   7.237  22.088  0.00  0.00    +0.000 HD
ENDROOT
BRANCH   1  17
ATOM     11  O   UNL     1       0.201  14.566  20.897  0.00  0.00    +0.000 OA
ATOM     12  C   UNL     1      -0.191  13.489  20.460  0.00  0.00    +0.000 C 
ATOM     13  C   UNL     1      -1.473  13.437  19.746  0.00  0.00    +0.000 C 
ATOM     14  C   UNL     1      -1.956  12.298  19.244  0.00  0.00    +0.000 C 
ATOM     15  C   UNL     1      -1.195  11.017  19.392  0.00  0.00    +0.000 C 
ATOM     16  O   UNL     1      -1.627   9.978  18.901  0.00  0.00    +0.000 OA
ATOM     17  C   UNL     1       0.097  11.053  20.156  0.00  0.00    +0.000 C 
ATOM     18  C   UNL     1       0.570  12.219  20.640  0.00  0.00    +0.000 C 
BRANCH  14  19
ATOM     19  O   UNL     1      -3.166  12.258  18.572  0.00  0.00    +0.000 OA
ATOM     20  H   UNL     1      -3.105  12.768  17.748  0.00  0.00    +0.000 HD
ENDBRANCH  14  19
BRANCH  18  21
ATOM     21  O   UNL     1       1.759  12.317  21.355  0.00  0.00    +0.000 OA
ATOM     22  H   UNL     1       1.877  11.519  21.902  0.00  0.00    +0.000 HD
ENDBRANCH  18  21
ENDBRANCH   1  17
BRANCH   5  23
ATOM     23  C   UNL     1       3.131   5.588  20.113  0.00  0.00    +0.000 C 
BRANCH  23  24
ATOM     24  C   UNL     1       2.503   4.299  19.631  0.00  0.00    +0.000 A 
ATOM     25  C   UNL     1       1.169   3.985  19.937  0.00  0.00    +0.000 A 
ATOM     26  C   UNL     1       0.577   2.821  19.445  0.00  0.00    +0.000 A 
ATOM     27  C   UNL     1       1.303   1.958  18.629  0.00  0.00    +0.000 A 
ATOM     28  C   UNL     1       2.625   2.259  18.306  0.00  0.00    +0.000 A 
ATOM     29  C   UNL     1       3.221   3.420  18.804  0.00  0.00    +0.000 A 
ENDBRANCH  23  24
ENDBRANCH   5  23
TORSDOF 5
ENDMDL
MODEL 2
REMARK VINA RESULT:      -7.9      3.580      8.003
REMARK  Name = 
REMARK  5 active torsions:
REMARK  status: ('A' for Active; 'I' for Inactive)
REMARK    1  A    between atoms: C_4  and  O_5
REMARK    2  A    between atoms: C_8  and  C_9
REMARK    3  A    between atoms: C_13  and  C_14
REMARK    4  A    between atoms: C_14  and  C_15
REMARK    5  A    between atoms: C_25  and  O_26
REMARK                            x       y       z     vdW  Elec       q    Type
REMARK                         _______ _______ _______ _____ _____    ______ ____
ROOT
ATOM      1  C   UNL     1       2.583   6.930  18.639  0.00  0.00    +0.000 A 
ATOM      2  C   UNL     1       2.445   7.561  17.424  0.00  0.00    +0.000 A 
ATOM      3  N   UNL     1       1.769   8.735  17.643  0.00  0.00    +0.000 N 
ATOM      4  C   UNL     1       1.433   8.863  18.977  0.00  0.00    +0.000 A 
ATOM      5  C   UNL     1       0.724   9.884  19.644  0.00  0.00    +0.000 A 
ATOM      6  C   UNL     1       0.557   9.709  21.035  0.00  0.00    +0.000 A 
ATOM      7  C   UNL     1       1.081   8.610  21.712  0.00  0.00    +0.000 A 
ATOM      8  C   UNL     1       1.789   7.625  21.023  0.00  0.00    +0.000 A 
ATOM      9  C   UNL     1       1.959   7.745  19.629  0.00  0.00    +0.000 A 
ATOM     10  H   UNL     1       1.538   9.415  16.931  0.00  0.00    +0.000 HD
ENDROOT
BRANCH   1  17
ATOM     11  O   UNL     1       2.633   2.349  20.147  0.00  0.00    +0.000 OA
ATOM     12  C   UNL     1       3.213   3.319  19.671  0.00  0.00    +0.000 C 
ATOM     13  C   UNL     1       4.655   3.227  19.410  0.00  0.00    +0.000 C 
ATOM     14  C   UNL     1       5.346   4.245  18.891  0.00  0.00    +0.000 C 
ATOM     15  C   UNL     1       4.664   5.534  18.552  0.00  0.00    +0.000 C 
ATOM     16  O   UNL     1       5.297   6.456  18.046  0.00  0.00    +0.000 OA
ATOM     17  C   UNL     1       3.198   5.652  18.853  0.00  0.00    +0.000 C 
ATOM     18  C   UNL     1       2.521   4.604  19.363  0.00  0.00    +0.000 C 
BRANCH  14  19
ATOM     19  O   UNL     1       6.705   4.148  18.648  0.00  0.00    +0.000 OA
ATOM     20  H   UNL     1       7.148   3.723  19.401  0.00  0.00    +0.000 HD
ENDBRANCH  14  19
BRANCH  18  21
ATOM     21  O   UNL     1       1.164   4.652  19.663  0.00  0.00    +0.000 OA
ATOM     22  H   UNL     1       0.832   5.559  19.532  0.00  0.00    +0.000 HD
ENDBRANCH  18  21
ENDBRANCH   1  17
BRANCH   5  23
ATOM     23  C   UNL     1       0.185  11.128  18.968  0.00  0.00    +0.000 C 
BRANCH  23  24
ATOM     24  C   UNL     1      -1.236  11.031  18.460  0.00  0.00    +0.000 A 
ATOM     25  C   UNL     1      -1.603  10.059  17.516  0.00  0.00    +0.000 A 
ATOM     26  C   UNL     1      -2.927   9.938  17.091  0.00  0.00    +0.000 A 
ATOM     27  C   UNL     1      -3.908  10.778  17.611  0.00  0.00    +0.000 A 
ATOM     28  C   UNL     1      -3.564  11.742  18.556  0.00  0.00    +0.000 A 
ATOM     29  C   UNL     1      -2.237  11.869  18.977  0.00  0.00    +0.000 A 
ENDBRANCH  23  24
ENDBRANCH   5  23
TORSDOF 5
ENDMDL
MODEL 3
REMARK VINA RESULT:      -7.8      3.591      8.162
REMARK  Name = 
REMARK  5 active torsions:
REMARK  status: ('A' for Active; 'I' for Inactive)
REMARK    1  A    between atoms: C_4  and  O_5
REMARK    2  A    between atoms: C_8  and  C_9
REMARK    3  A    between atoms: C_13  and  C_14
REMARK    4  A    between atoms: C_14  and  C_15
REMARK    5  A    between atoms: C_25  and  O_26
REMARK                            x       y       z     vdW  Elec       q    Type
REMARK                         _______ _______ _______ _____ _____    ______ ____
ROOT
ATOM      1  C   UNL     1       2.780   6.996  18.162  0.00  0.00    +0.000 A 
ATOM      2  C   UNL     1       2.769   7.968  17.188  0.00  0.00    +0.000 A 
ATOM      3  N   UNL     1       2.099   9.053  17.697  0.00  0.00    +0.000 N 
ATOM      4  C   UNL     1       1.642   8.791  18.974  0.00  0.00    +0.000 A 
ATOM      5  C   UNL     1       0.896   9.597  19.858  0.00  0.00    +0.000 A 
ATOM      6  C   UNL     1       0.596   9.022  21.111  0.00  0.00    +0.000 A 
ATOM      7  C   UNL     1       1.031   7.746  21.464  0.00  0.00    +0.000 A 
ATOM      8  C   UNL     1       1.780   6.981  20.571  0.00  0.00    +0.000 A 
ATOM      9  C   UNL     1       2.082   7.504  19.298  0.00  0.00    +0.000 A 
ATOM     10  H   UNL     1       1.951   9.926  17.208  0.00  0.00    +0.000 HD
ENDROOT
BRANCH   1  17
ATOM     11  O   UNL     1       2.534   2.214  17.582  0.00  0.00    +0.000 OA
ATOM     12  C   UNL     1       3.194   3.231  17.773  0.00  0.00    +0.000 C 
ATOM     13  C   UNL     1       4.639   3.107  18.003  0.00  0.00    +0.000 C 
ATOM     14  C   UNL     1       5.414   4.173  18.214  0.00  0.00    +0.000 C 
ATOM     15  C   UNL     1       4.829   5.551  18.223  0.00  0.00    +0.000 C 
ATOM     16  O   UNL     1       5.550   6.531  18.386  0.00  0.00    +0.000 OA
ATOM     17  C   UNL     1       3.346   5.685  18.030  0.00  0.00    +0.000 C 
ATOM     18  C   UNL     1       2.588   4.593  17.803  0.00  0.00    +0.000 C 
BRANCH  14  19
ATOM     19  O   UNL     1       6.776   4.047  18.429  0.00  0.00    +0.000 OA
ATOM     20  H   UNL     1       7.253   4.107  17.585  0.00  0.00    +0.000 HD
ENDBRANCH  14  19
BRANCH  18  21
ATOM     21  O   UNL     1       1.211   4.652  17.617  0.00  0.00    +0.000 OA
ATOM     22  H   UNL     1       0.905   3.837  17.180  0.00  0.00    +0.000 HD
ENDBRANCH  18  21
ENDBRANCH   1  17
BRANCH   5  23
ATOM     23  C   UNL     1       0.448  11.011  19.548  0.00  0.00    +0.000 C 
BRANCH  23  24
ATOM     24  C   UNL     1      -0.963  11.149  19.020  0.00  0.00    +0.000 A 
ATOM     25  C   UNL     1      -1.415  10.361  17.950  0.00  0.00    +0.000 A 
ATOM     26  C   UNL     1      -2.734  10.452  17.501  0.00  0.00    +0.000 A 
ATOM     27  C   UNL     1      -3.625  11.322  18.123  0.00  0.00    +0.000 A 
ATOM     28  C   UNL     1      -3.196  12.104  19.193  0.00  0.00    +0.000 A 
ATOM     29  C   UNL     1      -1.875  12.019  19.638  0.00  0.00    +0.000 A 
ENDBRANCH  23  24
ENDBRANCH   5  23
TORSDOF 5
ENDMDL
MODEL 4
REMARK VINA RESULT:      -7.8      2.359      3.701
REMARK  Name = 
REMARK  5 active torsions:
REMARK  status: ('A' for Active; 'I' for Inactive)
REMARK    1  A    between atoms: C_4  and  O_5
REMARK    2  A    between atoms: C_8  and  C_9
REMARK    3  A    between atoms: C_13  and  C_14
REMARK    4  A    between atoms: C_14  and  C_15
REMARK    5  A    between atoms: C_25  and  O_26
REMARK                            x       y       z     vdW  Elec       q    Type
REMARK                         _______ _______ _______ _____ _____    ______ ____
ROOT
ATOM      1  C   UNL     1       1.275   9.260  19.073  0.00  0.00    +0.000 A 
ATOM      2  C   UNL     1       2.028   9.497  17.946  0.00  0.00    +0.000 A 
ATOM      3  N   UNL     1       2.761   8.364  17.695  0.00  0.00    +0.000 N 
ATOM      4  C   UNL     1       2.525   7.405  18.660  0.00  0.00    +0.000 A 
ATOM      5  C   UNL     1       3.070   6.113  18.814  0.00  0.00    +0.000 A 
ATOM      6  C   UNL     1       2.602   5.376  19.923  0.00  0.00    +0.000 A 
ATOM      7  C   UNL     1       1.642   5.881  20.798  0.00  0.00    +0.000 A 
ATOM      8  C   UNL     1       1.113   7.158  20.608  0.00  0.00    +0.000 A 
ATOM      9  C   UNL     1       1.570   7.941  19.529  0.00  0.00    +0.000 A 
ATOM     10  H   UNL     1       3.395   8.243  16.916  0.00  0.00    +0.000 HD
ENDROOT
BRANCH   1  17
ATOM     11  O   UNL     1      -0.239  11.969  22.765  0.00  0.00    +0.000 OA
ATOM     12  C   UNL     1      -0.388  11.548  21.623  0.00  0.00    +0.000 C 
ATOM     13  C   UNL     1      -1.599  11.921  20.880  0.00  0.00    +0.000 C 
ATOM     14  C   UNL     1      -1.820  11.499  19.633  0.00  0.00    +0.000 C 
ATOM     15  C   UNL     1      -0.828  10.620  18.938  0.00  0.00    +0.000 C 
ATOM     16  O   UNL     1      -1.021  10.261  17.781  0.00  0.00    +0.000 OA
ATOM     17  C   UNL     1       0.393  10.199  19.704  0.00  0.00    +0.000 C 
ATOM     18  C   UNL     1       0.601  10.652  20.957  0.00  0.00    +0.000 C 
BRANCH  14  19
ATOM     19  O   UNL     1      -2.965  11.857  18.941  0.00  0.00    +0.000 OA
ATOM     20  H   UNL     1      -3.580  11.106  18.905  0.00  0.00    +0.000 HD
ENDBRANCH  14  19
BRANCH  18  21
ATOM     21  O   UNL     1       1.711  10.298  21.716  0.00  0.00    +0.000 OA
ATOM     22  H   UNL     1       2.174   9.554  21.290  0.00  0.00    +0.000 HD
ENDBRANCH  18  21
ENDBRANCH   1  17
BRANCH   5  23
ATOM     23  C   UNL     1       4.071   5.493  17.861  0.00  0.00    +0.000 C 
BRANCH  23  24
ATOM     24  C   UNL     1       5.510   5.917  18.057  0.00  0.00    +0.000 A 
ATOM     25  C   UNL     1       6.088   6.912  17.253  0.00  0.00    +0.000 A 
ATOM     26  C   UNL     1       7.399   7.338  17.474  0.00  0.00    +0.000 A 
ATOM     27  C   UNL     1       8.148   6.787  18.509  0.00  0.00    +0.000 A 
ATOM     28  C   UNL     1       7.587   5.806  19.324  0.00  0.00    +0.000 A 
ATOM     29  C   UNL     1       6.278   5.373  19.100  0.00  0.00    +0.000 A 
ENDBRANCH  23  24
ENDBRANCH   5  23
TORSDOF 5
ENDMDL
MODEL 5
REMARK VINA RESULT:      -7.8      3.565      7.795
REMARK  Name = 
REMARK  5 active torsions:
REMARK  status: ('A' for Active; 'I' for Inactive)
REMARK    1  A    between atoms: C_4  and  O_5
REMARK    2  A    between atoms: C_8  and  C_9
REMARK    3  A    between atoms: C_13  and  C_14
REMARK    4  A    between atoms: C_14  and  C_15
REMARK    5  A    between atoms: C_25  and  O_26
REMARK                            x       y       z     vdW  Elec       q    Type
REMARK                         _______ _______ _______ _____ _____    ______ ____
ROOT
ATOM      1  C   UNL     1       2.690   7.031  18.655  0.00  0.00    +0.000 A 
ATOM      2  C   UNL     1       2.584   7.659  17.435  0.00  0.00    +0.000 A 
ATOM      3  N   UNL     1       1.847   8.802  17.623  0.00  0.00    +0.000 N 
ATOM      4  C   UNL     1       1.439   8.910  18.938  0.00  0.00    +0.000 A 
ATOM      5  C   UNL     1       0.654   9.896  19.571  0.00  0.00    +0.000 A 
ATOM      6  C   UNL     1       0.426   9.709  20.951  0.00  0.00    +0.000 A 
ATOM      7  C   UNL     1       0.964   8.631  21.652  0.00  0.00    +0.000 A 
ATOM      8  C   UNL     1       1.749   7.681  20.998  0.00  0.00    +0.000 A 
ATOM      9  C   UNL     1       1.982   7.813  19.614  0.00  0.00    +0.000 A 
ATOM     10  H   UNL     1       1.622   9.474  16.902  0.00  0.00    +0.000 HD
ENDROOT
BRANCH   1  17
ATOM     11  O   UNL     1       6.523   4.106  18.742  0.00  0.00    +0.000 OA
ATOM     12  C   UNL     1       5.320   4.288  18.895  0.00  0.00    +0.000 C 
ATOM     13  C   UNL     1       4.465   3.142  19.230  0.00  0.00    +0.000 C 
ATOM     14  C   UNL     1       3.149   3.273  19.413  0.00  0.00    +0.000 C 
ATOM     15  C   UNL     1       2.490   4.611  19.281  0.00  0.00    +0.000 C 
ATOM     16  O   UNL     1       1.285   4.732  19.480  0.00  0.00    +0.000 OA
ATOM     17  C   UNL     1       3.349   5.781  18.898  0.00  0.00    +0.000 C 
ATOM     18  C   UNL     1       4.679   5.625  18.735  0.00  0.00    +0.000 C 
BRANCH  14  19
ATOM     19  O   UNL     1       2.350   2.187  19.729  0.00  0.00    +0.000 OA
ATOM     20  H   UNL     1       1.453   2.321  19.382  0.00  0.00    +0.000 HD
ENDBRANCH  14  19
BRANCH  18  21
ATOM     21  O   UNL     1       5.526   6.669  18.381  0.00  0.00    +0.000 OA
ATOM     22  H   UNL     1       6.185   6.351  17.737  0.00  0.00    +0.000 HD
ENDBRANCH  18  21
ENDBRANCH   1  17
BRANCH   5  23
ATOM     23  C   UNL     1       0.095  11.118  18.871  0.00  0.00    +0.000 C 
BRANCH  23  24
ATOM     24  C   UNL     1      -1.316  10.979  18.343  0.00  0.00    +0.000 A 
ATOM     25  C   UNL     1      -1.643   9.990  17.402  0.00  0.00    +0.000 A 
ATOM     26  C   UNL     1      -2.957   9.831  16.958  0.00  0.00    +0.000 A 
ATOM     27  C   UNL     1      -3.967  10.648  17.458  0.00  0.00    +0.000 A 
ATOM     28  C   UNL     1      -3.663  11.627  18.401  0.00  0.00    +0.000 A 
ATOM     29  C   UNL     1      -2.347  11.793  18.840  0.00  0.00    +0.000 A 
ENDBRANCH  23  24
ENDBRANCH   5  23
TORSDOF 5
ENDMDL
MODEL 6
REMARK VINA RESULT:      -7.8      0.258      2.112
REMARK  Name = 
REMARK  5 active torsions:
REMARK  status: ('A' for Active; 'I' for Inactive)
REMARK    1  A    between atoms: C_4  and  O_5
REMARK    2  A    between atoms: C_8  and  C_9
REMARK    3  A    between atoms: C_13  and  C_14
REMARK    4  A    between atoms: C_14  and  C_15
REMARK    5  A    between atoms: C_25  and  O_26
REMARK                            x       y       z     vdW  Elec       q    Type
REMARK                         _______ _______ _______ _____ _____    ______ ____
ROOT
ATOM      1  C   UNL     1       0.669   9.562  20.305  0.00  0.00    +0.000 A 
ATOM      2  C   UNL     1       0.628   8.770  21.430  0.00  0.00    +0.000 A 
ATOM      3  N   UNL     1       1.430   7.681  21.196  0.00  0.00    +0.000 N 
ATOM      4  C   UNL     1       1.965   7.732  19.924  0.00  0.00    +0.000 A 
ATOM      5  C   UNL     1       2.817   6.827  19.257  0.00  0.00    +0.000 A 
ATOM      6  C   UNL     1       3.190   7.187  17.944  0.00  0.00    +0.000 A 
ATOM      7  C   UNL     1       2.766   8.375  17.352  0.00  0.00    +0.000 A 
ATOM      8  C   UNL     1       1.936   9.256  18.047  0.00  0.00    +0.000 A 
ATOM      9  C   UNL     1       1.517   8.925  19.351  0.00  0.00    +0.000 A 
ATOM     10  H   UNL     1       1.605   6.936  21.857  0.00  0.00    +0.000 HD
ENDROOT
BRANCH   1  17
ATOM     11  O   UNL     1      -2.888  12.229  18.435  0.00  0.00    +0.000 OA
ATOM     12  C   UNL     1      -1.868  12.138  19.110  0.00  0.00    +0.000 C 
ATOM     13  C   UNL     1      -1.272  13.360  19.666  0.00  0.00    +0.000 C 
ATOM     14  C   UNL     1      -0.165  13.330  20.411  0.00  0.00    +0.000 C 
ATOM     15  C   UNL     1       0.517  12.032  20.710  0.00  0.00    +0.000 C 
ATOM     16  O   UNL     1       1.517  12.006  21.422  0.00  0.00    +0.000 OA
ATOM     17  C   UNL     1      -0.061  10.781  20.113  0.00  0.00    +0.000 C 
ATOM     18  C   UNL     1      -1.189  10.837  19.377  0.00  0.00    +0.000 C 
BRANCH  14  19
ATOM     19  O   UNL     1       0.390  14.488  20.930  0.00  0.00    +0.000 OA
ATOM     20  H   UNL     1      -0.187  14.850  21.623  0.00  0.00    +0.000 HD
ENDBRANCH  14  19
BRANCH  18  21
ATOM     21  O   UNL     1      -1.772   9.715  18.798  0.00  0.00    +0.000 OA
ATOM     22  H   UNL     1      -2.408   9.994  18.114  0.00  0.00    +0.000 HD
ENDBRANCH  18  21
ENDBRANCH   1  17
BRANCH   5  23
ATOM     23  C   UNL     1       3.354   5.551  19.873  0.00  0.00    +0.000 C 
BRANCH  23  24
ATOM     24  C   UNL     1       2.607   4.286  19.512  0.00  0.00    +0.000 A 
ATOM     25  C   UNL     1       1.350   4.004  20.069  0.00  0.00    +0.000 A 
ATOM     26  C   UNL     1       0.640   2.863  19.692  0.00  0.00    +0.000 A 
ATOM     27  C   UNL     1       1.169   1.992  18.743  0.00  0.00    +0.000 A 
ATOM     28  C   UNL     1       2.411   2.262  18.173  0.00  0.00    +0.000 A 
ATOM     29  C   UNL     1       3.126   3.400  18.555  0.00  0.00    +0.000 A 
ENDBRANCH  23  24
ENDBRANCH   5  23
TORSDOF 5
ENDMDL
MODEL 7
REMARK VINA RESULT:      -7.6      1.891      2.662
REMARK  Name = 
REMARK  5 active torsions:
REMARK  status: ('A' for Active; 'I' for Inactive)
REMARK    1  A    between atoms: C_4  and  O_5
REMARK    2  A    between atoms: C_8  and  C_9
REMARK    3  A    between atoms: C_13  and  C_14
REMARK    4  A    between atoms: C_14  and  C_15
REMARK    5  A    between atoms: C_25  and  O_26
REMARK                            x       y       z     vdW  Elec       q    Type
REMARK                         _______ _______ _______ _____ _____    ______ ____
ROOT
ATOM      1  C   UNL     1       0.689  10.108  21.551  0.00  0.00    +0.000 A 
ATOM      2  C   UNL     1       1.293   9.194  22.384  0.00  0.00    +0.000 A 
ATOM      3  N   UNL     1       1.901   8.252  21.591  0.00  0.00    +0.000 N 
ATOM      4  C   UNL     1       1.674   8.518  20.255  0.00  0.00    +0.000 A 
ATOM      5  C   UNL     1       2.082   7.814  19.103  0.00  0.00    +0.000 A 
ATOM      6  C   UNL     1       1.681   8.368  17.869  0.00  0.00    +0.000 A 
ATOM      7  C   UNL     1       0.949   9.551  17.790  0.00  0.00    +0.000 A 
ATOM      8  C   UNL     1       0.574  10.230  18.949  0.00  0.00    +0.000 A 
ATOM      9  C   UNL     1       0.930   9.701  20.205  0.00  0.00    +0.000 A 
ATOM     10  H   UNL     1       2.438   7.466  21.931  0.00  0.00    +0.000 HD
ENDROOT
BRANCH   1  17
ATOM     11  O   UNL     1      -3.034  12.205  23.787  0.00  0.00    +0.000 OA
ATOM     12  C   UNL     1      -2.028  12.287  23.089  0.00  0.00    +0.000 C 
ATOM     13  C   UNL     1      -1.649  13.595  22.539  0.00  0.00    +0.000 C 
ATOM     14  C   UNL     1      -0.566  13.752  21.775  0.00  0.00    +0.000 C 
ATOM     15  C   UNL     1       0.313  12.585  21.448  0.00  0.00    +0.000 C 
ATOM     16  O   UNL     1       1.324  12.740  20.771  0.00  0.00    +0.000 OA
ATOM     17  C   UNL     1      -0.090  11.236  21.971  0.00  0.00    +0.000 C 
ATOM     18  C   UNL     1      -1.180  11.107  22.754  0.00  0.00    +0.000 C 
BRANCH  14  19
ATOM     19  O   UNL     1      -0.216  14.989  21.261  0.00  0.00    +0.000 OA
ATOM     20  H   UNL     1       0.599  15.307  21.684  0.00  0.00    +0.000 HD
ENDBRANCH  14  19
BRANCH  18  21
ATOM     21  O   UNL     1      -1.603   9.886  23.269  0.00  0.00    +0.000 OA
ATOM     22  H   UNL     1      -2.535   9.952  23.542  0.00  0.00    +0.000 HD
ENDBRANCH  18  21
ENDBRANCH   1  17
BRANCH   5  23
ATOM     23  C   UNL     1       2.928   6.557  19.130  0.00  0.00    +0.000 C 
BRANCH  23  24
ATOM     24  C   UNL     1       2.163   5.258  19.255  0.00  0.00    +0.000 A 
ATOM     25  C   UNL     1       1.949   4.433  18.140  0.00  0.00    +0.000 A 
ATOM     26  C   UNL     1       1.290   3.210  18.270  0.00  0.00    +0.000 A 
ATOM     27  C   UNL     1       0.847   2.784  19.519  0.00  0.00    +0.000 A 
ATOM     28  C   UNL     1       1.060   3.585  20.639  0.00  0.00    +0.000 A 
ATOM     29  C   UNL     1       1.713   4.813  20.509  0.00  0.00    +0.000 A 
ENDBRANCH  23  24
ENDBRANCH   5  23
TORSDOF 5
ENDMDL
MODEL 8
REMARK VINA RESULT:      -7.6      2.423      4.230
REMARK  Name = 
REMARK  5 active torsions:
REMARK  status: ('A' for Active; 'I' for Inactive)
REMARK    1  A    between atoms: C_4  and  O_5
REMARK    2  A    between atoms: C_8  and  C_9
REMARK    3  A    between atoms: C_13  and  C_14
REMARK    4  A    between atoms: C_14  and  C_15
REMARK    5  A    between atoms: C_25  and  O_26
REMARK                            x       y       z     vdW  Elec       q    Type
REMARK                         _______ _______ _______ _____ _____    ______ ____
ROOT
ATOM      1  C   UNL     1       1.276   9.098  18.942  0.00  0.00    +0.000 A 
ATOM      2  C   UNL     1       2.057   9.359  17.840  0.00  0.00    +0.000 A 
ATOM      3  N   UNL     1       2.844   8.256  17.622  0.00  0.00    +0.000 N 
ATOM      4  C   UNL     1       2.614   7.293  18.586  0.00  0.00    +0.000 A 
ATOM      5  C   UNL     1       3.205   6.025  18.767  0.00  0.00    +0.000 A 
ATOM      6  C   UNL     1       2.729   5.277  19.865  0.00  0.00    +0.000 A 
ATOM      7  C   UNL     1       1.720   5.747  20.703  0.00  0.00    +0.000 A 
ATOM      8  C   UNL     1       1.147   7.000  20.486  0.00  0.00    +0.000 A 
ATOM      9  C   UNL     1       1.608   7.795  19.417  0.00  0.00    +0.000 A 
ATOM     10  H   UNL     1       3.508   8.155  16.866  0.00  0.00    +0.000 HD
ENDROOT
BRANCH   1  17
ATOM     11  O   UNL     1      -2.584  11.990  18.873  0.00  0.00    +0.000 OA
ATOM     12  C   UNL     1      -1.621  11.513  19.466  0.00  0.00    +0.000 C 
ATOM     13  C   UNL     1      -1.324  11.977  20.828  0.00  0.00    +0.000 C 
ATOM     14  C   UNL     1      -0.294  11.498  21.528  0.00  0.00    +0.000 C 
ATOM     15  C   UNL     1       0.607  10.455  20.942  0.00  0.00    +0.000 C 
ATOM     16  O   UNL     1       1.533   9.994  21.601  0.00  0.00    +0.000 OA
ATOM     17  C   UNL     1       0.336  10.004  19.536  0.00  0.00    +0.000 C 
ATOM     18  C   UNL     1      -0.721  10.493  18.856  0.00  0.00    +0.000 C 
BRANCH  14  19
ATOM     19  O   UNL     1      -0.022  11.941  22.811  0.00  0.00    +0.000 OA
ATOM     20  H   UNL     1      -0.693  12.586  23.089  0.00  0.00    +0.000 HD
ENDBRANCH  14  19
BRANCH  18  21
ATOM     21  O   UNL     1      -1.023  10.115  17.552  0.00  0.00    +0.000 OA
ATOM     22  H   UNL     1      -1.002  10.898  16.972  0.00  0.00    +0.000 HD
ENDBRANCH  18  21
ENDBRANCH   1  17
BRANCH   5  23
ATOM     23  C   UNL     1       4.262   5.441  17.853  0.00  0.00    +0.000 C 
BRANCH  23  24
ATOM     24  C   UNL     1       5.672   5.937  18.084  0.00  0.00    +0.000 A 
ATOM     25  C   UNL     1       6.204   6.988  17.321  0.00  0.00    +0.000 A 
ATOM     26  C   UNL     1       7.486   7.479  17.574  0.00  0.00    +0.000 A 
ATOM     27  C   UNL     1       8.252   6.937  18.602  0.00  0.00    +0.000 A 
ATOM     28  C   UNL     1       7.736   5.900  19.377  0.00  0.00    +0.000 A 
ATOM     29  C   UNL     1       6.456   5.403  19.120  0.00  0.00    +0.000 A 
ENDBRANCH  23  24
ENDBRANCH   5  23
TORSDOF 5
ENDMDL
MODEL 9
REMARK VINA RESULT:      -7.6      3.539      8.005
REMARK  Name = 
REMARK  5 active torsions:
REMARK  status: ('A' for Active; 'I' for Inactive)
REMARK    1  A    between atoms: C_4  and  O_5
REMARK    2  A    between atoms: C_8  and  C_9
REMARK    3  A    between atoms: C_13  and  C_14
REMARK    4  A    between atoms: C_14  and  C_15
REMARK    5  A    between atoms: C_25  and  O_26
REMARK                            x       y       z     vdW  Elec       q    Type
REMARK                         _______ _______ _______ _____ _____    ______ ____
ROOT
ATOM      1  C   UNL     1       2.584   6.653  18.490  0.00  0.00    +0.000 A 
ATOM      2  C   UNL     1       2.678   7.443  17.367  0.00  0.00    +0.000 A 
ATOM      3  N   UNL     1       2.107   8.655  17.668  0.00  0.00    +0.000 N 
ATOM      4  C   UNL     1       1.612   8.655  18.957  0.00  0.00    +0.000 A 
ATOM      5  C   UNL     1       0.933   9.663  19.673  0.00  0.00    +0.000 A 
ATOM      6  C   UNL     1       0.563   9.337  20.995  0.00  0.00    +0.000 A 
ATOM      7  C   UNL     1       0.871   8.105  21.569  0.00  0.00    +0.000 A 
ATOM      8  C   UNL     1       1.557   7.135  20.837  0.00  0.00    +0.000 A 
ATOM      9  C   UNL     1       1.923   7.407  19.504  0.00  0.00    +0.000 A 
ATOM     10  H   UNL     1       2.048   9.443  17.037  0.00  0.00    +0.000 HD
ENDROOT
BRANCH   1  17
ATOM     11  O   UNL     1       5.723   3.203  19.715  0.00  0.00    +0.000 OA
ATOM     12  C   UNL     1       4.667   3.544  19.193  0.00  0.00    +0.000 C 
ATOM     13  C   UNL     1       3.846   2.528  18.521  0.00  0.00    +0.000 C 
ATOM     14  C   UNL     1       2.686   2.833  17.936  0.00  0.00    +0.000 C 
ATOM     15  C   UNL     1       2.173   4.239  17.945  0.00  0.00    +0.000 C 
ATOM     16  O   UNL     1       1.091   4.509  17.434  0.00  0.00    +0.000 OA
ATOM     17  C   UNL     1       3.025   5.292  18.594  0.00  0.00    +0.000 C 
ATOM     18  C   UNL     1       4.186   4.955  19.192  0.00  0.00    +0.000 C 
BRANCH  14  19
ATOM     19  O   UNL     1       1.918   1.869  17.305  0.00  0.00    +0.000 OA
ATOM     20  H   UNL     1       1.220   2.291  16.779  0.00  0.00    +0.000 HD
ENDBRANCH  14  19
BRANCH  18  21
ATOM     21  O   UNL     1       5.018   5.884  19.808  0.00  0.00    +0.000 OA
ATOM     22  H   UNL     1       4.478   6.578  20.228  0.00  0.00    +0.000 HD
ENDBRANCH  18  21
ENDBRANCH   1  17
BRANCH   5  23
ATOM     23  C   UNL     1       0.625  11.040  19.119  0.00  0.00    +0.000 C 
BRANCH  23  24
ATOM     24  C   UNL     1      -0.841  11.348  18.913  0.00  0.00    +0.000 A 
ATOM     25  C   UNL     1      -1.570  10.740  17.878  0.00  0.00    +0.000 A 
ATOM     26  C   UNL     1      -2.936  10.986  17.724  0.00  0.00    +0.000 A 
ATOM     27  C   UNL     1      -3.598  11.831  18.610  0.00  0.00    +0.000 A 
ATOM     28  C   UNL     1      -2.893  12.434  19.649  0.00  0.00    +0.000 A 
ATOM     29  C   UNL     1      -1.524  12.195  19.800  0.00  0.00    +0.000 A 
ENDBRANCH  23  24
ENDBRANCH   5  23
TORSDOF 5
ENDMDL
