MODEL 1
REMARK VINA RESULT:      -7.5      0.000      0.000
REMARK  Name = 
REMARK  1 active torsions:
REMARK  status: ('A' for Active; 'I' for Inactive)
REMARK    1  A    between atoms: C_8  and  C_9
REMARK                            x       y       z     vdW  Elec       q    Type
REMARK                         _______ _______ _______ _____ _____    ______ ____
ROOT
ATOM      1  O   UNL     1       0.514   2.434  19.025  0.00  0.00    +0.000 OA
ATOM      2  S   UNL     1       1.944   2.673  19.085  0.00  0.00    +0.000 S 
ATOM      3  O   UNL     1       2.786   1.925  19.999  0.00  0.00    +0.000 OA
ATOM      4  C   UNL     1       2.580   2.527  17.445  0.00  0.00    +0.000 C 
ATOM      5  N   UNL     1       3.778   3.295  17.263  0.00  0.00    +0.000 N 
ATOM      6  N   UNL     1       4.699   2.911  16.372  0.00  0.00    +0.000 NA
ATOM      7  N   UNL     1       5.690   3.784  16.444  0.00  0.00    +0.000 NA
ATOM      8  C   UNL     1       5.364   4.740  17.381  0.00  0.00    +0.000 A 
ATOM      9  C   UNL     1       4.088   4.484  17.880  0.00  0.00    +0.000 A 
ATOM     10  C   UNL     1       3.159   5.126  18.816  0.00  0.00    +0.000 A 
ATOM     11  C   UNL     1       3.210   6.500  19.080  0.00  0.00    +0.000 A 
ATOM     12  C   UNL     1       2.369   7.089  20.032  0.00  0.00    +0.000 A 
ATOM     13  C   UNL     1       1.420   6.323  20.702  0.00  0.00    +0.000 A 
ATOM     14  C   UNL     1       1.301   4.968  20.412  0.00  0.00    +0.000 A 
ATOM     15  C   UNL     1       2.168   4.385  19.479  0.00  0.00    +0.000 A 
ENDROOT
BRANCH   8  16
ATOM     16  C   UNL     1       6.275   5.828  17.696  0.00  0.00    +0.000 A 
ATOM     17  C   UNL     1       7.247   5.643  18.690  0.00  0.00    +0.000 A 
ATOM     18  C   UNL     1       8.176   6.647  18.975  0.00  0.00    +0.000 A 
ATOM     19  C   UNL     1       8.146   7.845  18.266  0.00  0.00    +0.000 A 
ATOM     20  C   UNL     1       7.160   8.059  17.306  0.00  0.00    +0.000 A 
ATOM     21  C   UNL     1       6.211   7.067  17.045  0.00  0.00    +0.000 A 
ENDBRANCH   8  16
TORSDOF 1
ENDMDL
MODEL 2
REMARK VINA RESULT:      -7.3      2.546      4.840
REMARK  Name = 
REMARK  1 active torsions:
REMARK  status: ('A' for Active; 'I' for Inactive)
REMARK    1  A    between atoms: C_8  and  C_9
REMARK                            x       y       z     vdW  Elec       q    Type
REMARK                         _______ _______ _______ _____ _____    ______ ____
ROOT
ATOM      1  O   UNL     1       4.370   1.573  17.861  0.00  0.00    +0.000 OA
ATOM      2  S   UNL     1       3.331   2.575  18.003  0.00  0.00    +0.000 S 
ATOM      3  O   UNL     1       2.023   2.379  17.406  0.00  0.00    +0.000 OA
ATOM      4  C   UNL     1       3.146   2.916  19.724  0.00  0.00    +0.000 C 
ATOM      5  N   UNL     1       2.637   4.237  19.960  0.00  0.00    +0.000 N 
ATOM      6  N   UNL     1       1.909   4.497  21.052  0.00  0.00    +0.000 NA
ATOM      7  N   UNL     1       1.560   5.771  20.986  0.00  0.00    +0.000 NA
ATOM      8  C   UNL     1       2.103   6.314  19.842  0.00  0.00    +0.000 A 
ATOM      9  C   UNL     1       2.871   5.352  19.190  0.00  0.00    +0.000 A 
ATOM     10  C   UNL     1       3.732   5.296  18.004  0.00  0.00    +0.000 A 
ATOM     11  C   UNL     1       4.361   6.439  17.496  0.00  0.00    +0.000 A 
ATOM     12  C   UNL     1       5.120   6.389  16.319  0.00  0.00    +0.000 A 
ATOM     13  C   UNL     1       5.308   5.181  15.655  0.00  0.00    +0.000 A 
ATOM     14  C   UNL     1       4.749   4.017  16.173  0.00  0.00    +0.000 A 
ATOM     15  C   UNL     1       3.969   4.085  17.334  0.00  0.00    +0.000 A 
ENDROOT
BRANCH   8  16
ATOM     16  C   UNL     1       1.873   7.705  19.487  0.00  0.00    +0.000 A 
ATOM     17  C   UNL     1       2.152   8.134  18.181  0.00  0.00    +0.000 A 
ATOM     18  C   UNL     1       1.886   9.449  17.791  0.00  0.00    +0.000 A 
ATOM     19  C   UNL     1       1.334  10.348  18.700  0.00  0.00    +0.000 A 
ATOM     20  C   UNL     1       1.091   9.947  20.011  0.00  0.00    +0.000 A 
ATOM     21  C   UNL     1       1.389   8.641  20.410  0.00  0.00    +0.000 A 
ENDBRANCH   8  16
TORSDOF 1
ENDMDL
MODEL 3
REMARK VINA RESULT:      -7.2      2.560      4.806
REMARK  Name = 
REMARK  1 active torsions:
REMARK  status: ('A' for Active; 'I' for Inactive)
REMARK    1  A    between atoms: C_8  and  C_9
REMARK                            x       y       z     vdW  Elec       q    Type
REMARK                         _______ _______ _______ _____ _____    ______ ____
ROOT
ATOM      1  O   UNL     1       4.406   1.652  17.868  0.00  0.00    +0.000 OA
ATOM      2  S   UNL     1       3.356   2.644  17.997  0.00  0.00    +0.000 S 
ATOM      3  O   UNL     1       2.051   2.427  17.402  0.00  0.00    +0.000 OA
ATOM      4  C   UNL     1       3.168   3.005  19.713  0.00  0.00    +0.000 C 
ATOM      5  N   UNL     1       2.644   4.323  19.932  0.00  0.00    +0.000 N 
ATOM      6  N   UNL     1       1.914   4.589  21.021  0.00  0.00    +0.000 NA
ATOM      7  N   UNL     1       1.551   5.858  20.938  0.00  0.00    +0.000 NA
ATOM      8  C   UNL     1       2.088   6.393  19.788  0.00  0.00    +0.000 A 
ATOM      9  C   UNL     1       2.866   5.431  19.149  0.00  0.00    +0.000 A 
ATOM     10  C   UNL     1       3.729   5.369  17.963  0.00  0.00    +0.000 A 
ATOM     11  C   UNL     1       4.346   6.512  17.441  0.00  0.00    +0.000 A 
ATOM     12  C   UNL     1       5.105   6.455  16.265  0.00  0.00    +0.000 A 
ATOM     13  C   UNL     1       5.306   5.241  15.616  0.00  0.00    +0.000 A 
ATOM     14  C   UNL     1       4.760   4.077  16.149  0.00  0.00    +0.000 A 
ATOM     15  C   UNL     1       3.979   4.153  17.309  0.00  0.00    +0.000 A 
ENDROOT
BRANCH   8  16
ATOM     16  C   UNL     1       1.844   7.777  19.415  0.00  0.00    +0.000 A 
ATOM     17  C   UNL     1       1.331   8.664  20.373  0.00  0.00    +0.000 A 
ATOM     18  C   UNL     1       1.141  10.014  20.064  0.00  0.00    +0.000 A 
ATOM     19  C   UNL     1       1.466  10.492  18.797  0.00  0.00    +0.000 A 
ATOM     20  C   UNL     1       1.935   9.612  17.824  0.00  0.00    +0.000 A 
ATOM     21  C   UNL     1       2.093   8.256  18.123  0.00  0.00    +0.000 A 
ENDBRANCH   8  16
TORSDOF 1
ENDMDL
MODEL 4
REMARK VINA RESULT:      -7.2      0.199      1.070
REMARK  Name = 
REMARK  1 active torsions:
REMARK  status: ('A' for Active; 'I' for Inactive)
REMARK    1  A    between atoms: C_8  and  C_9
REMARK                            x       y       z     vdW  Elec       q    Type
REMARK                         _______ _______ _______ _____ _____    ______ ____
ROOT
ATOM      1  O   UNL     1       0.540   2.536  18.760  0.00  0.00    +0.000 OA
ATOM      2  S   UNL     1       1.977   2.720  18.837  0.00  0.00    +0.000 S 
ATOM      3  O   UNL     1       2.787   1.893  19.712  0.00  0.00    +0.000 OA
ATOM      4  C   UNL     1       2.616   2.640  17.194  0.00  0.00    +0.000 C 
ATOM      5  N   UNL     1       3.842   3.373  17.058  0.00  0.00    +0.000 N 
ATOM      6  N   UNL     1       4.753   3.005  16.151  0.00  0.00    +0.000 NA
ATOM      7  N   UNL     1       5.775   3.836  16.274  0.00  0.00    +0.000 NA
ATOM      8  C   UNL     1       5.479   4.751  17.260  0.00  0.00    +0.000 A 
ATOM      9  C   UNL     1       4.192   4.515  17.740  0.00  0.00    +0.000 A 
ATOM     10  C   UNL     1       3.281   5.138  18.707  0.00  0.00    +0.000 A 
ATOM     11  C   UNL     1       3.381   6.493  19.047  0.00  0.00    +0.000 A 
ATOM     12  C   UNL     1       2.556   7.059  20.027  0.00  0.00    +0.000 A 
ATOM     13  C   UNL     1       1.577   6.293  20.650  0.00  0.00    +0.000 A 
ATOM     14  C   UNL     1       1.411   4.960  20.286  0.00  0.00    +0.000 A 
ATOM     15  C   UNL     1       2.261   4.398  19.325  0.00  0.00    +0.000 A 
ENDROOT
BRANCH   8  16
ATOM     16  C   UNL     1       6.427   5.786  17.637  0.00  0.00    +0.000 A 
ATOM     17  C   UNL     1       6.401   7.017  16.966  0.00  0.00    +0.000 A 
ATOM     18  C   UNL     1       7.258   8.054  17.343  0.00  0.00    +0.000 A 
ATOM     19  C   UNL     1       8.148   7.873  18.400  0.00  0.00    +0.000 A 
ATOM     20  C   UNL     1       8.213   6.641  19.047  0.00  0.00    +0.000 A 
ATOM     21  C   UNL     1       7.379   5.594  18.647  0.00  0.00    +0.000 A 
ENDBRANCH   8  16
TORSDOF 1
ENDMDL
MODEL 5
REMARK VINA RESULT:      -7.0      2.861      4.919
REMARK  Name = 
REMARK  1 active torsions:
REMARK  status: ('A' for Active; 'I' for Inactive)
REMARK    1  A    between atoms: C_8  and  C_9
REMARK                            x       y       z     vdW  Elec       q    Type
REMARK                         _______ _______ _______ _____ _____    ______ ____
ROOT
ATOM      1  O   UNL     1       4.614   2.359  17.652  0.00  0.00    +0.000 OA
ATOM      2  S   UNL     1       4.590   3.663  18.286  0.00  0.00    +0.000 S 
ATOM      3  O   UNL     1       5.687   4.100  19.129  0.00  0.00    +0.000 OA
ATOM      4  C   UNL     1       4.302   4.865  17.027  0.00  0.00    +0.000 C 
ATOM      5  N   UNL     1       3.676   6.048  17.545  0.00  0.00    +0.000 N 
ATOM      6  N   UNL     1       3.880   7.233  16.961  0.00  0.00    +0.000 NA
ATOM      7  N   UNL     1       3.208   8.129  17.665  0.00  0.00    +0.000 NA
ATOM      8  C   UNL     1       2.556   7.480  18.690  0.00  0.00    +0.000 A 
ATOM      9  C   UNL     1       2.787   6.110  18.593  0.00  0.00    +0.000 A 
ATOM     10  C   UNL     1       2.353   4.900  19.301  0.00  0.00    +0.000 A 
ATOM     11  C   UNL     1       1.147   4.854  20.011  0.00  0.00    +0.000 A 
ATOM     12  C   UNL     1       0.779   3.720  20.745  0.00  0.00    +0.000 A 
ATOM     13  C   UNL     1       1.586   2.587  20.741  0.00  0.00    +0.000 A 
ATOM     14  C   UNL     1       2.757   2.580  19.991  0.00  0.00    +0.000 A 
ATOM     15  C   UNL     1       3.129   3.730  19.284  0.00  0.00    +0.000 A 
ENDROOT
BRANCH   8  16
ATOM     16  C   UNL     1       1.746   8.212  19.650  0.00  0.00    +0.000 A 
ATOM     17  C   UNL     1       0.950   9.277  19.205  0.00  0.00    +0.000 A 
ATOM     18  C   UNL     1       0.114   9.962  20.091  0.00  0.00    +0.000 A 
ATOM     19  C   UNL     1       0.062   9.587  21.431  0.00  0.00    +0.000 A 
ATOM     20  C   UNL     1       0.879   8.559  21.895  0.00  0.00    +0.000 A 
ATOM     21  C   UNL     1       1.739   7.896  21.015  0.00  0.00    +0.000 A 
ENDBRANCH   8  16
TORSDOF 1
ENDMDL
MODEL 6
REMARK VINA RESULT:      -6.8      2.903      5.136
REMARK  Name = 
REMARK  1 active torsions:
REMARK  status: ('A' for Active; 'I' for Inactive)
REMARK    1  A    between atoms: C_8  and  C_9
REMARK                            x       y       z     vdW  Elec       q    Type
REMARK                         _______ _______ _______ _____ _____    ______ ____
ROOT
ATOM      1  O   UNL     1       5.029   3.025  17.859  0.00  0.00    +0.000 OA
ATOM      2  S   UNL     1       4.843   4.317  18.490  0.00  0.00    +0.000 S 
ATOM      3  O   UNL     1       5.890   4.904  19.306  0.00  0.00    +0.000 OA
ATOM      4  C   UNL     1       4.364   5.462  17.236  0.00  0.00    +0.000 C 
ATOM      5  N   UNL     1       3.595   6.551  17.767  0.00  0.00    +0.000 N 
ATOM      6  N   UNL     1       3.622   7.751  17.176  0.00  0.00    +0.000 NA
ATOM      7  N   UNL     1       2.851   8.551  17.894  0.00  0.00    +0.000 NA
ATOM      8  C   UNL     1       2.318   7.824  18.936  0.00  0.00    +0.000 A 
ATOM      9  C   UNL     1       2.731   6.497  18.836  0.00  0.00    +0.000 A 
ATOM     10  C   UNL     1       2.483   5.243  19.556  0.00  0.00    +0.000 A 
ATOM     11  C   UNL     1       1.312   5.038  20.296  0.00  0.00    +0.000 A 
ATOM     12  C   UNL     1       1.119   3.868  21.041  0.00  0.00    +0.000 A 
ATOM     13  C   UNL     1       2.073   2.856  21.020  0.00  0.00    +0.000 A 
ATOM     14  C   UNL     1       3.216   3.004  20.241  0.00  0.00    +0.000 A 
ATOM     15  C   UNL     1       3.410   4.190  19.523  0.00  0.00    +0.000 A 
ENDROOT
BRANCH   8  16
ATOM     16  C   UNL     1       1.439   8.444  19.914  0.00  0.00    +0.000 A 
ATOM     17  C   UNL     1       1.617   8.157  21.275  0.00  0.00    +0.000 A 
ATOM     18  C   UNL     1       0.829   8.781  22.245  0.00  0.00    +0.000 A 
ATOM     19  C   UNL     1      -0.143   9.703  21.865  0.00  0.00    +0.000 A 
ATOM     20  C   UNL     1      -0.359   9.966  20.514  0.00  0.00    +0.000 A 
ATOM     21  C   UNL     1       0.407   9.315  19.543  0.00  0.00    +0.000 A 
ENDBRANCH   8  16
TORSDOF 1
ENDMDL
MODEL 7
REMARK VINA RESULT:      -6.7      4.538      6.121
REMARK  Name = 
REMARK  1 active torsions:
REMARK  status: ('A' for Active; 'I' for Inactive)
REMARK    1  A    between atoms: C_8  and  C_9
REMARK                            x       y       z     vdW  Elec       q    Type
REMARK                         _______ _______ _______ _____ _____    ______ ____
ROOT
ATOM      1  O   UNL     1       1.103  11.817  18.734  0.00  0.00    +0.000 OA
ATOM      2  S   UNL     1       0.913  10.407  18.451  0.00  0.00    +0.000 S 
ATOM      3  O   UNL     1      -0.131   9.964  17.546  0.00  0.00    +0.000 OA
ATOM      4  C   UNL     1       2.465   9.753  17.923  0.00  0.00    +0.000 C 
ATOM      5  N   UNL     1       2.574   8.347  18.190  0.00  0.00    +0.000 N 
ATOM      6  N   UNL     1       3.337   7.569  17.415  0.00  0.00    +0.000 NA
ATOM      7  N   UNL     1       3.222   6.335  17.878  0.00  0.00    +0.000 NA
ATOM      8  C   UNL     1       2.391   6.356  18.975  0.00  0.00    +0.000 A 
ATOM      9  C   UNL     1       2.010   7.669  19.244  0.00  0.00    +0.000 A 
ATOM     10  C   UNL     1       1.219   8.364  20.266  0.00  0.00    +0.000 A 
ATOM     11  C   UNL     1       1.044   7.833  21.550  0.00  0.00    +0.000 A 
ATOM     12  C   UNL     1       0.226   8.467  22.493  0.00  0.00    +0.000 A 
ATOM     13  C   UNL     1      -0.393   9.675  22.188  0.00  0.00    +0.000 A 
ATOM     14  C   UNL     1      -0.184  10.260  20.944  0.00  0.00    +0.000 A 
ATOM     15  C   UNL     1       0.614   9.602  19.999  0.00  0.00    +0.000 A 
ENDROOT
BRANCH   8  16
ATOM     16  C   UNL     1       2.058   5.135  19.691  0.00  0.00    +0.000 A 
ATOM     17  C   UNL     1       2.601   4.917  20.965  0.00  0.00    +0.000 A 
ATOM     18  C   UNL     1       2.255   3.784  21.704  0.00  0.00    +0.000 A 
ATOM     19  C   UNL     1       1.357   2.857  21.179  0.00  0.00    +0.000 A 
ATOM     20  C   UNL     1       0.843   3.039  19.898  0.00  0.00    +0.000 A 
ATOM     21  C   UNL     1       1.216   4.157  19.146  0.00  0.00    +0.000 A 
ENDBRANCH   8  16
TORSDOF 1
ENDMDL
MODEL 8
REMARK VINA RESULT:      -6.7      3.055      5.569
REMARK  Name = 
REMARK  1 active torsions:
REMARK  status: ('A' for Active; 'I' for Inactive)
REMARK    1  A    between atoms: C_8  and  C_9
REMARK                            x       y       z     vdW  Elec       q    Type
REMARK                         _______ _______ _______ _____ _____    ______ ____
ROOT
ATOM      1  O   UNL     1       7.475   5.642  14.599  0.00  0.00    +0.000 OA
ATOM      2  S   UNL     1       6.197   5.674  15.283  0.00  0.00    +0.000 S 
ATOM      3  O   UNL     1       5.261   6.761  15.061  0.00  0.00    +0.000 OA
ATOM      4  C   UNL     1       5.390   4.133  14.984  0.00  0.00    +0.000 C 
ATOM      5  N   UNL     1       4.466   3.798  16.029  0.00  0.00    +0.000 N 
ATOM      6  N   UNL     1       3.391   3.047  15.767  0.00  0.00    +0.000 NA
ATOM      7  N   UNL     1       2.719   2.929  16.901  0.00  0.00    +0.000 NA
ATOM      8  C   UNL     1       3.407   3.600  17.888  0.00  0.00    +0.000 A 
ATOM      9  C   UNL     1       4.589   4.116  17.362  0.00  0.00    +0.000 A 
ATOM     10  C   UNL     1       5.754   4.849  17.869  0.00  0.00    +0.000 A 
ATOM     11  C   UNL     1       6.144   4.775  19.212  0.00  0.00    +0.000 A 
ATOM     12  C   UNL     1       7.211   5.537  19.702  0.00  0.00    +0.000 A 
ATOM     13  C   UNL     1       7.946   6.350  18.846  0.00  0.00    +0.000 A 
ATOM     14  C   UNL     1       7.624   6.393  17.493  0.00  0.00    +0.000 A 
ATOM     15  C   UNL     1       6.536   5.648  17.021  0.00  0.00    +0.000 A 
ENDROOT
BRANCH   8  16
ATOM     16  C   UNL     1       2.899   3.663  19.249  0.00  0.00    +0.000 A 
ATOM     17  C   UNL     1       2.104   4.752  19.634  0.00  0.00    +0.000 A 
ATOM     18  C   UNL     1       1.551   4.813  20.916  0.00  0.00    +0.000 A 
ATOM     19  C   UNL     1       1.784   3.784  21.825  0.00  0.00    +0.000 A 
ATOM     20  C   UNL     1       2.607   2.718  21.470  0.00  0.00    +0.000 A 
ATOM     21  C   UNL     1       3.187   2.674  20.199  0.00  0.00    +0.000 A 
ENDBRANCH   8  16
TORSDOF 1
ENDMDL
MODEL 9
REMARK VINA RESULT:      -6.7      4.663      6.280
REMARK  Name = 
REMARK  1 active torsions:
REMARK  status: ('A' for Active; 'I' for Inactive)
REMARK    1  A    between atoms: C_8  and  C_9
REMARK                            x       y       z     vdW  Elec       q    Type
REMARK                         _______ _______ _______ _____ _____    ______ ____
ROOT
ATOM      1  O   UNL     1       0.903  11.996  18.795  0.00  0.00    +0.000 OA
ATOM      2  S   UNL     1       0.738  10.581  18.526  0.00  0.00    +0.000 S 
ATOM      3  O   UNL     1      -0.314  10.108  17.646  0.00  0.00    +0.000 OA
ATOM      4  C   UNL     1       2.292   9.955  17.974  0.00  0.00    +0.000 C 
ATOM      5  N   UNL     1       2.437   8.554  18.249  0.00  0.00    +0.000 N 
ATOM      6  N   UNL     1       3.202   7.786  17.465  0.00  0.00    +0.000 NA
ATOM      7  N   UNL     1       3.122   6.554  17.939  0.00  0.00    +0.000 NA
ATOM      8  C   UNL     1       2.312   6.566  19.053  0.00  0.00    +0.000 A 
ATOM      9  C   UNL     1       1.908   7.872  19.319  0.00  0.00    +0.000 A 
ATOM     10  C   UNL     1       1.123   8.559  20.352  0.00  0.00    +0.000 A 
ATOM     11  C   UNL     1       0.985   8.035  21.642  0.00  0.00    +0.000 A 
ATOM     12  C   UNL     1       0.172   8.659  22.597  0.00  0.00    +0.000 A 
ATOM     13  C   UNL     1      -0.479   9.851  22.295  0.00  0.00    +0.000 A 
ATOM     14  C   UNL     1      -0.307  10.430  21.042  0.00  0.00    +0.000 A 
ATOM     15  C   UNL     1       0.486   9.781  20.087  0.00  0.00    +0.000 A 
ENDROOT
BRANCH   8  16
ATOM     16  C   UNL     1       2.019   5.344  19.784  0.00  0.00    +0.000 A 
ATOM     17  C   UNL     1       1.180   4.382  19.204  0.00  0.00    +0.000 A 
ATOM     18  C   UNL     1       0.926   3.172  19.855  0.00  0.00    +0.000 A 
ATOM     19  C   UNL     1       1.513   2.908  21.090  0.00  0.00    +0.000 A 
ATOM     20  C   UNL     1       2.315   3.872  21.696  0.00  0.00    +0.000 A 
ATOM     21  C   UNL     1       2.541   5.096  21.061  0.00  0.00    +0.000 A 
ENDBRANCH   8  16
TORSDOF 1
ENDMDL
