MODEL 1
REMARK VINA RESULT:      -8.2      0.000      0.000
REMARK  Name = 
REMARK  6 active torsions:
REMARK  status: ('A' for Active; 'I' for Inactive)
REMARK    1  A    between atoms: C_1  and  C_2
REMARK    2  A    between atoms: C_3  and  N_4
REMARK    3  A    between atoms: C_5  and  C_7
REMARK    4  A    between atoms: C_7  and  N_8
REMARK    5  A    between atoms: N_21  and  C_22
REMARK    6  A    between atoms: N_28  and  C_29
REMARK                            x       y       z     vdW  Elec       q    Type
REMARK                         _______ _______ _______ _____ _____    ______ ____
ROOT
ATOM      1  N   UNL     1       2.630   7.042  19.903  0.00  0.00    +0.000 N 
ATOM      2  C   UNL     1       2.173   5.774  20.245  0.00  0.00    +0.000 C 
ATOM      3  O   UNL     1       1.015   5.505  20.562  0.00  0.00    +0.000 OA
ATOM      4  H   UNL     1       3.638   7.184  19.855  0.00  0.00    +0.000 HD
ENDROOT
BRANCH   1   7
ATOM      5  C   UNL     1       1.641   8.902  17.442  0.00  0.00    +0.000 C 
ATOM      6  C   UNL     1       1.370   8.973  18.914  0.00  0.00    +0.000 A 
ATOM      7  C   UNL     1       1.896   8.212  19.893  0.00  0.00    +0.000 A 
ATOM      8  C   UNL     1       1.582   8.965  21.172  0.00  0.00    +0.000 A 
ATOM      9  O   UNL     1       1.937   8.579  22.279  0.00  0.00    +0.000 OA
ATOM     10  N   UNL     1       0.808  10.073  20.804  0.00  0.00    +0.000 N 
ATOM     11  N   UNL     1       0.575  10.018  19.414  0.00  0.00    +0.000 N 
ATOM     12  C   UNL     1       0.389  11.271  18.682  0.00  0.00    +0.000 C 
BRANCH  10  13
ATOM     13  C   UNL     1       0.056  10.903  21.666  0.00  0.00    +0.000 A 
ATOM     14  C   UNL     1       0.180  12.295  21.588  0.00  0.00    +0.000 A 
ATOM     15  C   UNL     1      -0.686  13.125  22.312  0.00  0.00    +0.000 A 
ATOM     16  C   UNL     1      -1.650  12.573  23.157  0.00  0.00    +0.000 A 
ATOM     17  C   UNL     1      -1.745  11.191  23.287  0.00  0.00    +0.000 A 
ATOM     18  C   UNL     1      -0.900  10.363  22.542  0.00  0.00    +0.000 A 
ENDBRANCH  10  13
ENDBRANCH   1   7
BRANCH   2  19
ATOM     19  C   UNL     1       3.229   4.659  20.209  0.00  0.00    +0.000 C 
BRANCH  19  20
ATOM     20  N   UNL     1       4.024   4.695  18.992  0.00  0.00    +0.000 N 
ATOM     21  C   UNL     1       3.577   4.319  17.754  0.00  0.00    +0.000 C 
ATOM     22  O   UNL     1       2.476   3.932  17.405  0.00  0.00    +0.000 OA
ATOM     23  C   UNL     1       4.739   4.391  16.856  0.00  0.00    +0.000 A 
ATOM     24  C   UNL     1       4.854   4.133  15.502  0.00  0.00    +0.000 A 
ATOM     25  C   UNL     1       6.117   4.306  14.921  0.00  0.00    +0.000 A 
ATOM     26  C   UNL     1       7.221   4.716  15.697  0.00  0.00    +0.000 A 
ATOM     27  C   UNL     1       7.085   4.940  17.072  0.00  0.00    +0.000 A 
ATOM     28  C   UNL     1       5.829   4.766  17.619  0.00  0.00    +0.000 A 
ATOM     29  C   UNL     1       5.372   4.892  19.005  0.00  0.00    +0.000 C 
ATOM     30  O   UNL     1       6.100   5.084  19.961  0.00  0.00    +0.000 OA
ENDBRANCH  19  20
ENDBRANCH   2  19
TORSDOF 4
ENDMDL
MODEL 2
REMARK VINA RESULT:      -7.9      2.190      8.576
REMARK  Name = 
REMARK  6 active torsions:
REMARK  status: ('A' for Active; 'I' for Inactive)
REMARK    1  A    between atoms: C_1  and  C_2
REMARK    2  A    between atoms: C_3  and  N_4
REMARK    3  A    between atoms: C_5  and  C_7
REMARK    4  A    between atoms: C_7  and  N_8
REMARK    5  A    between atoms: N_21  and  C_22
REMARK    6  A    between atoms: N_28  and  C_29
REMARK                            x       y       z     vdW  Elec       q    Type
REMARK                         _______ _______ _______ _____ _____    ______ ____
ROOT
ATOM      1  N   UNL     1       1.444   7.698  19.337  0.00  0.00    +0.000 N 
ATOM      2  C   UNL     1       1.262   8.411  20.517  0.00  0.00    +0.000 C 
ATOM      3  O   UNL     1       1.842   8.178  21.576  0.00  0.00    +0.000 OA
ATOM      4  H   UNL     1       0.772   7.848  18.586  0.00  0.00    +0.000 HD
ENDROOT
BRANCH   1   7
ATOM      5  C   UNL     1       1.439   4.788  20.761  0.00  0.00    +0.000 C 
ATOM      6  C   UNL     1       2.252   5.340  19.630  0.00  0.00    +0.000 A 
ATOM      7  C   UNL     1       2.261   6.599  19.151  0.00  0.00    +0.000 A 
ATOM      8  C   UNL     1       3.518   6.677  18.305  0.00  0.00    +0.000 A 
ATOM      9  O   UNL     1       3.871   7.697  17.727  0.00  0.00    +0.000 OA
ATOM     10  N   UNL     1       4.081   5.395  18.307  0.00  0.00    +0.000 N 
ATOM     11  N   UNL     1       3.234   4.531  19.033  0.00  0.00    +0.000 N 
ATOM     12  C   UNL     1       3.824   3.387  19.728  0.00  0.00    +0.000 C 
BRANCH  10  13
ATOM     13  C   UNL     1       5.093   4.914  17.445  0.00  0.00    +0.000 A 
ATOM     14  C   UNL     1       4.762   4.409  16.183  0.00  0.00    +0.000 A 
ATOM     15  C   UNL     1       5.768   4.095  15.260  0.00  0.00    +0.000 A 
ATOM     16  C   UNL     1       7.112   4.238  15.605  0.00  0.00    +0.000 A 
ATOM     17  C   UNL     1       7.455   4.686  16.877  0.00  0.00    +0.000 A 
ATOM     18  C   UNL     1       6.450   5.024  17.788  0.00  0.00    +0.000 A 
ENDBRANCH  10  13
ENDBRANCH   1   7
BRANCH   2  19
ATOM     19  C   UNL     1       0.253   9.567  20.441  0.00  0.00    +0.000 C 
BRANCH  19  20
ATOM     20  N   UNL     1       0.893  10.834  20.129  0.00  0.00    +0.000 N 
ATOM     21  C   UNL     1       0.815  11.961  20.901  0.00  0.00    +0.000 C 
ATOM     22  O   UNL     1       0.262  12.138  21.972  0.00  0.00    +0.000 OA
ATOM     23  C   UNL     1       1.491  13.027  20.147  0.00  0.00    +0.000 A 
ATOM     24  C   UNL     1       1.715  14.356  20.459  0.00  0.00    +0.000 A 
ATOM     25  C   UNL     1       2.411  15.127  19.520  0.00  0.00    +0.000 A 
ATOM     26  C   UNL     1       2.851  14.565  18.304  0.00  0.00    +0.000 A 
ATOM     27  C   UNL     1       2.584  13.225  17.998  0.00  0.00    +0.000 A 
ATOM     28  C   UNL     1       1.899  12.486  18.941  0.00  0.00    +0.000 A 
ATOM     29  C   UNL     1       1.448  11.092  18.912  0.00  0.00    +0.000 C 
ATOM     30  O   UNL     1       1.528  10.358  17.944  0.00  0.00    +0.000 OA
ENDBRANCH  19  20
ENDBRANCH   2  19
TORSDOF 4
ENDMDL
MODEL 3
REMARK VINA RESULT:      -7.9      2.147      8.446
REMARK  Name = 
REMARK  6 active torsions:
REMARK  status: ('A' for Active; 'I' for Inactive)
REMARK    1  A    between atoms: C_1  and  C_2
REMARK    2  A    between atoms: C_3  and  N_4
REMARK    3  A    between atoms: C_5  and  C_7
REMARK    4  A    between atoms: C_7  and  N_8
REMARK    5  A    between atoms: N_21  and  C_22
REMARK    6  A    between atoms: N_28  and  C_29
REMARK                            x       y       z     vdW  Elec       q    Type
REMARK                         _______ _______ _______ _____ _____    ______ ____
ROOT
ATOM      1  N   UNL     1       1.372   7.583  19.347  0.00  0.00    +0.000 N 
ATOM      2  C   UNL     1       1.231   8.359  20.493  0.00  0.00    +0.000 C 
ATOM      3  O   UNL     1       1.884   8.214  21.525  0.00  0.00    +0.000 OA
ATOM      4  H   UNL     1       0.649   7.661  18.632  0.00  0.00    +0.000 HD
ENDROOT
BRANCH   1   7
ATOM      5  C   UNL     1       1.465   4.696  20.813  0.00  0.00    +0.000 C 
ATOM      6  C   UNL     1       2.256   5.258  19.671  0.00  0.00    +0.000 A 
ATOM      7  C   UNL     1       2.223   6.509  19.174  0.00  0.00    +0.000 A 
ATOM      8  C   UNL     1       3.473   6.615  18.322  0.00  0.00    +0.000 A 
ATOM      9  O   UNL     1       3.792   7.637  17.728  0.00  0.00    +0.000 OA
ATOM     10  N   UNL     1       4.078   5.351  18.340  0.00  0.00    +0.000 N 
ATOM     11  N   UNL     1       3.262   4.472  19.082  0.00  0.00    +0.000 N 
ATOM     12  C   UNL     1       3.891   3.357  19.791  0.00  0.00    +0.000 C 
BRANCH  10  13
ATOM     13  C   UNL     1       5.102   4.891  17.481  0.00  0.00    +0.000 A 
ATOM     14  C   UNL     1       4.785   4.384  16.216  0.00  0.00    +0.000 A 
ATOM     15  C   UNL     1       5.800   4.090  15.296  0.00  0.00    +0.000 A 
ATOM     16  C   UNL     1       7.140   4.256  15.648  0.00  0.00    +0.000 A 
ATOM     17  C   UNL     1       7.470   4.705  16.923  0.00  0.00    +0.000 A 
ATOM     18  C   UNL     1       6.455   5.024  17.830  0.00  0.00    +0.000 A 
ENDBRANCH  10  13
ENDBRANCH   1   7
BRANCH   2  19
ATOM     19  C   UNL     1       0.170   9.467  20.414  0.00  0.00    +0.000 C 
BRANCH  19  20
ATOM     20  N   UNL     1       0.735  10.739  19.994  0.00  0.00    +0.000 N 
ATOM     21  C   UNL     1       1.414  10.945  18.824  0.00  0.00    +0.000 C 
ATOM     22  O   UNL     1       1.648  10.174  17.910  0.00  0.00    +0.000 OA
ATOM     23  C   UNL     1       1.915  12.326  18.874  0.00  0.00    +0.000 A 
ATOM     24  C   UNL     1       2.649  13.058  17.958  0.00  0.00    +0.000 A 
ATOM     25  C   UNL     1       2.970  14.377  18.300  0.00  0.00    +0.000 A 
ATOM     26  C   UNL     1       2.565  14.924  19.535  0.00  0.00    +0.000 A 
ATOM     27  C   UNL     1       1.851  14.153  20.459  0.00  0.00    +0.000 A 
ATOM     28  C   UNL     1       1.544  12.856  20.097  0.00  0.00    +0.000 A 
ATOM     29  C   UNL     1       0.846  11.803  20.837  0.00  0.00    +0.000 C 
ATOM     30  O   UNL     1       0.495  11.888  22.000  0.00  0.00    +0.000 OA
ENDBRANCH  19  20
ENDBRANCH   2  19
TORSDOF 4
ENDMDL
MODEL 4
REMARK VINA RESULT:      -7.9      6.500      8.193
REMARK  Name = 
REMARK  6 active torsions:
REMARK  status: ('A' for Active; 'I' for Inactive)
REMARK    1  A    between atoms: C_1  and  C_2
REMARK    2  A    between atoms: C_3  and  N_4
REMARK    3  A    between atoms: C_5  and  C_7
REMARK    4  A    between atoms: C_7  and  N_8
REMARK    5  A    between atoms: N_21  and  C_22
REMARK    6  A    between atoms: N_28  and  C_29
REMARK                            x       y       z     vdW  Elec       q    Type
REMARK                         _______ _______ _______ _____ _____    ______ ____
ROOT
ATOM      1  N   UNL     1       4.328  14.746  17.724  0.00  0.00    +0.000 N 
ATOM      2  C   UNL     1       5.489  14.909  18.471  0.00  0.00    +0.000 C 
ATOM      3  O   UNL     1       5.546  14.872  19.700  0.00  0.00    +0.000 OA
ATOM      4  H   UNL     1       4.363  14.993  16.735  0.00  0.00    +0.000 HD
ENDROOT
BRANCH   1   7
ATOM      5  C   UNL     1       2.323  16.772  19.263  0.00  0.00    +0.000 C 
ATOM      6  C   UNL     1       2.132  15.373  18.764  0.00  0.00    +0.000 A 
ATOM      7  C   UNL     1       3.049  14.556  18.211  0.00  0.00    +0.000 A 
ATOM      8  C   UNL     1       2.416  13.178  18.266  0.00  0.00    +0.000 A 
ATOM      9  O   UNL     1       2.982  12.167  17.870  0.00  0.00    +0.000 OA
ATOM     10  N   UNL     1       1.124  13.352  18.779  0.00  0.00    +0.000 N 
ATOM     11  N   UNL     1       0.901  14.730  18.980  0.00  0.00    +0.000 N 
ATOM     12  C   UNL     1      -0.016  15.147  20.042  0.00  0.00    +0.000 C 
BRANCH  10  13
ATOM     13  C   UNL     1       0.071  12.410  18.756  0.00  0.00    +0.000 A 
ATOM     14  C   UNL     1      -1.001  12.573  17.871  0.00  0.00    +0.000 A 
ATOM     15  C   UNL     1      -1.955  11.558  17.720  0.00  0.00    +0.000 A 
ATOM     16  C   UNL     1      -1.873  10.393  18.483  0.00  0.00    +0.000 A 
ATOM     17  C   UNL     1      -0.844  10.244  19.408  0.00  0.00    +0.000 A 
ATOM     18  C   UNL     1       0.123  11.245  19.539  0.00  0.00    +0.000 A 
ENDBRANCH  10  13
ENDBRANCH   1   7
BRANCH   2  19
ATOM     19  C   UNL     1       6.770  15.148  17.658  0.00  0.00    +0.000 C 
BRANCH  19  20
ATOM     20  N   UNL     1       7.887  14.358  18.149  0.00  0.00    +0.000 N 
ATOM     21  C   UNL     1       8.904  14.840  18.928  0.00  0.00    +0.000 C 
ATOM     22  O   UNL     1       9.073  15.954  19.391  0.00  0.00    +0.000 OA
ATOM     23  C   UNL     1       9.870  13.741  19.074  0.00  0.00    +0.000 A 
ATOM     24  C   UNL     1      11.067  13.672  19.764  0.00  0.00    +0.000 A 
ATOM     25  C   UNL     1      11.765  12.460  19.717  0.00  0.00    +0.000 A 
ATOM     26  C   UNL     1      11.265  11.363  18.985  0.00  0.00    +0.000 A 
ATOM     27  C   UNL     1      10.067  11.468  18.269  0.00  0.00    +0.000 A 
ATOM     28  C   UNL     1       9.396  12.673  18.333  0.00  0.00    +0.000 A 
ATOM     29  C   UNL     1       8.154  13.104  17.687  0.00  0.00    +0.000 C 
ATOM     30  O   UNL     1       7.540  12.455  16.861  0.00  0.00    +0.000 OA
ENDBRANCH  19  20
ENDBRANCH   2  19
TORSDOF 4
ENDMDL
MODEL 5
REMARK VINA RESULT:      -7.9      0.207      1.863
REMARK  Name = 
REMARK  6 active torsions:
REMARK  status: ('A' for Active; 'I' for Inactive)
REMARK    1  A    between atoms: C_1  and  C_2
REMARK    2  A    between atoms: C_3  and  N_4
REMARK    3  A    between atoms: C_5  and  C_7
REMARK    4  A    between atoms: C_7  and  N_8
REMARK    5  A    between atoms: N_21  and  C_22
REMARK    6  A    between atoms: N_28  and  C_29
REMARK                            x       y       z     vdW  Elec       q    Type
REMARK                         _______ _______ _______ _____ _____    ______ ____
ROOT
ATOM      1  N   UNL     1       2.700   6.922  20.017  0.00  0.00    +0.000 N 
ATOM      2  C   UNL     1       2.187   5.641  20.189  0.00  0.00    +0.000 C 
ATOM      3  O   UNL     1       0.990   5.364  20.239  0.00  0.00    +0.000 OA
ATOM      4  H   UNL     1       3.695   7.060  20.190  0.00  0.00    +0.000 HD
ENDROOT
BRANCH   1   7
ATOM      5  C   UNL     1       1.961   8.730  17.433  0.00  0.00    +0.000 C 
ATOM      6  C   UNL     1       1.554   8.837  18.871  0.00  0.00    +0.000 A 
ATOM      7  C   UNL     1       1.980   8.096  19.912  0.00  0.00    +0.000 A 
ATOM      8  C   UNL     1       1.554   8.880  21.139  0.00  0.00    +0.000 A 
ATOM      9  O   UNL     1       1.800   8.517  22.282  0.00  0.00    +0.000 OA
ATOM     10  N   UNL     1       0.826   9.983  20.675  0.00  0.00    +0.000 N 
ATOM     11  N   UNL     1       0.723   9.898  19.271  0.00  0.00    +0.000 N 
ATOM     12  C   UNL     1       0.617  11.135  18.497  0.00  0.00    +0.000 C 
BRANCH  10  13
ATOM     13  C   UNL     1       0.003  10.838  21.444  0.00  0.00    +0.000 A 
ATOM     14  C   UNL     1      -0.895  10.301  22.374  0.00  0.00    +0.000 A 
ATOM     15  C   UNL     1      -1.584  11.140  23.259  0.00  0.00    +0.000 A 
ATOM     16  C   UNL     1      -1.418  12.524  23.193  0.00  0.00    +0.000 A 
ATOM     17  C   UNL     1      -0.571  13.074  22.235  0.00  0.00    +0.000 A 
ATOM     18  C   UNL     1       0.137  12.234  21.370  0.00  0.00    +0.000 A 
ENDBRANCH  10  13
ENDBRANCH   1   7
BRANCH   2  19
ATOM     19  C   UNL     1       3.232   4.523  20.319  0.00  0.00    +0.000 C 
BRANCH  19  20
ATOM     20  N   UNL     1       4.079   4.423  19.142  0.00  0.00    +0.000 N 
ATOM     21  C   UNL     1       5.399   4.780  19.096  0.00  0.00    +0.000 C 
ATOM     22  O   UNL     1       6.128   5.196  19.979  0.00  0.00    +0.000 OA
ATOM     23  C   UNL     1       5.817   4.641  17.692  0.00  0.00    +0.000 A 
ATOM     24  C   UNL     1       7.041   4.856  17.086  0.00  0.00    +0.000 A 
ATOM     25  C   UNL     1       7.124   4.622  15.707  0.00  0.00    +0.000 A 
ATOM     26  C   UNL     1       5.996   4.195  14.976  0.00  0.00    +0.000 A 
ATOM     27  C   UNL     1       4.760   4.015  15.608  0.00  0.00    +0.000 A 
ATOM     28  C   UNL     1       4.705   4.249  16.968  0.00  0.00    +0.000 A 
ATOM     29  C   UNL     1       3.577   4.179  17.899  0.00  0.00    +0.000 C 
ATOM     30  O   UNL     1       2.420   3.988  17.574  0.00  0.00    +0.000 OA
ENDBRANCH  19  20
ENDBRANCH   2  19
TORSDOF 4
ENDMDL
MODEL 6
REMARK VINA RESULT:      -7.9      2.589      4.226
REMARK  Name = 
REMARK  6 active torsions:
REMARK  status: ('A' for Active; 'I' for Inactive)
REMARK    1  A    between atoms: C_1  and  C_2
REMARK    2  A    between atoms: C_3  and  N_4
REMARK    3  A    between atoms: C_5  and  C_7
REMARK    4  A    between atoms: C_7  and  N_8
REMARK    5  A    between atoms: N_21  and  C_22
REMARK    6  A    between atoms: N_28  and  C_29
REMARK                            x       y       z     vdW  Elec       q    Type
REMARK                         _______ _______ _______ _____ _____    ______ ____
ROOT
ATOM      1  N   UNL     1       2.016  10.114  18.797  0.00  0.00    +0.000 N 
ATOM      2  C   UNL     1       1.911   9.001  17.970  0.00  0.00    +0.000 C 
ATOM      3  O   UNL     1       0.973   8.778  17.206  0.00  0.00    +0.000 OA
ATOM      4  H   UNL     1       2.728  10.096  19.526  0.00  0.00    +0.000 HD
ENDROOT
BRANCH   1   7
ATOM      5  C   UNL     1       2.230  13.279  18.140  0.00  0.00    +0.000 C 
ATOM      6  C   UNL     1       1.080  12.433  18.595  0.00  0.00    +0.000 A 
ATOM      7  C   UNL     1       1.091  11.131  18.938  0.00  0.00    +0.000 A 
ATOM      8  C   UNL     1      -0.220  10.917  19.671  0.00  0.00    +0.000 A 
ATOM      9  O   UNL     1      -0.545   9.842  20.159  0.00  0.00    +0.000 OA
ATOM     10  N   UNL     1      -0.919  12.129  19.601  0.00  0.00    +0.000 N 
ATOM     11  N   UNL     1      -0.166  13.040  18.831  0.00  0.00    +0.000 N 
ATOM     12  C   UNL     1      -0.291  14.471  19.112  0.00  0.00    +0.000 C 
BRANCH  10  13
ATOM     13  C   UNL     1      -2.286  12.336  19.895  0.00  0.00    +0.000 A 
ATOM     14  C   UNL     1      -3.263  12.050  18.934  0.00  0.00    +0.000 A 
ATOM     15  C   UNL     1      -4.622  12.084  19.275  0.00  0.00    +0.000 A 
ATOM     16  C   UNL     1      -5.017  12.450  20.562  0.00  0.00    +0.000 A 
ATOM     17  C   UNL     1      -4.057  12.792  21.510  0.00  0.00    +0.000 A 
ATOM     18  C   UNL     1      -2.701  12.731  21.177  0.00  0.00    +0.000 A 
ENDBRANCH  10  13
ENDBRANCH   1   7
BRANCH   2  19
ATOM     19  C   UNL     1       3.078   8.005  18.051  0.00  0.00    +0.000 C 
BRANCH  19  20
ATOM     20  N   UNL     1       2.656   6.704  18.544  0.00  0.00    +0.000 N 
ATOM     21  C   UNL     1       2.021   6.489  19.737  0.00  0.00    +0.000 C 
ATOM     22  O   UNL     1       1.653   7.285  20.582  0.00  0.00    +0.000 OA
ATOM     23  C   UNL     1       1.906   5.030  19.887  0.00  0.00    +0.000 A 
ATOM     24  C   UNL     1       1.342   4.264  20.891  0.00  0.00    +0.000 A 
ATOM     25  C   UNL     1       1.382   2.873  20.736  0.00  0.00    +0.000 A 
ATOM     26  C   UNL     1       1.985   2.288  19.603  0.00  0.00    +0.000 A 
ATOM     27  C   UNL     1       2.576   3.084  18.616  0.00  0.00    +0.000 A 
ATOM     28  C   UNL     1       2.521   4.453  18.791  0.00  0.00    +0.000 A 
ATOM     29  C   UNL     1       3.061   5.538  17.969  0.00  0.00    +0.000 C 
ATOM     30  O   UNL     1       3.774   5.382  16.995  0.00  0.00    +0.000 OA
ENDBRANCH  19  20
ENDBRANCH   2  19
TORSDOF 4
ENDMDL
MODEL 7
REMARK VINA RESULT:      -7.7      1.725      8.819
REMARK  Name = 
REMARK  6 active torsions:
REMARK  status: ('A' for Active; 'I' for Inactive)
REMARK    1  A    between atoms: C_1  and  C_2
REMARK    2  A    between atoms: C_3  and  N_4
REMARK    3  A    between atoms: C_5  and  C_7
REMARK    4  A    between atoms: C_7  and  N_8
REMARK    5  A    between atoms: N_21  and  C_22
REMARK    6  A    between atoms: N_28  and  C_29
REMARK                            x       y       z     vdW  Elec       q    Type
REMARK                         _______ _______ _______ _____ _____    ______ ____
ROOT
ATOM      1  N   UNL     1       1.008   6.385  20.382  0.00  0.00    +0.000 N 
ATOM      2  C   UNL     1       1.127   7.574  21.094  0.00  0.00    +0.000 C 
ATOM      3  O   UNL     1       2.188   8.048  21.497  0.00  0.00    +0.000 OA
ATOM      4  H   UNL     1       0.074   5.991  20.275  0.00  0.00    +0.000 HD
ENDROOT
BRANCH   1   7
ATOM      5  C   UNL     1       1.839   3.500  21.598  0.00  0.00    +0.000 C 
ATOM      6  C   UNL     1       2.365   4.276  20.429  0.00  0.00    +0.000 A 
ATOM      7  C   UNL     1       2.028   5.520  20.038  0.00  0.00    +0.000 A 
ATOM      8  C   UNL     1       3.125   5.928  19.073  0.00  0.00    +0.000 A 
ATOM      9  O   UNL     1       3.164   7.025  18.531  0.00  0.00    +0.000 OA
ATOM     10  N   UNL     1       3.964   4.815  18.929  0.00  0.00    +0.000 N 
ATOM     11  N   UNL     1       3.430   3.747  19.679  0.00  0.00    +0.000 N 
ATOM     12  C   UNL     1       4.345   2.746  20.230  0.00  0.00    +0.000 C 
BRANCH  10  13
ATOM     13  C   UNL     1       4.952   4.624  17.936  0.00  0.00    +0.000 A 
ATOM     14  C   UNL     1       4.587   4.198  16.653  0.00  0.00    +0.000 A 
ATOM     15  C   UNL     1       5.533   4.174  15.620  0.00  0.00    +0.000 A 
ATOM     16  C   UNL     1       6.859   4.530  15.868  0.00  0.00    +0.000 A 
ATOM     17  C   UNL     1       7.246   4.900  17.153  0.00  0.00    +0.000 A 
ATOM     18  C   UNL     1       6.296   4.950  18.177  0.00  0.00    +0.000 A 
ENDBRANCH  10  13
ENDBRANCH   1   7
BRANCH   2  19
ATOM     19  C   UNL     1      -0.190   8.314  21.371  0.00  0.00    +0.000 C 
BRANCH  19  20
ATOM     20  N   UNL     1      -0.069   9.747  21.160  0.00  0.00    +0.000 N 
ATOM     21  C   UNL     1      -0.161  10.694  22.144  0.00  0.00    +0.000 C 
ATOM     22  O   UNL     1      -0.314  10.559  23.345  0.00  0.00    +0.000 OA
ATOM     23  C   UNL     1      -0.114  11.999  21.469  0.00  0.00    +0.000 A 
ATOM     24  C   UNL     1      -0.155  13.284  21.978  0.00  0.00    +0.000 A 
ATOM     25  C   UNL     1      -0.078  14.340  21.061  0.00  0.00    +0.000 A 
ATOM     26  C   UNL     1       0.026  14.092  19.677  0.00  0.00    +0.000 A 
ATOM     27  C   UNL     1       0.033  12.781  19.185  0.00  0.00    +0.000 A 
ATOM     28  C   UNL     1      -0.040  11.758  20.109  0.00  0.00    +0.000 A 
ATOM     29  C   UNL     1      -0.082  10.307  19.917  0.00  0.00    +0.000 C 
ATOM     30  O   UNL     1      -0.164   9.751  18.837  0.00  0.00    +0.000 OA
ENDBRANCH  19  20
ENDBRANCH   2  19
TORSDOF 4
ENDMDL
MODEL 8
REMARK VINA RESULT:      -7.7      1.821      8.607
REMARK  Name = 
REMARK  6 active torsions:
REMARK  status: ('A' for Active; 'I' for Inactive)
REMARK    1  A    between atoms: C_1  and  C_2
REMARK    2  A    between atoms: C_3  and  N_4
REMARK    3  A    between atoms: C_5  and  C_7
REMARK    4  A    between atoms: C_7  and  N_8
REMARK    5  A    between atoms: N_21  and  C_22
REMARK    6  A    between atoms: N_28  and  C_29
REMARK                            x       y       z     vdW  Elec       q    Type
REMARK                         _______ _______ _______ _____ _____    ______ ____
ROOT
ATOM      1  N   UNL     1       1.011   6.891  20.297  0.00  0.00    +0.000 N 
ATOM      2  C   UNL     1       1.074   7.917  21.234  0.00  0.00    +0.000 C 
ATOM      3  O   UNL     1       2.103   8.299  21.789  0.00  0.00    +0.000 OA
ATOM      4  H   UNL     1       0.089   6.528  20.055  0.00  0.00    +0.000 HD
ENDROOT
BRANCH   1   7
ATOM      5  C   UNL     1       2.121   4.042  21.366  0.00  0.00    +0.000 C 
ATOM      6  C   UNL     1       2.506   4.879  20.185  0.00  0.00    +0.000 A 
ATOM      7  C   UNL     1       2.058   6.106  19.855  0.00  0.00    +0.000 A 
ATOM      8  C   UNL     1       3.051   6.611  18.826  0.00  0.00    +0.000 A 
ATOM      9  O   UNL     1       2.977   7.722  18.315  0.00  0.00    +0.000 OA
ATOM     10  N   UNL     1       3.951   5.564  18.590  0.00  0.00    +0.000 N 
ATOM     11  N   UNL     1       3.546   4.444  19.346  0.00  0.00    +0.000 N 
ATOM     12  C   UNL     1       4.565   3.496  19.800  0.00  0.00    +0.000 C 
BRANCH  10  13
ATOM     13  C   UNL     1       4.873   5.464  17.524  0.00  0.00    +0.000 A 
ATOM     14  C   UNL     1       6.104   6.127  17.594  0.00  0.00    +0.000 A 
ATOM     15  C   UNL     1       7.089   5.893  16.626  0.00  0.00    +0.000 A 
ATOM     16  C   UNL     1       6.838   5.034  15.555  0.00  0.00    +0.000 A 
ATOM     17  C   UNL     1       5.597   4.414  15.444  0.00  0.00    +0.000 A 
ATOM     18  C   UNL     1       4.624   4.626  16.425  0.00  0.00    +0.000 A 
ENDBRANCH  10  13
ENDBRANCH   1   7
BRANCH   2  19
ATOM     19  C   UNL     1      -0.265   8.592  21.566  0.00  0.00    +0.000 C 
BRANCH  19  20
ATOM     20  N   UNL     1      -0.302   9.979  21.133  0.00  0.00    +0.000 N 
ATOM     21  C   UNL     1      -0.067  10.406  19.853  0.00  0.00    +0.000 C 
ATOM     22  O   UNL     1       0.169   9.763  18.846  0.00  0.00    +0.000 OA
ATOM     23  C   UNL     1      -0.076  11.876  19.900  0.00  0.00    +0.000 A 
ATOM     24  C   UNL     1       0.095  12.815  18.899  0.00  0.00    +0.000 A 
ATOM     25  C   UNL     1       0.021  14.164  19.265  0.00  0.00    +0.000 A 
ATOM     26  C   UNL     1      -0.207  14.539  20.605  0.00  0.00    +0.000 A 
ATOM     27  C   UNL     1      -0.345  13.570  21.605  0.00  0.00    +0.000 A 
ATOM     28  C   UNL     1      -0.271  12.247  21.218  0.00  0.00    +0.000 A 
ATOM     29  C   UNL     1      -0.346  11.019  22.012  0.00  0.00    +0.000 C 
ATOM     30  O   UNL     1      -0.387  10.980  23.228  0.00  0.00    +0.000 OA
ENDBRANCH  19  20
ENDBRANCH   2  19
TORSDOF 4
ENDMDL
MODEL 9
REMARK VINA RESULT:      -7.7      1.801      8.869
REMARK  Name = 
REMARK  6 active torsions:
REMARK  status: ('A' for Active; 'I' for Inactive)
REMARK    1  A    between atoms: C_1  and  C_2
REMARK    2  A    between atoms: C_3  and  N_4
REMARK    3  A    between atoms: C_5  and  C_7
REMARK    4  A    between atoms: C_7  and  N_8
REMARK    5  A    between atoms: N_21  and  C_22
REMARK    6  A    between atoms: N_28  and  C_29
REMARK                            x       y       z     vdW  Elec       q    Type
REMARK                         _______ _______ _______ _____ _____    ______ ____
ROOT
ATOM      1  N   UNL     1       0.999   6.737  20.327  0.00  0.00    +0.000 N 
ATOM      2  C   UNL     1       1.063   7.854  21.152  0.00  0.00    +0.000 C 
ATOM      3  O   UNL     1       2.103   8.344  21.593  0.00  0.00    +0.000 OA
ATOM      4  H   UNL     1       0.086   6.304  20.188  0.00  0.00    +0.000 HD
ENDROOT
BRANCH   1   7
ATOM      5  C   UNL     1       2.166   3.923  21.429  0.00  0.00    +0.000 C 
ATOM      6  C   UNL     1       2.531   4.752  20.235  0.00  0.00    +0.000 A 
ATOM      7  C   UNL     1       2.059   5.965  19.892  0.00  0.00    +0.000 A 
ATOM      8  C   UNL     1       3.038   6.476  18.852  0.00  0.00    +0.000 A 
ATOM      9  O   UNL     1       2.941   7.578  18.327  0.00  0.00    +0.000 OA
ATOM     10  N   UNL     1       3.956   5.442  18.626  0.00  0.00    +0.000 N 
ATOM     11  N   UNL     1       3.576   4.324  19.398  0.00  0.00    +0.000 N 
ATOM     12  C   UNL     1       4.613   3.402  19.860  0.00  0.00    +0.000 C 
BRANCH  10  13
ATOM     13  C   UNL     1       4.876   5.346  17.557  0.00  0.00    +0.000 A 
ATOM     14  C   UNL     1       6.083   6.053  17.601  0.00  0.00    +0.000 A 
ATOM     15  C   UNL     1       7.071   5.828  16.634  0.00  0.00    +0.000 A 
ATOM     16  C   UNL     1       6.845   4.931  15.589  0.00  0.00    +0.000 A 
ATOM     17  C   UNL     1       5.627   4.264  15.503  0.00  0.00    +0.000 A 
ATOM     18  C   UNL     1       4.652   4.469  16.483  0.00  0.00    +0.000 A 
ENDBRANCH  10  13
ENDBRANCH   1   7
BRANCH   2  19
ATOM     19  C   UNL     1      -0.288   8.491  21.510  0.00  0.00    +0.000 C 
BRANCH  19  20
ATOM     20  N   UNL     1      -0.286   9.930  21.310  0.00  0.00    +0.000 N 
ATOM     21  C   UNL     1      -0.364  10.860  22.312  0.00  0.00    +0.000 C 
ATOM     22  O   UNL     1      -0.408  10.706  23.519  0.00  0.00    +0.000 OA
ATOM     23  C   UNL     1      -0.465  12.171  21.653  0.00  0.00    +0.000 A 
ATOM     24  C   UNL     1      -0.555  13.446  22.181  0.00  0.00    +0.000 A 
ATOM     25  C   UNL     1      -0.629  14.511  21.276  0.00  0.00    +0.000 A 
ATOM     26  C   UNL     1      -0.623  14.282  19.884  0.00  0.00    +0.000 A 
ATOM     27  C   UNL     1      -0.563  12.980  19.375  0.00  0.00    +0.000 A 
ATOM     28  C   UNL     1      -0.487  11.947  20.288  0.00  0.00    +0.000 A 
ATOM     29  C   UNL     1      -0.442  10.497  20.081  0.00  0.00    +0.000 C 
ATOM     30  O   UNL     1      -0.573   9.946  19.004  0.00  0.00    +0.000 OA
ENDBRANCH  19  20
ENDBRANCH   2  19
TORSDOF 4
ENDMDL
