MODEL 1
REMARK VINA RESULT:      -8.4      0.000      0.000
REMARK  Name = 
REMARK  9 active torsions:
REMARK  status: ('A' for Active; 'I' for Inactive)
REMARK    1  A    between atoms: C_1  and  O_2
REMARK    2  A    between atoms: O_2  and  C_3
REMARK    3  A    between atoms: C_7  and  C_8
REMARK    4  A    between atoms: C_8  and  N_9
REMARK    5  A    between atoms: N_19  and  C1*_20
REMARK    6  A    between atoms: C4*_22  and  C5*_23
REMARK    7  A    between atoms: C5*_23  and  O5*_24
REMARK    8  A    between atoms: C3*_25  and  O3*_26
REMARK    9  A    between atoms: C2*_27  and  O2*_28
REMARK                            x       y       z     vdW  Elec       q    Type
REMARK                         _______ _______ _______ _____ _____    ______ ____
ROOT
ATOM      1  N   UNL     1       2.274   7.274  17.797  0.00  0.00    +0.000 N 
ATOM      2  C   UNL     1       3.525   6.759  17.859  0.00  0.00    +0.000 A 
ATOM      3  N   UNL     1       4.633   7.317  17.425  0.00  0.00    +0.000 NA
ATOM      4  C   UNL     1       5.632   6.417  17.724  0.00  0.00    +0.000 A 
ATOM      5  C   UNL     1       7.013   6.412  17.461  0.00  0.00    +0.000 A 
ATOM      6  N   UNL     1       7.650   7.395  16.720  0.00  0.00    +0.000 N 
ATOM      7  N   UNL     1       7.759   5.393  17.943  0.00  0.00    +0.000 NA
ATOM      8  C   UNL     1       7.137   4.406  18.616  0.00  0.00    +0.000 A 
ATOM      9  N   UNL     1       5.822   4.277  18.871  0.00  0.00    +0.000 NA
ATOM     10  C   UNL     1       5.125   5.323  18.400  0.00  0.00    +0.000 A 
ATOM     11  N   UNL     1       3.771   5.525  18.434  0.00  0.00    +0.000 N 
ATOM     12  H   UNL     1       1.701   6.856  17.064  0.00  0.00    +0.000 HD
ATOM     13  H   UNL     1       7.140   8.275  16.669  0.00  0.00    +0.000 HD
ATOM     14  H   UNL     1       8.647   7.427  16.889  0.00  0.00    +0.000 HD
ENDROOT
BRANCH  11  15
ATOM     15  C1* UNL     1       2.776   4.588  18.915  0.00  0.00    +0.000 C 
ATOM     16  O4* UNL     1       3.353   3.700  19.902  0.00  0.00    +0.000 OA
ATOM     17  C4* UNL     1       2.897   2.348  19.632  0.00  0.00    +0.000 C 
ATOM     18  C3* UNL     1       1.789   2.466  18.588  0.00  0.00    +0.000 C 
ATOM     19  C2* UNL     1       2.173   3.717  17.812  0.00  0.00    +0.000 C 
BRANCH  18  20
ATOM     20  O3* UNL     1       0.507   2.710  19.201  0.00  0.00    +0.000 OA
ATOM     21  H3* UNL     1       0.588   2.589  20.166  0.00  0.00    +0.000 HD
ENDBRANCH  18  20
BRANCH  19  22
ATOM     22  O2* UNL     1       1.031   4.320  17.200  0.00  0.00    +0.000 OA
ATOM     23  H2* UNL     1       0.494   4.686  17.934  0.00  0.00    +0.000 HD
ENDBRANCH  19  22
BRANCH  17  24
ATOM     24  C5* UNL     1       4.078   1.494  19.164  0.00  0.00    +0.000 C 
BRANCH  24  25
ATOM     25  O5* UNL     1       5.179   1.652  20.057  0.00  0.00    +0.000 OA
ATOM     26  H5* UNL     1       5.731   0.853  19.946  0.00  0.00    +0.000 HD
ENDBRANCH  24  25
ENDBRANCH  17  24
ENDBRANCH  11  15
BRANCH   1  27
ATOM     27  C   UNL     1       2.185   8.732  17.686  0.00  0.00    +0.000 C 
BRANCH  27  32
ATOM     28  C   UNL     1       0.552   9.351  21.092  0.00  0.00    +0.000 A 
ATOM     29  C   UNL     1      -0.524  10.162  20.727  0.00  0.00    +0.000 A 
ATOM     30  C   UNL     1      -0.704  10.542  19.398  0.00  0.00    +0.000 A 
ATOM     31  C   UNL     1       0.192  10.103  18.424  0.00  0.00    +0.000 A 
ATOM     32  C   UNL     1       1.279   9.286  18.765  0.00  0.00    +0.000 A 
ATOM     33  C   UNL     1       1.454   8.922  20.114  0.00  0.00    +0.000 A 
BRANCH  28  35
ATOM     34  C   UNL     1      -0.336   9.688  23.274  0.00  0.00    +0.000 C 
ATOM     35  O   UNL     1       0.599   9.036  22.424  0.00  0.00    +0.000 OA
ENDBRANCH  28  35
ENDBRANCH  27  32
ENDBRANCH   1  27
TORSDOF 8
ENDMDL
MODEL 2
REMARK VINA RESULT:      -8.3      1.348      1.873
REMARK  Name = 
REMARK  9 active torsions:
REMARK  status: ('A' for Active; 'I' for Inactive)
REMARK    1  A    between atoms: C_1  and  O_2
REMARK    2  A    between atoms: O_2  and  C_3
REMARK    3  A    between atoms: C_7  and  C_8
REMARK    4  A    between atoms: C_8  and  N_9
REMARK    5  A    between atoms: N_19  and  C1*_20
REMARK    6  A    between atoms: C4*_22  and  C5*_23
REMARK    7  A    between atoms: C5*_23  and  O5*_24
REMARK    8  A    between atoms: C3*_25  and  O3*_26
REMARK    9  A    between atoms: C2*_27  and  O2*_28
REMARK                            x       y       z     vdW  Elec       q    Type
REMARK                         _______ _______ _______ _____ _____    ______ ____
ROOT
ATOM      1  N   UNL     1       2.243   7.157  17.720  0.00  0.00    +0.000 N 
ATOM      2  C   UNL     1       3.531   6.735  17.732  0.00  0.00    +0.000 A 
ATOM      3  N   UNL     1       4.603   7.463  17.515  0.00  0.00    +0.000 NA
ATOM      4  C   UNL     1       5.663   6.594  17.647  0.00  0.00    +0.000 A 
ATOM      5  C   UNL     1       7.048   6.755  17.476  0.00  0.00    +0.000 A 
ATOM      6  N   UNL     1       7.629   7.935  17.037  0.00  0.00    +0.000 N 
ATOM      7  N   UNL     1       7.859   5.706  17.741  0.00  0.00    +0.000 NA
ATOM      8  C   UNL     1       7.297   4.541  18.115  0.00  0.00    +0.000 A 
ATOM      9  N   UNL     1       5.989   4.256  18.250  0.00  0.00    +0.000 NA
ATOM     10  C   UNL     1       5.224   5.332  18.005  0.00  0.00    +0.000 A 
ATOM     11  N   UNL     1       3.857   5.420  18.004  0.00  0.00    +0.000 N 
ATOM     12  H   UNL     1       1.739   6.892  16.874  0.00  0.00    +0.000 HD
ATOM     13  H   UNL     1       7.047   8.760  17.169  0.00  0.00    +0.000 HD
ATOM     14  H   UNL     1       8.611   7.997  17.268  0.00  0.00    +0.000 HD
ENDROOT
BRANCH  11  15
ATOM     15  C1* UNL     1       2.928   4.322  18.182  0.00  0.00    +0.000 C 
ATOM     16  O4* UNL     1       1.881   4.691  19.111  0.00  0.00    +0.000 OA
ATOM     17  C4* UNL     1       1.655   3.580  20.018  0.00  0.00    +0.000 C 
ATOM     18  C3* UNL     1       2.423   2.391  19.446  0.00  0.00    +0.000 C 
ATOM     19  C2* UNL     1       3.584   3.046  18.712  0.00  0.00    +0.000 C 
BRANCH  18  20
ATOM     20  O3* UNL     1       1.640   1.674  18.471  0.00  0.00    +0.000 OA
ATOM     21  H3* UNL     1       1.574   2.211  17.659  0.00  0.00    +0.000 HD
ENDBRANCH  18  20
BRANCH  19  22
ATOM     22  O2* UNL     1       4.077   2.208  17.665  0.00  0.00    +0.000 OA
ATOM     23  H2* UNL     1       5.003   2.492  17.506  0.00  0.00    +0.000 HD
ENDBRANCH  19  22
BRANCH  17  24
ATOM     24  C5* UNL     1       2.109   3.969  21.428  0.00  0.00    +0.000 C 
BRANCH  24  25
ATOM     25  O5* UNL     1       2.521   2.808  22.145  0.00  0.00    +0.000 OA
ATOM     26  H5* UNL     1       3.433   2.619  21.847  0.00  0.00    +0.000 HD
ENDBRANCH  24  25
ENDBRANCH  17  24
ENDBRANCH  11  15
BRANCH   1  27
ATOM     27  C   UNL     1       2.034   8.587  17.961  0.00  0.00    +0.000 C 
BRANCH  27  32
ATOM     28  C   UNL     1       0.171  10.200  20.891  0.00  0.00    +0.000 A 
ATOM     29  C   UNL     1       0.437   9.285  21.911  0.00  0.00    +0.000 A 
ATOM     30  C   UNL     1       1.179   8.133  21.652  0.00  0.00    +0.000 A 
ATOM     31  C   UNL     1       1.667   7.897  20.367  0.00  0.00    +0.000 A 
ATOM     32  C   UNL     1       1.414   8.803  19.326  0.00  0.00    +0.000 A 
ATOM     33  C   UNL     1       0.652   9.954  19.601  0.00  0.00    +0.000 A 
BRANCH  28  35
ATOM     34  C   UNL     1      -1.071  11.282  22.608  0.00  0.00    +0.000 C 
ATOM     35  O   UNL     1      -0.550  11.295  21.285  0.00  0.00    +0.000 OA
ENDBRANCH  28  35
ENDBRANCH  27  32
ENDBRANCH   1  27
TORSDOF 8
ENDMDL
MODEL 3
REMARK VINA RESULT:      -8.2      0.949      1.644
REMARK  Name = 
REMARK  9 active torsions:
REMARK  status: ('A' for Active; 'I' for Inactive)
REMARK    1  A    between atoms: C_1  and  O_2
REMARK    2  A    between atoms: O_2  and  C_3
REMARK    3  A    between atoms: C_7  and  C_8
REMARK    4  A    between atoms: C_8  and  N_9
REMARK    5  A    between atoms: N_19  and  C1*_20
REMARK    6  A    between atoms: C4*_22  and  C5*_23
REMARK    7  A    between atoms: C5*_23  and  O5*_24
REMARK    8  A    between atoms: C3*_25  and  O3*_26
REMARK    9  A    between atoms: C2*_27  and  O2*_28
REMARK                            x       y       z     vdW  Elec       q    Type
REMARK                         _______ _______ _______ _____ _____    ______ ____
ROOT
ATOM      1  N   UNL     1       2.202   7.273  17.882  0.00  0.00    +0.000 N 
ATOM      2  C   UNL     1       3.463   6.776  17.923  0.00  0.00    +0.000 A 
ATOM      3  N   UNL     1       4.562   7.374  17.520  0.00  0.00    +0.000 NA
ATOM      4  C   UNL     1       5.575   6.478  17.778  0.00  0.00    +0.000 A 
ATOM      5  C   UNL     1       6.956   6.509  17.520  0.00  0.00    +0.000 A 
ATOM      6  N   UNL     1       7.579   7.537  16.829  0.00  0.00    +0.000 N 
ATOM      7  N   UNL     1       7.719   5.480  17.954  0.00  0.00    +0.000 NA
ATOM      8  C   UNL     1       7.112   4.452  18.576  0.00  0.00    +0.000 A 
ATOM      9  N   UNL     1       5.799   4.288  18.821  0.00  0.00    +0.000 NA
ATOM     10  C   UNL     1       5.085   5.344  18.399  0.00  0.00    +0.000 A 
ATOM     11  N   UNL     1       3.728   5.521  18.438  0.00  0.00    +0.000 N 
ATOM     12  H   UNL     1       1.638   6.881  17.128  0.00  0.00    +0.000 HD
ATOM     13  H   UNL     1       7.053   8.410  16.819  0.00  0.00    +0.000 HD
ATOM     14  H   UNL     1       8.574   7.578  17.002  0.00  0.00    +0.000 HD
ENDROOT
BRANCH  11  15
ATOM     15  C1* UNL     1       2.748   4.545  18.870  0.00  0.00    +0.000 C 
ATOM     16  O4* UNL     1       3.332   3.632  19.830  0.00  0.00    +0.000 OA
ATOM     17  C4* UNL     1       2.910   2.282  19.502  0.00  0.00    +0.000 C 
ATOM     18  C3* UNL     1       1.812   2.417  18.450  0.00  0.00    +0.000 C 
ATOM     19  C2* UNL     1       2.177   3.704  17.727  0.00  0.00    +0.000 C 
BRANCH  18  20
ATOM     20  O3* UNL     1       0.517   2.609  19.055  0.00  0.00    +0.000 OA
ATOM     21  H3* UNL     1       0.462   2.068  19.865  0.00  0.00    +0.000 HD
ENDBRANCH  18  20
BRANCH  19  22
ATOM     22  O2* UNL     1       1.030   4.306  17.124  0.00  0.00    +0.000 OA
ATOM     23  H2* UNL     1       0.271   4.078  17.702  0.00  0.00    +0.000 HD
ENDBRANCH  19  22
BRANCH  17  24
ATOM     24  C5* UNL     1       4.115   1.472  19.017  0.00  0.00    +0.000 C 
BRANCH  24  25
ATOM     25  O5* UNL     1       5.174   1.558  19.967  0.00  0.00    +0.000 OA
ATOM     26  H5* UNL     1       5.637   0.698  19.931  0.00  0.00    +0.000 HD
ENDBRANCH  24  25
ENDBRANCH  17  24
ENDBRANCH  11  15
BRANCH   1  27
ATOM     27  C   UNL     1       2.089   8.733  17.841  0.00  0.00    +0.000 C 
BRANCH  27  32
ATOM     28  C   UNL     1      -0.702  10.635  19.643  0.00  0.00    +0.000 A 
ATOM     29  C   UNL     1      -0.473  10.252  20.965  0.00  0.00    +0.000 A 
ATOM     30  C   UNL     1       0.550   9.358  21.276  0.00  0.00    +0.000 A 
ATOM     31  C   UNL     1       1.356   8.845  20.259  0.00  0.00    +0.000 A 
ATOM     32  C   UNL     1       1.146   9.216  18.923  0.00  0.00    +0.000 A 
ATOM     33  C   UNL     1       0.100  10.110  18.624  0.00  0.00    +0.000 A 
BRANCH  28  35
ATOM     34  C   UNL     1      -2.100  11.846  18.146  0.00  0.00    +0.000 C 
ATOM     35  O   UNL     1      -1.723  11.533  19.481  0.00  0.00    +0.000 OA
ENDBRANCH  28  35
ENDBRANCH  27  32
ENDBRANCH   1  27
TORSDOF 8
ENDMDL
MODEL 4
REMARK VINA RESULT:      -8.1      2.662      4.369
REMARK  Name = 
REMARK  9 active torsions:
REMARK  status: ('A' for Active; 'I' for Inactive)
REMARK    1  A    between atoms: C_1  and  O_2
REMARK    2  A    between atoms: O_2  and  C_3
REMARK    3  A    between atoms: C_7  and  C_8
REMARK    4  A    between atoms: C_8  and  N_9
REMARK    5  A    between atoms: N_19  and  C1*_20
REMARK    6  A    between atoms: C4*_22  and  C5*_23
REMARK    7  A    between atoms: C5*_23  and  O5*_24
REMARK    8  A    between atoms: C3*_25  and  O3*_26
REMARK    9  A    between atoms: C2*_27  and  O2*_28
REMARK                            x       y       z     vdW  Elec       q    Type
REMARK                         _______ _______ _______ _____ _____    ______ ____
ROOT
ATOM      1  N   UNL     1       2.702   7.775  17.941  0.00  0.00    +0.000 N 
ATOM      2  C   UNL     1       2.703   6.450  18.226  0.00  0.00    +0.000 A 
ATOM      3  N   UNL     1       1.774   5.779  18.871  0.00  0.00    +0.000 NA
ATOM      4  C   UNL     1       2.222   4.477  18.897  0.00  0.00    +0.000 A 
ATOM      5  C   UNL     1       1.708   3.310  19.487  0.00  0.00    +0.000 A 
ATOM      6  N   UNL     1       0.571   3.295  20.279  0.00  0.00    +0.000 N 
ATOM      7  N   UNL     1       2.359   2.143  19.284  0.00  0.00    +0.000 NA
ATOM      8  C   UNL     1       3.495   2.160  18.561  0.00  0.00    +0.000 A 
ATOM      9  N   UNL     1       4.109   3.221  18.005  0.00  0.00    +0.000 NA
ATOM     10  C   UNL     1       3.413   4.351  18.207  0.00  0.00    +0.000 A 
ATOM     11  N   UNL     1       3.740   5.627  17.829  0.00  0.00    +0.000 N 
ATOM     12  H   UNL     1       3.320   8.318  18.543  0.00  0.00    +0.000 HD
ATOM     13  H   UNL     1      -0.048   4.090  20.134  0.00  0.00    +0.000 HD
ATOM     14  H   UNL     1       0.161   2.374  20.357  0.00  0.00    +0.000 HD
ENDROOT
BRANCH  11  15
ATOM     15  C1* UNL     1       4.975   6.044  17.197  0.00  0.00    +0.000 C 
ATOM     16  O4* UNL     1       4.936   5.766  15.776  0.00  0.00    +0.000 OA
ATOM     17  C4* UNL     1       6.212   5.199  15.380  0.00  0.00    +0.000 C 
ATOM     18  C3* UNL     1       7.154   5.382  16.567  0.00  0.00    +0.000 C 
ATOM     19  C2* UNL     1       6.216   5.354  17.765  0.00  0.00    +0.000 C 
BRANCH  18  20
ATOM     20  O3* UNL     1       7.792   6.675  16.544  0.00  0.00    +0.000 OA
ATOM     21  H3* UNL     1       7.921   6.982  17.461  0.00  0.00    +0.000 HD
ENDBRANCH  18  20
BRANCH  19  22
ATOM     22  O2* UNL     1       6.772   6.055  18.879  0.00  0.00    +0.000 OA
ATOM     23  H2* UNL     1       7.364   5.417  19.331  0.00  0.00    +0.000 HD
ENDBRANCH  19  22
BRANCH  17  24
ATOM     24  C5* UNL     1       6.019   3.732  14.983  0.00  0.00    +0.000 C 
BRANCH  24  25
ATOM     25  O5* UNL     1       6.423   3.537  13.630  0.00  0.00    +0.000 OA
ATOM     26  H5* UNL     1       6.788   4.394  13.333  0.00  0.00    +0.000 HD
ENDBRANCH  24  25
ENDBRANCH  17  24
ENDBRANCH  11  15
BRANCH   1  27
ATOM     27  C   UNL     1       1.388   8.423  17.910  0.00  0.00    +0.000 C 
BRANCH  27  32
ATOM     28  C   UNL     1       0.933  10.116  21.314  0.00  0.00    +0.000 A 
ATOM     29  C   UNL     1       0.952  11.462  20.946  0.00  0.00    +0.000 A 
ATOM     30  C   UNL     1       1.148  11.828  19.615  0.00  0.00    +0.000 A 
ATOM     31  C   UNL     1       1.319  10.844  18.642  0.00  0.00    +0.000 A 
ATOM     32  C   UNL     1       1.303   9.485  18.988  0.00  0.00    +0.000 A 
ATOM     33  C   UNL     1       1.117   9.131  20.338  0.00  0.00    +0.000 A 
BRANCH  28  35
ATOM     34  C   UNL     1      -0.633   9.975  23.099  0.00  0.00    +0.000 C 
ATOM     35  O   UNL     1       0.712   9.895  22.647  0.00  0.00    +0.000 OA
ENDBRANCH  28  35
ENDBRANCH  27  32
ENDBRANCH   1  27
TORSDOF 8
ENDMDL
MODEL 5
REMARK VINA RESULT:      -8.0      3.518      5.303
REMARK  Name = 
REMARK  9 active torsions:
REMARK  status: ('A' for Active; 'I' for Inactive)
REMARK    1  A    between atoms: C_1  and  O_2
REMARK    2  A    between atoms: O_2  and  C_3
REMARK    3  A    between atoms: C_7  and  C_8
REMARK    4  A    between atoms: C_8  and  N_9
REMARK    5  A    between atoms: N_19  and  C1*_20
REMARK    6  A    between atoms: C4*_22  and  C5*_23
REMARK    7  A    between atoms: C5*_23  and  O5*_24
REMARK    8  A    between atoms: C3*_25  and  O3*_26
REMARK    9  A    between atoms: C2*_27  and  O2*_28
REMARK                            x       y       z     vdW  Elec       q    Type
REMARK                         _______ _______ _______ _____ _____    ______ ____
ROOT
ATOM      1  N   UNL     1       4.681   3.911  17.056  0.00  0.00    +0.000 N 
ATOM      2  C   UNL     1       5.344   4.065  15.884  0.00  0.00    +0.000 A 
ATOM      3  N   UNL     1       4.978   3.618  14.703  0.00  0.00    +0.000 NA
ATOM      4  C   UNL     1       5.965   4.035  13.837  0.00  0.00    +0.000 A 
ATOM      5  C   UNL     1       6.173   3.823  12.464  0.00  0.00    +0.000 A 
ATOM      6  N   UNL     1       5.357   3.014  11.687  0.00  0.00    +0.000 N 
ATOM      7  N   UNL     1       7.227   4.424  11.869  0.00  0.00    +0.000 NA
ATOM      8  C   UNL     1       8.054   5.166  12.629  0.00  0.00    +0.000 A 
ATOM      9  N   UNL     1       7.988   5.387  13.955  0.00  0.00    +0.000 NA
ATOM     10  C   UNL     1       6.912   4.795  14.498  0.00  0.00    +0.000 A 
ATOM     11  N   UNL     1       6.536   4.762  15.815  0.00  0.00    +0.000 N 
ATOM     12  H   UNL     1       5.092   3.202  17.662  0.00  0.00    +0.000 HD
ATOM     13  H   UNL     1       4.429   2.862  12.077  0.00  0.00    +0.000 HD
ATOM     14  H   UNL     1       5.437   3.213  10.699  0.00  0.00    +0.000 HD
ENDROOT
BRANCH  11  15
ATOM     15  C1* UNL     1       7.286   5.296  16.935  0.00  0.00    +0.000 C 
ATOM     16  O4* UNL     1       7.277   4.362  18.041  0.00  0.00    +0.000 OA
ATOM     17  C4* UNL     1       7.040   5.100  19.268  0.00  0.00    +0.000 C 
ATOM     18  C3* UNL     1       7.169   6.579  18.914  0.00  0.00    +0.000 C 
ATOM     19  C2* UNL     1       6.743   6.628  17.455  0.00  0.00    +0.000 C 
BRANCH  18  20
ATOM     20  O3* UNL     1       8.538   7.025  18.984  0.00  0.00    +0.000 OA
ATOM     21  H3* UNL     1       8.663   7.767  18.363  0.00  0.00    +0.000 HD
ENDBRANCH  18  20
BRANCH  19  22
ATOM     22  O2* UNL     1       7.314   7.752  16.783  0.00  0.00    +0.000 OA
ATOM     23  H2* UNL     1       7.917   8.176  17.431  0.00  0.00    +0.000 HD
ENDBRANCH  19  22
BRANCH  17  24
ATOM     24  C5* UNL     1       5.665   4.731  19.830  0.00  0.00    +0.000 C 
BRANCH  24  25
ATOM     25  O5* UNL     1       5.439   3.330  19.688  0.00  0.00    +0.000 OA
ATOM     26  H5* UNL     1       4.584   3.151  20.127  0.00  0.00    +0.000 HD
ENDBRANCH  24  25
ENDBRANCH  17  24
ENDBRANCH  11  15
BRANCH   1  27
ATOM     27  C   UNL     1       3.242   3.659  16.950  0.00  0.00    +0.000 C 
BRANCH  27  32
ATOM     28  C   UNL     1       2.079   6.203  19.564  0.00  0.00    +0.000 A 
ATOM     29  C   UNL     1       1.313   5.391  20.402  0.00  0.00    +0.000 A 
ATOM     30  C   UNL     1       1.138   4.039  20.110  0.00  0.00    +0.000 A 
ATOM     31  C   UNL     1       1.738   3.490  18.977  0.00  0.00    +0.000 A 
ATOM     32  C   UNL     1       2.513   4.286  18.120  0.00  0.00    +0.000 A 
ATOM     33  C   UNL     1       2.669   5.652  18.421  0.00  0.00    +0.000 A 
BRANCH  28  35
ATOM     34  C   UNL     1       1.304   7.927  21.008  0.00  0.00    +0.000 C 
ATOM     35  O   UNL     1       2.186   7.504  19.977  0.00  0.00    +0.000 OA
ENDBRANCH  28  35
ENDBRANCH  27  32
ENDBRANCH   1  27
TORSDOF 8
ENDMDL
MODEL 6
REMARK VINA RESULT:      -7.9      1.911      2.610
REMARK  Name = 
REMARK  9 active torsions:
REMARK  status: ('A' for Active; 'I' for Inactive)
REMARK    1  A    between atoms: C_1  and  O_2
REMARK    2  A    between atoms: O_2  and  C_3
REMARK    3  A    between atoms: C_7  and  C_8
REMARK    4  A    between atoms: C_8  and  N_9
REMARK    5  A    between atoms: N_19  and  C1*_20
REMARK    6  A    between atoms: C4*_22  and  C5*_23
REMARK    7  A    between atoms: C5*_23  and  O5*_24
REMARK    8  A    between atoms: C3*_25  and  O3*_26
REMARK    9  A    between atoms: C2*_27  and  O2*_28
REMARK                            x       y       z     vdW  Elec       q    Type
REMARK                         _______ _______ _______ _____ _____    ______ ____
ROOT
ATOM      1  N   UNL     1       1.923   7.800  17.814  0.00  0.00    +0.000 N 
ATOM      2  C   UNL     1       3.103   7.134  17.769  0.00  0.00    +0.000 A 
ATOM      3  N   UNL     1       4.282   7.634  17.476  0.00  0.00    +0.000 NA
ATOM      4  C   UNL     1       5.158   6.576  17.576  0.00  0.00    +0.000 A 
ATOM      5  C   UNL     1       6.536   6.460  17.328  0.00  0.00    +0.000 A 
ATOM      6  N   UNL     1       7.309   7.496  16.825  0.00  0.00    +0.000 N 
ATOM      7  N   UNL     1       7.141   5.277  17.578  0.00  0.00    +0.000 NA
ATOM      8  C   UNL     1       6.386   4.251  18.013  0.00  0.00    +0.000 A 
ATOM      9  N   UNL     1       5.057   4.230  18.225  0.00  0.00    +0.000 NA
ATOM     10  C   UNL     1       4.504   5.432  17.991  0.00  0.00    +0.000 A 
ATOM     11  N   UNL     1       3.182   5.785  18.060  0.00  0.00    +0.000 N 
ATOM     12  H   UNL     1       1.330   7.624  17.003  0.00  0.00    +0.000 HD
ATOM     13  H   UNL     1       6.908   8.421  16.966  0.00  0.00    +0.000 HD
ATOM     14  H   UNL     1       8.297   7.368  17.003  0.00  0.00    +0.000 HD
ENDROOT
BRANCH  11  15
ATOM     15  C1* UNL     1       2.068   4.894  18.316  0.00  0.00    +0.000 C 
ATOM     16  O4* UNL     1       1.496   5.160  19.619  0.00  0.00    +0.000 OA
ATOM     17  C4* UNL     1       1.234   3.894  20.278  0.00  0.00    +0.000 C 
ATOM     18  C3* UNL     1       1.418   2.810  19.219  0.00  0.00    +0.000 C 
ATOM     19  C2* UNL     1       2.450   3.413  18.278  0.00  0.00    +0.000 C 
BRANCH  18  20
ATOM     20  O3* UNL     1       0.210   2.596  18.463  0.00  0.00    +0.000 OA
ATOM     21  H3* UNL     1       0.424   2.081  17.661  0.00  0.00    +0.000 HD
ENDBRANCH  18  20
BRANCH  19  22
ATOM     22  O2* UNL     1       2.347   2.854  16.966  0.00  0.00    +0.000 OA
ATOM     23  H2* UNL     1       2.715   1.947  17.030  0.00  0.00    +0.000 HD
ENDBRANCH  19  22
BRANCH  17  24
ATOM     24  C5* UNL     1       2.175   3.735  21.475  0.00  0.00    +0.000 C 
BRANCH  24  25
ATOM     25  O5* UNL     1       1.856   2.544  22.192  0.00  0.00    +0.000 OA
ATOM     26  H5* UNL     1       1.130   2.785  22.801  0.00  0.00    +0.000 HD
ENDBRANCH  24  25
ENDBRANCH  17  24
ENDBRANCH  11  15
BRANCH   1  27
ATOM     27  C   UNL     1       2.011   9.247  18.026  0.00  0.00    +0.000 C 
BRANCH  27  32
ATOM     28  C   UNL     1      -1.689  10.190  17.740  0.00  0.00    +0.000 A 
ATOM     29  C   UNL     1      -1.836  11.025  18.848  0.00  0.00    +0.000 A 
ATOM     30  C   UNL     1      -0.763  11.256  19.708  0.00  0.00    +0.000 A 
ATOM     31  C   UNL     1       0.469  10.654  19.455  0.00  0.00    +0.000 A 
ATOM     32  C   UNL     1       0.643   9.812  18.347  0.00  0.00    +0.000 A 
ATOM     33  C   UNL     1      -0.454   9.579  17.496  0.00  0.00    +0.000 A 
BRANCH  28  35
ATOM     34  C   UNL     1      -2.806  10.721  15.707  0.00  0.00    +0.000 C 
ATOM     35  O   UNL     1      -2.814  10.066  16.969  0.00  0.00    +0.000 OA
ENDBRANCH  28  35
ENDBRANCH  27  32
ENDBRANCH   1  27
TORSDOF 8
ENDMDL
MODEL 7
REMARK VINA RESULT:      -7.8      1.140      1.308
REMARK  Name = 
REMARK  9 active torsions:
REMARK  status: ('A' for Active; 'I' for Inactive)
REMARK    1  A    between atoms: C_1  and  O_2
REMARK    2  A    between atoms: O_2  and  C_3
REMARK    3  A    between atoms: C_7  and  C_8
REMARK    4  A    between atoms: C_8  and  N_9
REMARK    5  A    between atoms: N_19  and  C1*_20
REMARK    6  A    between atoms: C4*_22  and  C5*_23
REMARK    7  A    between atoms: C5*_23  and  O5*_24
REMARK    8  A    between atoms: C3*_25  and  O3*_26
REMARK    9  A    between atoms: C2*_27  and  O2*_28
REMARK                            x       y       z     vdW  Elec       q    Type
REMARK                         _______ _______ _______ _____ _____    ______ ____
ROOT
ATOM      1  N   UNL     1       2.003   7.676  17.719  0.00  0.00    +0.000 N 
ATOM      2  C   UNL     1       3.182   7.008  17.734  0.00  0.00    +0.000 A 
ATOM      3  N   UNL     1       4.362   7.476  17.395  0.00  0.00    +0.000 NA
ATOM      4  C   UNL     1       5.236   6.430  17.590  0.00  0.00    +0.000 A 
ATOM      5  C   UNL     1       6.614   6.289  17.352  0.00  0.00    +0.000 A 
ATOM      6  N   UNL     1       7.388   7.273  16.755  0.00  0.00    +0.000 N 
ATOM      7  N   UNL     1       7.217   5.133  17.709  0.00  0.00    +0.000 NA
ATOM      8  C   UNL     1       6.460   4.153  18.238  0.00  0.00    +0.000 A 
ATOM      9  N   UNL     1       5.132   4.154  18.453  0.00  0.00    +0.000 NA
ATOM     10  C   UNL     1       4.581   5.330  18.110  0.00  0.00    +0.000 A 
ATOM     11  N   UNL     1       3.259   5.691  18.148  0.00  0.00    +0.000 N 
ATOM     12  H   UNL     1       1.408   7.428  16.929  0.00  0.00    +0.000 HD
ATOM     13  H   UNL     1       6.988   8.208  16.811  0.00  0.00    +0.000 HD
ATOM     14  H   UNL     1       8.375   7.160  16.942  0.00  0.00    +0.000 HD
ENDROOT
BRANCH  11  15
ATOM     15  C1* UNL     1       2.145   4.829  18.487  0.00  0.00    +0.000 C 
ATOM     16  O4* UNL     1       1.624   5.166  19.796  0.00  0.00    +0.000 OA
ATOM     17  C4* UNL     1       1.370   3.936  20.524  0.00  0.00    +0.000 C 
ATOM     18  C3* UNL     1       1.502   2.800  19.513  0.00  0.00    +0.000 C 
ATOM     19  C2* UNL     1       2.505   3.342  18.507  0.00  0.00    +0.000 C 
BRANCH  18  20
ATOM     20  O3* UNL     1       0.264   2.568  18.811  0.00  0.00    +0.000 OA
ATOM     21  H3* UNL     1       0.139   1.606  18.697  0.00  0.00    +0.000 HD
ENDBRANCH  18  20
BRANCH  19  22
ATOM     22  O2* UNL     1       2.348   2.723  17.228  0.00  0.00    +0.000 OA
ATOM     23  H2* UNL     1       3.201   2.277  17.038  0.00  0.00    +0.000 HD
ENDBRANCH  19  22
BRANCH  17  24
ATOM     24  C5* UNL     1       2.352   3.821  21.693  0.00  0.00    +0.000 C 
BRANCH  24  25
ATOM     25  O5* UNL     1       2.572   2.449  22.011  0.00  0.00    +0.000 OA
ATOM     26  H5* UNL     1       1.684   2.045  22.083  0.00  0.00    +0.000 HD
ENDBRANCH  24  25
ENDBRANCH  17  24
ENDBRANCH  11  15
BRANCH   1  27
ATOM     27  C   UNL     1       2.094   9.137  17.797  0.00  0.00    +0.000 C 
BRANCH  27  32
ATOM     28  C   UNL     1       0.127   9.438  21.068  0.00  0.00    +0.000 A 
ATOM     29  C   UNL     1      -0.696  10.529  20.783  0.00  0.00    +0.000 A 
ATOM     30  C   UNL     1      -0.594  11.191  19.561  0.00  0.00    +0.000 A 
ATOM     31  C   UNL     1       0.330  10.757  18.611  0.00  0.00    +0.000 A 
ATOM     32  C   UNL     1       1.166   9.662  18.873  0.00  0.00    +0.000 A 
ATOM     33  C   UNL     1       1.061   9.012  20.118  0.00  0.00    +0.000 A 
BRANCH  28  35
ATOM     34  C   UNL     1      -0.448   9.741  23.356  0.00  0.00    +0.000 C 
ATOM     35  O   UNL     1      -0.090   8.868  22.294  0.00  0.00    +0.000 OA
ENDBRANCH  28  35
ENDBRANCH  27  32
ENDBRANCH   1  27
TORSDOF 8
ENDMDL
MODEL 8
REMARK VINA RESULT:      -7.8      2.655      4.303
REMARK  Name = 
REMARK  9 active torsions:
REMARK  status: ('A' for Active; 'I' for Inactive)
REMARK    1  A    between atoms: C_1  and  O_2
REMARK    2  A    between atoms: O_2  and  C_3
REMARK    3  A    between atoms: C_7  and  C_8
REMARK    4  A    between atoms: C_8  and  N_9
REMARK    5  A    between atoms: N_19  and  C1*_20
REMARK    6  A    between atoms: C4*_22  and  C5*_23
REMARK    7  A    between atoms: C5*_23  and  O5*_24
REMARK    8  A    between atoms: C3*_25  and  O3*_26
REMARK    9  A    between atoms: C2*_27  and  O2*_28
REMARK                            x       y       z     vdW  Elec       q    Type
REMARK                         _______ _______ _______ _____ _____    ______ ____
ROOT
ATOM      1  N   UNL     1       2.828   7.491  18.455  0.00  0.00    +0.000 N 
ATOM      2  C   UNL     1       3.061   6.264  18.983  0.00  0.00    +0.000 A 
ATOM      3  N   UNL     1       2.308   5.618  19.845  0.00  0.00    +0.000 NA
ATOM      4  C   UNL     1       2.955   4.421  20.063  0.00  0.00    +0.000 A 
ATOM      5  C   UNL     1       2.683   3.339  20.917  0.00  0.00    +0.000 A 
ATOM      6  N   UNL     1       1.635   3.330  21.825  0.00  0.00    +0.000 N 
ATOM      7  N   UNL     1       3.489   2.255  20.864  0.00  0.00    +0.000 NA
ATOM      8  C   UNL     1       4.541   2.280  20.024  0.00  0.00    +0.000 A 
ATOM      9  N   UNL     1       4.931   3.279  19.211  0.00  0.00    +0.000 NA
ATOM     10  C   UNL     1       4.087   4.322  19.276  0.00  0.00    +0.000 A 
ATOM     11  N   UNL     1       4.176   5.526  18.630  0.00  0.00    +0.000 N 
ATOM     12  H   UNL     1       3.403   8.224  18.869  0.00  0.00    +0.000 HD
ATOM     13  H   UNL     1       0.889   3.987  21.605  0.00  0.00    +0.000 HD
ATOM     14  H   UNL     1       1.382   2.397  22.120  0.00  0.00    +0.000 HD
ENDROOT
BRANCH  11  15
ATOM     15  C1* UNL     1       5.272   5.971  17.792  0.00  0.00    +0.000 C 
ATOM     16  O4* UNL     1       4.822   6.162  16.429  0.00  0.00    +0.000 OA
ATOM     17  C4* UNL     1       5.814   5.600  15.531  0.00  0.00    +0.000 C 
ATOM     18  C3* UNL     1       7.040   5.286  16.384  0.00  0.00    +0.000 C 
ATOM     19  C2* UNL     1       6.448   4.994  17.754  0.00  0.00    +0.000 C 
BRANCH  18  20
ATOM     20  O3* UNL     1       7.902   6.434  16.518  0.00  0.00    +0.000 OA
ATOM     21  H3* UNL     1       7.814   6.794  17.421  0.00  0.00    +0.000 HD
ENDBRANCH  18  20
BRANCH  19  22
ATOM     22  O2* UNL     1       7.396   5.236  18.794  0.00  0.00    +0.000 OA
ATOM     23  H2* UNL     1       8.256   5.386  18.346  0.00  0.00    +0.000 HD
ENDBRANCH  19  22
BRANCH  17  24
ATOM     24  C5* UNL     1       5.233   4.368  14.832  0.00  0.00    +0.000 C 
BRANCH  24  25
ATOM     25  O5* UNL     1       6.278   3.455  14.506  0.00  0.00    +0.000 OA
ATOM     26  H5* UNL     1       5.918   2.877  13.804  0.00  0.00    +0.000 HD
ENDBRANCH  24  25
ENDBRANCH  17  24
ENDBRANCH  11  15
BRANCH   1  27
ATOM     27  C   UNL     1       1.432   7.934  18.455  0.00  0.00    +0.000 C 
BRANCH  27  32
ATOM     28  C   UNL     1       0.647  10.647  21.040  0.00  0.00    +0.000 A 
ATOM     29  C   UNL     1       0.908  11.801  20.300  0.00  0.00    +0.000 A 
ATOM     30  C   UNL     1       1.371  11.711  18.989  0.00  0.00    +0.000 A 
ATOM     31  C   UNL     1       1.568  10.459  18.407  0.00  0.00    +0.000 A 
ATOM     32  C   UNL     1       1.311   9.285  19.129  0.00  0.00    +0.000 A 
ATOM     33  C   UNL     1       0.857   9.393  20.457  0.00  0.00    +0.000 A 
BRANCH  28  35
ATOM     34  C   UNL     1      -0.216   9.742  23.064  0.00  0.00    +0.000 C 
ATOM     35  O   UNL     1       0.178  10.877  22.306  0.00  0.00    +0.000 OA
ENDBRANCH  28  35
ENDBRANCH  27  32
ENDBRANCH   1  27
TORSDOF 8
ENDMDL
MODEL 9
REMARK VINA RESULT:      -7.7      1.443      2.090
REMARK  Name = 
REMARK  9 active torsions:
REMARK  status: ('A' for Active; 'I' for Inactive)
REMARK    1  A    between atoms: C_1  and  O_2
REMARK    2  A    between atoms: O_2  and  C_3
REMARK    3  A    between atoms: C_7  and  C_8
REMARK    4  A    between atoms: C_8  and  N_9
REMARK    5  A    between atoms: N_19  and  C1*_20
REMARK    6  A    between atoms: C4*_22  and  C5*_23
REMARK    7  A    between atoms: C5*_23  and  O5*_24
REMARK    8  A    between atoms: C3*_25  and  O3*_26
REMARK    9  A    between atoms: C2*_27  and  O2*_28
REMARK                            x       y       z     vdW  Elec       q    Type
REMARK                         _______ _______ _______ _____ _____    ______ ____
ROOT
ATOM      1  N   UNL     1       2.413   6.634  18.915  0.00  0.00    +0.000 N 
ATOM      2  C   UNL     1       3.579   6.359  18.282  0.00  0.00    +0.000 A 
ATOM      3  N   UNL     1       4.603   7.166  18.123  0.00  0.00    +0.000 NA
ATOM      4  C   UNL     1       5.541   6.430  17.433  0.00  0.00    +0.000 A 
ATOM      5  C   UNL     1       6.808   6.752  16.919  0.00  0.00    +0.000 A 
ATOM      6  N   UNL     1       7.351   8.027  16.976  0.00  0.00    +0.000 N 
ATOM      7  N   UNL     1       7.533   5.778  16.326  0.00  0.00    +0.000 NA
ATOM      8  C   UNL     1       6.988   4.551  16.218  0.00  0.00    +0.000 A 
ATOM      9  N   UNL     1       5.768   4.146  16.616  0.00  0.00    +0.000 NA
ATOM     10  C   UNL     1       5.096   5.138  17.223  0.00  0.00    +0.000 A 
ATOM     11  N   UNL     1       3.820   5.118  17.721  0.00  0.00    +0.000 N 
ATOM     12  H   UNL     1       1.638   6.810  18.275  0.00  0.00    +0.000 HD
ATOM     13  H   UNL     1       6.942   8.622  17.694  0.00  0.00    +0.000 HD
ATOM     14  H   UNL     1       8.356   8.029  16.865  0.00  0.00    +0.000 HD
ENDROOT
BRANCH  11  15
ATOM     15  C1* UNL     1       2.875   4.025  17.613  0.00  0.00    +0.000 C 
ATOM     16  O4* UNL     1       1.554   4.456  18.020  0.00  0.00    +0.000 OA
ATOM     17  C4* UNL     1       0.968   3.425  18.858  0.00  0.00    +0.000 C 
ATOM     18  C3* UNL     1       1.876   2.204  18.739  0.00  0.00    +0.000 C 
ATOM     19  C2* UNL     1       3.244   2.811  18.468  0.00  0.00    +0.000 C 
BRANCH  18  20
ATOM     20  O3* UNL     1       1.527   1.390  17.602  0.00  0.00    +0.000 OA
ATOM     21  H3* UNL     1       2.276   0.802  17.389  0.00  0.00    +0.000 HD
ENDBRANCH  18  20
BRANCH  19  22
ATOM     22  O2* UNL     1       4.094   1.893  17.777  0.00  0.00    +0.000 OA
ATOM     23  H2* UNL     1       3.743   0.999  17.977  0.00  0.00    +0.000 HD
ENDBRANCH  19  22
BRANCH  17  24
ATOM     24  C5* UNL     1       0.838   3.944  20.292  0.00  0.00    +0.000 C 
BRANCH  24  25
ATOM     25  O5* UNL     1       0.824   2.850  21.207  0.00  0.00    +0.000 OA
ATOM     26  H5* UNL     1      -0.021   2.383  21.053  0.00  0.00    +0.000 HD
ENDBRANCH  24  25
ENDBRANCH  17  24
ENDBRANCH  11  15
BRANCH   1  27
ATOM     27  C   UNL     1       2.460   7.715  19.902  0.00  0.00    +0.000 C 
BRANCH  27  32
ATOM     28  C   UNL     1      -0.268  10.377  20.268  0.00  0.00    +0.000 A 
ATOM     29  C   UNL     1      -0.603  10.599  18.931  0.00  0.00    +0.000 A 
ATOM     30  C   UNL     1       0.069   9.926  17.913  0.00  0.00    +0.000 A 
ATOM     31  C   UNL     1       1.079   9.018  18.230  0.00  0.00    +0.000 A 
ATOM     32  C   UNL     1       1.433   8.777  19.565  0.00  0.00    +0.000 A 
ATOM     33  C   UNL     1       0.754   9.475  20.582  0.00  0.00    +0.000 A 
BRANCH  28  35
ATOM     34  C   UNL     1      -0.813  10.803  22.544  0.00  0.00    +0.000 C 
ATOM     35  O   UNL     1      -1.018  11.087  21.167  0.00  0.00    +0.000 OA
ENDBRANCH  28  35
ENDBRANCH  27  32
ENDBRANCH   1  27
TORSDOF 8
ENDMDL
