MODEL 1
REMARK VINA RESULT:      -7.5      0.000      0.000
REMARK  Name = 
REMARK  6 active torsions:
REMARK  status: ('A' for Active; 'I' for Inactive)
REMARK    1  A    between atoms: C_1  and  C_2
REMARK    2  A    between atoms: C_4  and  C_5
REMARK    3  A    between atoms: N_7  and  C_8
REMARK    4  A    between atoms: C_8  and  C_9
REMARK    5  A    between atoms: C_9  and  N_10
REMARK    6  A    between atoms: N_10  and  C_11
REMARK                            x       y       z     vdW  Elec       q    Type
REMARK                         _______ _______ _______ _____ _____    ______ ____
ROOT
ATOM      1  C   UNL     1       6.746   5.674  16.111  0.00  0.00    +0.000 C 
ATOM      2  O   UNL     1       6.201   6.756  16.301  0.00  0.00    +0.000 OA
ATOM      3  N   UNL     1       7.421   5.000  17.099  0.00  0.00    +0.000 N 
ATOM      4  H   UNL     1       7.959   4.183  16.847  0.00  0.00    +0.000 HD
ENDROOT
BRANCH   1   8
ATOM      5  C   UNL     1       5.910   2.896  11.931  0.00  0.00    +0.000 C 
ATOM      6  C   UNL     1       6.400   3.841  12.964  0.00  0.00    +0.000 A 
ATOM      7  C   UNL     1       5.919   4.026  14.279  0.00  0.00    +0.000 A 
ATOM      8  C   UNL     1       6.709   5.016  14.830  0.00  0.00    +0.000 A 
ATOM      9  N   UNL     1       7.592   5.350  13.836  0.00  0.00    +0.000 N 
ATOM     10  N   UNL     1       7.424   4.657  12.698  0.00  0.00    +0.000 NA
ATOM     11  H   UNL     1       8.324   6.050  13.885  0.00  0.00    +0.000 HD
ENDBRANCH   1   8
BRANCH   3  12
ATOM     12  C   UNL     1       7.605   5.571  18.426  0.00  0.00    +0.000 C 
BRANCH  12  13
ATOM     13  C   UNL     1       6.436   5.233  19.355  0.00  0.00    +0.000 C 
BRANCH  13  14
ATOM     14  N   UNL     1       5.760   3.999  18.961  0.00  0.00    +0.000 N 
ATOM     15  H   UNL     1       5.899   3.209  19.587  0.00  0.00    +0.000 HD
BRANCH  14  16
ATOM     16  C   UNL     1       4.451   4.065  18.473  0.00  0.00    +0.000 A 
ATOM     17  C   UNL     1       3.785   2.972  17.904  0.00  0.00    +0.000 A 
ATOM     18  C   UNL     1       2.448   3.056  17.503  0.00  0.00    +0.000 A 
ATOM     19  C   UNL     1       1.735   4.232  17.696  0.00  0.00    +0.000 A 
ATOM     20  C   UNL     1       2.364   5.322  18.288  0.00  0.00    +0.000 A 
ATOM     21  C   UNL     1       3.704   5.233  18.680  0.00  0.00    +0.000 A 
ENDBRANCH  14  16
ENDBRANCH  13  14
ENDBRANCH  12  13
ENDBRANCH   3  12
TORSDOF 5
ENDMDL
MODEL 2
REMARK VINA RESULT:      -7.5      0.772      1.036
REMARK  Name = 
REMARK  6 active torsions:
REMARK  status: ('A' for Active; 'I' for Inactive)
REMARK    1  A    between atoms: C_1  and  C_2
REMARK    2  A    between atoms: C_4  and  C_5
REMARK    3  A    between atoms: N_7  and  C_8
REMARK    4  A    between atoms: C_8  and  C_9
REMARK    5  A    between atoms: C_9  and  N_10
REMARK    6  A    between atoms: N_10  and  C_11
REMARK                            x       y       z     vdW  Elec       q    Type
REMARK                         _______ _______ _______ _____ _____    ______ ____
ROOT
ATOM      1  C   UNL     1       6.802   5.586  16.065  0.00  0.00    +0.000 C 
ATOM      2  O   UNL     1       6.342   6.707  16.255  0.00  0.00    +0.000 OA
ATOM      3  N   UNL     1       7.391   4.847  17.063  0.00  0.00    +0.000 N 
ATOM      4  H   UNL     1       7.867   3.992  16.814  0.00  0.00    +0.000 HD
ENDROOT
BRANCH   1   8
ATOM      5  C   UNL     1       5.935   2.853  11.863  0.00  0.00    +0.000 C 
ATOM      6  C   UNL     1       6.424   3.796  12.898  0.00  0.00    +0.000 A 
ATOM      7  C   UNL     1       5.976   3.942  14.229  0.00  0.00    +0.000 A 
ATOM      8  C   UNL     1       6.749   4.949  14.775  0.00  0.00    +0.000 A 
ATOM      9  N   UNL     1       7.592   5.329  13.761  0.00  0.00    +0.000 N 
ATOM     10  N   UNL     1       7.413   4.649  12.617  0.00  0.00    +0.000 NA
ATOM     11  H   UNL     1       8.302   6.051  13.802  0.00  0.00    +0.000 HD
ENDBRANCH   1   8
BRANCH   3  12
ATOM     12  C   UNL     1       7.582   5.385  18.401  0.00  0.00    +0.000 C 
BRANCH  12  13
ATOM     13  C   UNL     1       6.358   5.142  19.290  0.00  0.00    +0.000 C 
BRANCH  13  14
ATOM     14  N   UNL     1       5.736   3.847  19.025  0.00  0.00    +0.000 N 
ATOM     15  H   UNL     1       6.095   3.072  19.576  0.00  0.00    +0.000 HD
BRANCH  14  16
ATOM     16  C   UNL     1       4.349   3.781  18.856  0.00  0.00    +0.000 A 
ATOM     17  C   UNL     1       3.673   4.385  17.787  0.00  0.00    +0.000 A 
ATOM     18  C   UNL     1       2.296   4.226  17.607  0.00  0.00    +0.000 A 
ATOM     19  C   UNL     1       1.566   3.428  18.479  0.00  0.00    +0.000 A 
ATOM     20  C   UNL     1       2.218   2.793  19.530  0.00  0.00    +0.000 A 
ATOM     21  C   UNL     1       3.596   2.961  19.708  0.00  0.00    +0.000 A 
ENDBRANCH  14  16
ENDBRANCH  13  14
ENDBRANCH  12  13
ENDBRANCH   3  12
TORSDOF 5
ENDMDL
MODEL 3
REMARK VINA RESULT:      -7.3      1.445      1.587
REMARK  Name = 
REMARK  6 active torsions:
REMARK  status: ('A' for Active; 'I' for Inactive)
REMARK    1  A    between atoms: C_1  and  C_2
REMARK    2  A    between atoms: C_4  and  C_5
REMARK    3  A    between atoms: N_7  and  C_8
REMARK    4  A    between atoms: C_8  and  C_9
REMARK    5  A    between atoms: C_9  and  N_10
REMARK    6  A    between atoms: N_10  and  C_11
REMARK                            x       y       z     vdW  Elec       q    Type
REMARK                         _______ _______ _______ _____ _____    ______ ____
ROOT
ATOM      1  C   UNL     1       6.876   5.155  16.578  0.00  0.00    +0.000 C 
ATOM      2  O   UNL     1       7.551   6.117  16.925  0.00  0.00    +0.000 OA
ATOM      3  N   UNL     1       6.142   4.405  17.466  0.00  0.00    +0.000 N 
ATOM      4  H   UNL     1       5.716   3.550  17.140  0.00  0.00    +0.000 HD
ENDROOT
BRANCH   1   8
ATOM      5  C   UNL     1       5.908   3.141  12.008  0.00  0.00    +0.000 C 
ATOM      6  C   UNL     1       6.418   3.907  13.170  0.00  0.00    +0.000 A 
ATOM      7  C   UNL     1       6.011   3.823  14.520  0.00  0.00    +0.000 A 
ATOM      8  C   UNL     1       6.789   4.739  15.202  0.00  0.00    +0.000 A 
ATOM      9  N   UNL     1       7.594   5.296  14.241  0.00  0.00    +0.000 N 
ATOM     10  N   UNL     1       7.387   4.813  13.006  0.00  0.00    +0.000 NA
ATOM     11  H   UNL     1       8.296   6.015  14.381  0.00  0.00    +0.000 HD
ENDBRANCH   1   8
BRANCH   3  12
ATOM     12  C   UNL     1       6.185   4.659  18.899  0.00  0.00    +0.000 C 
BRANCH  12  13
ATOM     13  C   UNL     1       5.000   5.511  19.360  0.00  0.00    +0.000 C 
BRANCH  13  14
ATOM     14  N   UNL     1       3.859   5.401  18.454  0.00  0.00    +0.000 N 
ATOM     15  H   UNL     1       4.094   5.288  17.471  0.00  0.00    +0.000 HD
BRANCH  14  16
ATOM     16  C   UNL     1       2.764   4.615  18.830  0.00  0.00    +0.000 A 
ATOM     17  C   UNL     1       2.296   3.532  18.073  0.00  0.00    +0.000 A 
ATOM     18  C   UNL     1       1.251   2.720  18.524  0.00  0.00    +0.000 A 
ATOM     19  C   UNL     1       0.671   2.954  19.764  0.00  0.00    +0.000 A 
ATOM     20  C   UNL     1       1.139   4.003  20.548  0.00  0.00    +0.000 A 
ATOM     21  C   UNL     1       2.180   4.816  20.089  0.00  0.00    +0.000 A 
ENDBRANCH  14  16
ENDBRANCH  13  14
ENDBRANCH  12  13
ENDBRANCH   3  12
TORSDOF 5
ENDMDL
MODEL 4
REMARK VINA RESULT:      -7.2      1.227      1.344
REMARK  Name = 
REMARK  6 active torsions:
REMARK  status: ('A' for Active; 'I' for Inactive)
REMARK    1  A    between atoms: C_1  and  C_2
REMARK    2  A    between atoms: C_4  and  C_5
REMARK    3  A    between atoms: N_7  and  C_8
REMARK    4  A    between atoms: C_8  and  C_9
REMARK    5  A    between atoms: C_9  and  N_10
REMARK    6  A    between atoms: N_10  and  C_11
REMARK                            x       y       z     vdW  Elec       q    Type
REMARK                         _______ _______ _______ _____ _____    ______ ____
ROOT
ATOM      1  C   UNL     1       6.643   5.433  16.191  0.00  0.00    +0.000 C 
ATOM      2  O   UNL     1       6.404   6.620  16.384  0.00  0.00    +0.000 OA
ATOM      3  N   UNL     1       6.915   4.556  17.214  0.00  0.00    +0.000 N 
ATOM      4  H   UNL     1       7.233   3.626  16.981  0.00  0.00    +0.000 HD
ENDROOT
BRANCH   1   8
ATOM      5  C   UNL     1       5.958   2.909  11.828  0.00  0.00    +0.000 C 
ATOM      6  C   UNL     1       6.402   3.800  12.927  0.00  0.00    +0.000 A 
ATOM      7  C   UNL     1       5.898   3.881  14.244  0.00  0.00    +0.000 A 
ATOM      8  C   UNL     1       6.645   4.860  14.870  0.00  0.00    +0.000 A 
ATOM      9  N   UNL     1       7.528   5.289  13.913  0.00  0.00    +0.000 N 
ATOM     10  N   UNL     1       7.399   4.667  12.730  0.00  0.00    +0.000 NA
ATOM     11  H   UNL     1       8.234   6.009  14.019  0.00  0.00    +0.000 HD
ENDBRANCH   1   8
BRANCH   3  12
ATOM     12  C   UNL     1       7.018   5.001  18.596  0.00  0.00    +0.000 C 
BRANCH  12  13
ATOM     13  C   UNL     1       5.699   4.816  19.351  0.00  0.00    +0.000 C 
BRANCH  13  14
ATOM     14  N   UNL     1       5.194   3.449  19.247  0.00  0.00    +0.000 N 
ATOM     15  H   UNL     1       5.707   2.755  19.786  0.00  0.00    +0.000 HD
BRANCH  14  16
ATOM     16  C   UNL     1       3.813   3.229  19.277  0.00  0.00    +0.000 A 
ATOM     17  C   UNL     1       3.129   2.779  20.415  0.00  0.00    +0.000 A 
ATOM     18  C   UNL     1       1.737   2.650  20.430  0.00  0.00    +0.000 A 
ATOM     19  C   UNL     1       0.991   3.003  19.312  0.00  0.00    +0.000 A 
ATOM     20  C   UNL     1       1.644   3.482  18.181  0.00  0.00    +0.000 A 
ATOM     21  C   UNL     1       3.038   3.602  18.170  0.00  0.00    +0.000 A 
ENDBRANCH  14  16
ENDBRANCH  13  14
ENDBRANCH  12  13
ENDBRANCH   3  12
TORSDOF 5
ENDMDL
MODEL 5
REMARK VINA RESULT:      -7.2      1.646      2.025
REMARK  Name = 
REMARK  6 active torsions:
REMARK  status: ('A' for Active; 'I' for Inactive)
REMARK    1  A    between atoms: C_1  and  C_2
REMARK    2  A    between atoms: C_4  and  C_5
REMARK    3  A    between atoms: N_7  and  C_8
REMARK    4  A    between atoms: C_8  and  C_9
REMARK    5  A    between atoms: C_9  and  N_10
REMARK    6  A    between atoms: N_10  and  C_11
REMARK                            x       y       z     vdW  Elec       q    Type
REMARK                         _______ _______ _______ _____ _____    ______ ____
ROOT
ATOM      1  C   UNL     1       6.840   4.877  16.861  0.00  0.00    +0.000 C 
ATOM      2  O   UNL     1       7.701   5.541  17.427  0.00  0.00    +0.000 OA
ATOM      3  N   UNL     1       5.791   4.296  17.533  0.00  0.00    +0.000 N 
ATOM      4  H   UNL     1       5.193   3.654  17.033  0.00  0.00    +0.000 HD
ENDROOT
BRANCH   1   8
ATOM      5  C   UNL     1       6.299   3.455  12.007  0.00  0.00    +0.000 C 
ATOM      6  C   UNL     1       6.666   4.098  13.291  0.00  0.00    +0.000 A 
ATOM      7  C   UNL     1       6.226   3.767  14.592  0.00  0.00    +0.000 A 
ATOM      8  C   UNL     1       6.856   4.661  15.438  0.00  0.00    +0.000 A 
ATOM      9  N   UNL     1       7.614   5.448  14.609  0.00  0.00    +0.000 N 
ATOM     10  N   UNL     1       7.515   5.130  13.308  0.00  0.00    +0.000 NA
ATOM     11  H   UNL     1       8.213   6.219  14.886  0.00  0.00    +0.000 HD
ENDBRANCH   1   8
BRANCH   3  12
ATOM     12  C   UNL     1       5.679   4.366  18.982  0.00  0.00    +0.000 C 
BRANCH  12  13
ATOM     13  C   UNL     1       4.985   5.653  19.436  0.00  0.00    +0.000 C 
BRANCH  13  14
ATOM     14  N   UNL     1       3.625   5.757  18.912  0.00  0.00    +0.000 N 
ATOM     15  H   UNL     1       3.554   6.070  17.947  0.00  0.00    +0.000 HD
BRANCH  14  16
ATOM     16  C   UNL     1       2.701   4.750  19.212  0.00  0.00    +0.000 A 
ATOM     17  C   UNL     1       2.180   4.542  20.496  0.00  0.00    +0.000 A 
ATOM     18  C   UNL     1       1.196   3.579  20.740  0.00  0.00    +0.000 A 
ATOM     19  C   UNL     1       0.685   2.823  19.692  0.00  0.00    +0.000 A 
ATOM     20  C   UNL     1       1.163   3.033  18.404  0.00  0.00    +0.000 A 
ATOM     21  C   UNL     1       2.152   3.994  18.168  0.00  0.00    +0.000 A 
ENDBRANCH  14  16
ENDBRANCH  13  14
ENDBRANCH  12  13
ENDBRANCH   3  12
TORSDOF 5
ENDMDL
MODEL 6
REMARK VINA RESULT:      -7.2      1.504      1.901
REMARK  Name = 
REMARK  6 active torsions:
REMARK  status: ('A' for Active; 'I' for Inactive)
REMARK    1  A    between atoms: C_1  and  C_2
REMARK    2  A    between atoms: C_4  and  C_5
REMARK    3  A    between atoms: N_7  and  C_8
REMARK    4  A    between atoms: C_8  and  C_9
REMARK    5  A    between atoms: C_9  and  N_10
REMARK    6  A    between atoms: N_10  and  C_11
REMARK                            x       y       z     vdW  Elec       q    Type
REMARK                         _______ _______ _______ _____ _____    ______ ____
ROOT
ATOM      1  C   UNL     1       6.943   4.939  15.573  0.00  0.00    +0.000 C 
ATOM      2  O   UNL     1       7.562   5.994  15.671  0.00  0.00    +0.000 OA
ATOM      3  N   UNL     1       6.578   4.190  16.665  0.00  0.00    +0.000 N 
ATOM      4  H   UNL     1       6.190   3.270  16.513  0.00  0.00    +0.000 HD
ENDROOT
BRANCH   1   8
ATOM      5  C   UNL     1       4.720   2.901  11.476  0.00  0.00    +0.000 C 
ATOM      6  C   UNL     1       5.630   3.533  12.462  0.00  0.00    +0.000 A 
ATOM      7  C   UNL     1       5.378   3.827  13.821  0.00  0.00    +0.000 A 
ATOM      8  C   UNL     1       6.538   4.408  14.297  0.00  0.00    +0.000 A 
ATOM      9  N   UNL     1       7.389   4.420  13.222  0.00  0.00    +0.000 N 
ATOM     10  N   UNL     1       6.863   3.900  12.101  0.00  0.00    +0.000 NA
ATOM     11  H   UNL     1       8.337   4.779  13.203  0.00  0.00    +0.000 HD
ENDBRANCH   1   8
BRANCH   3  12
ATOM     12  C   UNL     1       6.977   4.561  18.015  0.00  0.00    +0.000 C 
BRANCH  12  13
ATOM     13  C   UNL     1       5.766   4.747  18.933  0.00  0.00    +0.000 C 
BRANCH  13  14
ATOM     14  N   UNL     1       5.058   3.491  19.170  0.00  0.00    +0.000 N 
ATOM     15  H   UNL     1       5.598   2.771  19.644  0.00  0.00    +0.000 HD
BRANCH  14  16
ATOM     16  C   UNL     1       3.729   3.531  19.604  0.00  0.00    +0.000 A 
ATOM     17  C   UNL     1       3.100   4.700  20.052  0.00  0.00    +0.000 A 
ATOM     18  C   UNL     1       1.745   4.716  20.400  0.00  0.00    +0.000 A 
ATOM     19  C   UNL     1       0.979   3.565  20.273  0.00  0.00    +0.000 A 
ATOM     20  C   UNL     1       1.572   2.400  19.800  0.00  0.00    +0.000 A 
ATOM     21  C   UNL     1       2.929   2.388  19.460  0.00  0.00    +0.000 A 
ENDBRANCH  14  16
ENDBRANCH  13  14
ENDBRANCH  12  13
ENDBRANCH   3  12
TORSDOF 5
ENDMDL
MODEL 7
REMARK VINA RESULT:      -7.0      2.181      3.294
REMARK  Name = 
REMARK  6 active torsions:
REMARK  status: ('A' for Active; 'I' for Inactive)
REMARK    1  A    between atoms: C_1  and  C_2
REMARK    2  A    between atoms: C_4  and  C_5
REMARK    3  A    between atoms: N_7  and  C_8
REMARK    4  A    between atoms: C_8  and  C_9
REMARK    5  A    between atoms: C_9  and  N_10
REMARK    6  A    between atoms: N_10  and  C_11
REMARK                            x       y       z     vdW  Elec       q    Type
REMARK                         _______ _______ _______ _____ _____    ______ ____
ROOT
ATOM      1  C   UNL     1       5.867   4.359  17.710  0.00  0.00    +0.000 C 
ATOM      2  O   UNL     1       6.461   4.886  18.644  0.00  0.00    +0.000 OA
ATOM      3  N   UNL     1       4.730   3.605  17.885  0.00  0.00    +0.000 N 
ATOM      4  H   UNL     1       4.366   3.090  17.097  0.00  0.00    +0.000 HD
ENDROOT
BRANCH   1   8
ATOM      5  C   UNL     1       6.835   4.193  12.718  0.00  0.00    +0.000 C 
ATOM      6  C   UNL     1       6.783   4.487  14.171  0.00  0.00    +0.000 A 
ATOM      7  C   UNL     1       5.991   3.865  15.161  0.00  0.00    +0.000 A 
ATOM      8  C   UNL     1       6.310   4.498  16.347  0.00  0.00    +0.000 A 
ATOM      9  N   UNL     1       7.251   5.434  15.999  0.00  0.00    +0.000 N 
ATOM     10  N   UNL     1       7.551   5.449  14.691  0.00  0.00    +0.000 NA
ATOM     11  H   UNL     1       7.712   6.088  16.621  0.00  0.00    +0.000 HD
ENDBRANCH   1   8
BRANCH   3  12
ATOM     12  C   UNL     1       4.202   3.316  19.210  0.00  0.00    +0.000 C 
BRANCH  12  13
ATOM     13  C   UNL     1       3.030   4.234  19.566  0.00  0.00    +0.000 C 
BRANCH  13  14
ATOM     14  N   UNL     1       3.477   5.568  19.960  0.00  0.00    +0.000 N 
ATOM     15  H   UNL     1       4.485   5.703  19.969  0.00  0.00    +0.000 HD
BRANCH  14  16
ATOM     16  C   UNL     1       2.796   6.687  19.468  0.00  0.00    +0.000 A 
ATOM     17  C   UNL     1       1.976   7.500  20.262  0.00  0.00    +0.000 A 
ATOM     18  C   UNL     1       1.379   8.657  19.753  0.00  0.00    +0.000 A 
ATOM     19  C   UNL     1       1.617   9.046  18.441  0.00  0.00    +0.000 A 
ATOM     20  C   UNL     1       2.452   8.273  17.642  0.00  0.00    +0.000 A 
ATOM     21  C   UNL     1       3.042   7.113  18.155  0.00  0.00    +0.000 A 
ENDBRANCH  14  16
ENDBRANCH  13  14
ENDBRANCH  12  13
ENDBRANCH   3  12
TORSDOF 5
ENDMDL
MODEL 8
REMARK VINA RESULT:      -7.0      1.960      2.272
REMARK  Name = 
REMARK  6 active torsions:
REMARK  status: ('A' for Active; 'I' for Inactive)
REMARK    1  A    between atoms: C_1  and  C_2
REMARK    2  A    between atoms: C_4  and  C_5
REMARK    3  A    between atoms: N_7  and  C_8
REMARK    4  A    between atoms: C_8  and  C_9
REMARK    5  A    between atoms: C_9  and  N_10
REMARK    6  A    between atoms: N_10  and  C_11
REMARK                            x       y       z     vdW  Elec       q    Type
REMARK                         _______ _______ _______ _____ _____    ______ ____
ROOT
ATOM      1  C   UNL     1       5.707   4.412  16.699  0.00  0.00    +0.000 C 
ATOM      2  O   UNL     1       4.899   3.524  16.949  0.00  0.00    +0.000 OA
ATOM      3  N   UNL     1       6.103   5.339  17.634  0.00  0.00    +0.000 N 
ATOM      4  H   UNL     1       6.666   6.120  17.331  0.00  0.00    +0.000 HD
ENDROOT
BRANCH   1   8
ATOM      5  C   UNL     1       7.232   4.290  11.847  0.00  0.00    +0.000 C 
ATOM      6  C   UNL     1       7.039   4.547  13.295  0.00  0.00    +0.000 A 
ATOM      7  C   UNL     1       6.079   3.980  14.163  0.00  0.00    +0.000 A 
ATOM      8  C   UNL     1       6.318   4.544  15.402  0.00  0.00    +0.000 A 
ATOM      9  N   UNL     1       7.381   5.388  15.202  0.00  0.00    +0.000 N 
ATOM     10  N   UNL     1       7.832   5.409  13.937  0.00  0.00    +0.000 NA
ATOM     11  H   UNL     1       7.829   5.974  15.897  0.00  0.00    +0.000 HD
ENDBRANCH   1   8
BRANCH   3  12
ATOM     12  C   UNL     1       5.520   5.377  18.967  0.00  0.00    +0.000 C 
BRANCH  12  13
ATOM     13  C   UNL     1       4.231   6.203  18.999  0.00  0.00    +0.000 C 
BRANCH  13  14
ATOM     14  N   UNL     1       3.340   5.789  20.080  0.00  0.00    +0.000 N 
ATOM     15  H   UNL     1       2.936   6.548  20.624  0.00  0.00    +0.000 HD
BRANCH  14  16
ATOM     16  C   UNL     1       2.426   4.755  19.852  0.00  0.00    +0.000 A 
ATOM     17  C   UNL     1       2.009   4.365  18.572  0.00  0.00    +0.000 A 
ATOM     18  C   UNL     1       1.157   3.273  18.380  0.00  0.00    +0.000 A 
ATOM     19  C   UNL     1       0.730   2.522  19.467  0.00  0.00    +0.000 A 
ATOM     20  C   UNL     1       1.155   2.870  20.745  0.00  0.00    +0.000 A 
ATOM     21  C   UNL     1       2.002   3.968  20.931  0.00  0.00    +0.000 A 
ENDBRANCH  14  16
ENDBRANCH  13  14
ENDBRANCH  12  13
ENDBRANCH   3  12
TORSDOF 5
ENDMDL
MODEL 9
REMARK VINA RESULT:      -7.0      3.069      4.381
REMARK  Name = 
REMARK  6 active torsions:
REMARK  status: ('A' for Active; 'I' for Inactive)
REMARK    1  A    between atoms: C_1  and  C_2
REMARK    2  A    between atoms: C_4  and  C_5
REMARK    3  A    between atoms: N_7  and  C_8
REMARK    4  A    between atoms: C_8  and  C_9
REMARK    5  A    between atoms: C_9  and  N_10
REMARK    6  A    between atoms: N_10  and  C_11
REMARK                            x       y       z     vdW  Elec       q    Type
REMARK                         _______ _______ _______ _____ _____    ______ ____
ROOT
ATOM      1  C   UNL     1       5.061   3.364  18.752  0.00  0.00    +0.000 C 
ATOM      2  O   UNL     1       5.034   3.090  19.947  0.00  0.00    +0.000 OA
ATOM      3  N   UNL     1       4.297   2.700  17.822  0.00  0.00    +0.000 N 
ATOM      4  H   UNL     1       4.464   2.881  16.842  0.00  0.00    +0.000 HD
ENDROOT
BRANCH   1   8
ATOM      5  C   UNL     1       7.638   7.586  17.564  0.00  0.00    +0.000 C 
ATOM      6  C   UNL     1       7.061   6.223  17.654  0.00  0.00    +0.000 A 
ATOM      7  C   UNL     1       6.089   5.743  18.560  0.00  0.00    +0.000 A 
ATOM      8  C   UNL     1       5.894   4.416  18.229  0.00  0.00    +0.000 A 
ATOM      9  N   UNL     1       6.738   4.193  17.171  0.00  0.00    +0.000 N 
ATOM     10  N   UNL     1       7.455   5.268  16.807  0.00  0.00    +0.000 NA
ATOM     11  H   UNL     1       6.862   3.321  16.669  0.00  0.00    +0.000 HD
ENDBRANCH   1   8
BRANCH   3  12
ATOM     12  C   UNL     1       3.461   1.567  18.188  0.00  0.00    +0.000 C 
BRANCH  12  13
ATOM     13  C   UNL     1       2.190   2.013  18.917  0.00  0.00    +0.000 C 
BRANCH  13  14
ATOM     14  N   UNL     1       1.541   3.139  18.250  0.00  0.00    +0.000 N 
ATOM     15  H   UNL     1       0.583   2.971  17.949  0.00  0.00    +0.000 HD
BRANCH  14  16
ATOM     16  C   UNL     1       1.718   4.428  18.763  0.00  0.00    +0.000 A 
ATOM     17  C   UNL     1       1.572   4.744  20.121  0.00  0.00    +0.000 A 
ATOM     18  C   UNL     1       1.839   6.027  20.608  0.00  0.00    +0.000 A 
ATOM     19  C   UNL     1       2.293   7.019  19.748  0.00  0.00    +0.000 A 
ATOM     20  C   UNL     1       2.476   6.722  18.401  0.00  0.00    +0.000 A 
ATOM     21  C   UNL     1       2.201   5.438  17.919  0.00  0.00    +0.000 A 
ENDBRANCH  14  16
ENDBRANCH  13  14
ENDBRANCH  12  13
ENDBRANCH   3  12
TORSDOF 5
ENDMDL
