MODEL 1
REMARK VINA RESULT:      -7.2      0.000      0.000
REMARK  Name = 
REMARK  9 active torsions:
REMARK  status: ('A' for Active; 'I' for Inactive)
REMARK    1  A    between atoms: C_1  and  C_2
REMARK    2  A    between atoms: C_2  and  C_3
REMARK    3  A    between atoms: C_2  and  C_4
REMARK    4  A    between atoms: C_6  and  C_7
REMARK    5  A    between atoms: C_7  and  N_8
REMARK    6  A    between atoms: C_15  and  C_16
REMARK    7  A    between atoms: C_16  and  C_17
REMARK    8  A    between atoms: C_16  and  C_18
REMARK    9  A    between atoms: C_19  and  O_20
REMARK                            x       y       z     vdW  Elec       q    Type
REMARK                         _______ _______ _______ _____ _____    ______ ____
ROOT
ATOM      1  C   UNL     1       3.208   6.307  17.973  0.00  0.00    +0.000 A 
ATOM      2  C   UNL     1       2.402   5.152  17.990  0.00  0.00    +0.000 A 
ATOM      3  C   UNL     1       2.815   3.959  17.392  0.00  0.00    +0.000 A 
ATOM      4  C   UNL     1       4.050   3.945  16.725  0.00  0.00    +0.000 A 
ATOM      5  C   UNL     1       4.895   5.073  16.671  0.00  0.00    +0.000 A 
ATOM      6  C   UNL     1       4.450   6.251  17.302  0.00  0.00    +0.000 A 
ENDROOT
BRANCH   1   8
ATOM      7  C   UNL     1       1.921   8.473  17.820  0.00  0.00    +0.000 C 
ATOM      8  C   UNL     1       2.775   7.572  18.714  0.00  0.00    +0.000 C 
ATOM      9  C   UNL     1       2.041   7.291  20.033  0.00  0.00    +0.000 C 
ENDBRANCH   1   8
BRANCH   5  10
ATOM     10  C   UNL     1       6.257   4.930  15.994  0.00  0.00    +0.000 C 
ATOM     11  C   UNL     1       7.331   4.525  17.018  0.00  0.00    +0.000 C 
ATOM     12  C   UNL     1       6.240   3.942  14.821  0.00  0.00    +0.000 C 
ENDBRANCH   5  10
BRANCH   6  13
ATOM     13  O   UNL     1       5.210   7.391  17.315  0.00  0.00    +0.000 OA
ATOM     14  H   UNL     1       5.158   7.798  18.191  0.00  0.00    +0.000 HD
ENDBRANCH   6  13
BRANCH   3  15
ATOM     15  C   UNL     1       2.048   2.669  17.587  0.00  0.00    +0.000 C 
BRANCH  15  16
ATOM     16  N   UNL     1       2.288   1.845  18.767  0.00  0.00    +0.000 NA
ATOM     17  C   UNL     1       1.580   2.213  19.996  0.00  0.00    +0.000 C 
ATOM     18  C   UNL     1       2.363   3.164  20.915  0.00  0.00    +0.000 C 
ATOM     19  O   UNL     1       3.674   2.657  21.200  0.00  0.00    +0.000 OA
ATOM     20  C   UNL     1       4.409   2.455  19.987  0.00  0.00    +0.000 C 
ATOM     21  C   UNL     1       3.681   1.489  19.043  0.00  0.00    +0.000 C 
ENDBRANCH  15  16
ENDBRANCH   3  15
TORSDOF 5
ENDMDL
MODEL 2
REMARK VINA RESULT:      -7.2      0.406      3.760
REMARK  Name = 
REMARK  9 active torsions:
REMARK  status: ('A' for Active; 'I' for Inactive)
REMARK    1  A    between atoms: C_1  and  C_2
REMARK    2  A    between atoms: C_2  and  C_3
REMARK    3  A    between atoms: C_2  and  C_4
REMARK    4  A    between atoms: C_6  and  C_7
REMARK    5  A    between atoms: C_7  and  N_8
REMARK    6  A    between atoms: C_15  and  C_16
REMARK    7  A    between atoms: C_16  and  C_17
REMARK    8  A    between atoms: C_16  and  C_18
REMARK    9  A    between atoms: C_19  and  O_20
REMARK                            x       y       z     vdW  Elec       q    Type
REMARK                         _______ _______ _______ _____ _____    ______ ____
ROOT
ATOM      1  C   UNL     1       4.725   5.259  16.708  0.00  0.00    +0.000 A 
ATOM      2  C   UNL     1       3.949   4.114  16.975  0.00  0.00    +0.000 A 
ATOM      3  C   UNL     1       2.797   4.176  17.763  0.00  0.00    +0.000 A 
ATOM      4  C   UNL     1       2.445   5.411  18.328  0.00  0.00    +0.000 A 
ATOM      5  C   UNL     1       3.188   6.588  18.101  0.00  0.00    +0.000 A 
ATOM      6  C   UNL     1       4.333   6.488  17.286  0.00  0.00    +0.000 A 
ENDROOT
BRANCH   1   8
ATOM      7  C   UNL     1       7.156   4.615  16.483  0.00  0.00    +0.000 C 
ATOM      8  C   UNL     1       5.928   5.184  15.769  0.00  0.00    +0.000 C 
ATOM      9  C   UNL     1       5.654   4.394  14.481  0.00  0.00    +0.000 C 
ENDBRANCH   1   8
BRANCH   5  10
ATOM     10  C   UNL     1       2.675   7.899  18.693  0.00  0.00    +0.000 C 
ATOM     11  C   UNL     1       1.780   8.635  17.681  0.00  0.00    +0.000 C 
ATOM     12  C   UNL     1       1.931   7.704  20.019  0.00  0.00    +0.000 C 
ENDBRANCH   5  10
BRANCH   6  13
ATOM     13  O   UNL     1       5.107   7.580  16.997  0.00  0.00    +0.000 OA
ATOM     14  H   UNL     1       4.565   8.244  16.548  0.00  0.00    +0.000 HD
ENDBRANCH   6  13
BRANCH   3  15
ATOM     15  C   UNL     1       1.853   2.997  17.879  0.00  0.00    +0.000 C 
BRANCH  15  16
ATOM     16  N   UNL     1       2.034   2.016  18.943  0.00  0.00    +0.000 NA
ATOM     17  C   UNL     1       1.423   2.317  20.241  0.00  0.00    +0.000 C 
ATOM     18  C   UNL     1       2.352   3.052  21.220  0.00  0.00    +0.000 C 
ATOM     19  O   UNL     1       3.600   2.363  21.377  0.00  0.00    +0.000 OA
ATOM     20  C   UNL     1       4.258   2.221  20.113  0.00  0.00    +0.000 C 
ATOM     21  C   UNL     1       3.381   1.467  19.104  0.00  0.00    +0.000 C 
ENDBRANCH  15  16
ENDBRANCH   3  15
TORSDOF 5
ENDMDL
MODEL 3
REMARK VINA RESULT:      -6.9      2.363      3.511
REMARK  Name = 
REMARK  9 active torsions:
REMARK  status: ('A' for Active; 'I' for Inactive)
REMARK    1  A    between atoms: C_1  and  C_2
REMARK    2  A    between atoms: C_2  and  C_3
REMARK    3  A    between atoms: C_2  and  C_4
REMARK    4  A    between atoms: C_6  and  C_7
REMARK    5  A    between atoms: C_7  and  N_8
REMARK    6  A    between atoms: C_15  and  C_16
REMARK    7  A    between atoms: C_16  and  C_17
REMARK    8  A    between atoms: C_16  and  C_18
REMARK    9  A    between atoms: C_19  and  O_20
REMARK                            x       y       z     vdW  Elec       q    Type
REMARK                         _______ _______ _______ _____ _____    ______ ____
ROOT
ATOM      1  C   UNL     1       6.688   5.483  16.720  0.00  0.00    +0.000 A 
ATOM      2  C   UNL     1       5.570   4.921  17.366  0.00  0.00    +0.000 A 
ATOM      3  C   UNL     1       4.728   4.013  16.720  0.00  0.00    +0.000 A 
ATOM      4  C   UNL     1       4.997   3.699  15.378  0.00  0.00    +0.000 A 
ATOM      5  C   UNL     1       6.097   4.236  14.679  0.00  0.00    +0.000 A 
ATOM      6  C   UNL     1       6.933   5.134  15.372  0.00  0.00    +0.000 A 
ENDROOT
BRANCH   1   8
ATOM      7  C   UNL     1       7.203   7.864  17.383  0.00  0.00    +0.000 C 
ATOM      8  C   UNL     1       7.646   6.402  17.476  0.00  0.00    +0.000 C 
ATOM      9  C   UNL     1       7.848   6.004  18.946  0.00  0.00    +0.000 C 
ENDBRANCH   1   8
BRANCH   5  10
ATOM     10  C   UNL     1       6.351   3.766  13.248  0.00  0.00    +0.000 C 
ATOM     11  C   UNL     1       5.021   3.525  12.514  0.00  0.00    +0.000 C 
ATOM     12  C   UNL     1       7.232   4.734  12.450  0.00  0.00    +0.000 C 
ENDBRANCH   5  10
BRANCH   6  13
ATOM     13  O   UNL     1       8.034   5.694  14.780  0.00  0.00    +0.000 OA
ATOM     14  H   UNL     1       8.087   5.394  13.861  0.00  0.00    +0.000 HD
ENDBRANCH   6  13
BRANCH   3  15
ATOM     15  C   UNL     1       3.656   3.254  17.472  0.00  0.00    +0.000 C 
BRANCH  15  16
ATOM     16  N   UNL     1       2.796   3.950  18.423  0.00  0.00    +0.000 NA
ATOM     17  C   UNL     1       3.181   3.897  19.836  0.00  0.00    +0.000 C 
ATOM     18  C   UNL     1       2.544   2.740  20.621  0.00  0.00    +0.000 C 
ATOM     19  O   UNL     1       1.118   2.723  20.467  0.00  0.00    +0.000 OA
ATOM     20  C   UNL     1       0.763   2.613  19.085  0.00  0.00    +0.000 C 
ATOM     21  C   UNL     1       1.353   3.763  18.258  0.00  0.00    +0.000 C 
ENDBRANCH  15  16
ENDBRANCH   3  15
TORSDOF 5
ENDMDL
MODEL 4
REMARK VINA RESULT:      -6.9      2.555      5.257
REMARK  Name = 
REMARK  9 active torsions:
REMARK  status: ('A' for Active; 'I' for Inactive)
REMARK    1  A    between atoms: C_1  and  C_2
REMARK    2  A    between atoms: C_2  and  C_3
REMARK    3  A    between atoms: C_2  and  C_4
REMARK    4  A    between atoms: C_6  and  C_7
REMARK    5  A    between atoms: C_7  and  N_8
REMARK    6  A    between atoms: C_15  and  C_16
REMARK    7  A    between atoms: C_16  and  C_17
REMARK    8  A    between atoms: C_16  and  C_18
REMARK    9  A    between atoms: C_19  and  O_20
REMARK                            x       y       z     vdW  Elec       q    Type
REMARK                         _______ _______ _______ _____ _____    ______ ____
ROOT
ATOM      1  C   UNL     1       2.969   3.900  19.335  0.00  0.00    +0.000 A 
ATOM      2  C   UNL     1       2.303   5.108  19.051  0.00  0.00    +0.000 A 
ATOM      3  C   UNL     1       2.968   6.196  18.481  0.00  0.00    +0.000 A 
ATOM      4  C   UNL     1       4.344   6.077  18.232  0.00  0.00    +0.000 A 
ATOM      5  C   UNL     1       5.063   4.894  18.502  0.00  0.00    +0.000 A 
ATOM      6  C   UNL     1       4.353   3.813  19.060  0.00  0.00    +0.000 A 
ENDROOT
BRANCH   1   8
ATOM      7  C   UNL     1       1.760   2.916  21.320  0.00  0.00    +0.000 C 
ATOM      8  C   UNL     1       2.201   2.693  19.872  0.00  0.00    +0.000 C 
ATOM      9  C   UNL     1       0.994   2.298  19.008  0.00  0.00    +0.000 C 
ENDBRANCH   1   8
BRANCH   5  10
ATOM     10  C   UNL     1       6.540   4.836  18.117  0.00  0.00    +0.000 C 
ATOM     11  C   UNL     1       6.697   4.504  16.623  0.00  0.00    +0.000 C 
ATOM     12  C   UNL     1       7.297   6.125  18.458  0.00  0.00    +0.000 C 
ENDBRANCH   5  10
BRANCH   6  13
ATOM     13  O   UNL     1       4.964   2.620  19.341  0.00  0.00    +0.000 OA
ATOM     14  H   UNL     1       4.450   1.900  18.949  0.00  0.00    +0.000 HD
ENDBRANCH   6  13
BRANCH   3  15
ATOM     15  C   UNL     1       2.215   7.413  17.987  0.00  0.00    +0.000 C 
BRANCH  15  16
ATOM     16  N   UNL     1       2.229   8.649  18.762  0.00  0.00    +0.000 NA
ATOM     17  C   UNL     1       1.788   8.569  20.157  0.00  0.00    +0.000 C 
ATOM     18  C   UNL     1       0.292   8.852  20.363  0.00  0.00    +0.000 C 
ATOM     19  O   UNL     1      -0.094  10.097  19.764  0.00  0.00    +0.000 OA
ATOM     20  C   UNL     1       0.200  10.093  18.363  0.00  0.00    +0.000 C 
ATOM     21  C   UNL     1       1.691   9.840  18.102  0.00  0.00    +0.000 C 
ENDBRANCH  15  16
ENDBRANCH   3  15
TORSDOF 5
ENDMDL
MODEL 5
REMARK VINA RESULT:      -6.8      2.541      5.776
REMARK  Name = 
REMARK  9 active torsions:
REMARK  status: ('A' for Active; 'I' for Inactive)
REMARK    1  A    between atoms: C_1  and  C_2
REMARK    2  A    between atoms: C_2  and  C_3
REMARK    3  A    between atoms: C_2  and  C_4
REMARK    4  A    between atoms: C_6  and  C_7
REMARK    5  A    between atoms: C_7  and  N_8
REMARK    6  A    between atoms: C_15  and  C_16
REMARK    7  A    between atoms: C_16  and  C_17
REMARK    8  A    between atoms: C_16  and  C_18
REMARK    9  A    between atoms: C_19  and  O_20
REMARK                            x       y       z     vdW  Elec       q    Type
REMARK                         _______ _______ _______ _____ _____    ______ ____
ROOT
ATOM      1  C   UNL     1       5.036   5.061  18.227  0.00  0.00    +0.000 A 
ATOM      2  C   UNL     1       4.228   6.141  17.818  0.00  0.00    +0.000 A 
ATOM      3  C   UNL     1       2.866   6.196  18.125  0.00  0.00    +0.000 A 
ATOM      4  C   UNL     1       2.299   5.118  18.821  0.00  0.00    +0.000 A 
ATOM      5  C   UNL     1       3.057   4.008  19.250  0.00  0.00    +0.000 A 
ATOM      6  C   UNL     1       4.430   3.999  18.937  0.00  0.00    +0.000 A 
ENDROOT
BRANCH   1   8
ATOM      7  C   UNL     1       6.860   4.514  16.571  0.00  0.00    +0.000 C 
ATOM      8  C   UNL     1       6.540   5.068  17.961  0.00  0.00    +0.000 C 
ATOM      9  C   UNL     1       7.190   6.447  18.142  0.00  0.00    +0.000 C 
ENDBRANCH   1   8
BRANCH   5  10
ATOM     10  C   UNL     1       2.363   2.927  20.075  0.00  0.00    +0.000 C 
ATOM     11  C   UNL     1       2.223   3.371  21.541  0.00  0.00    +0.000 C 
ATOM     12  C   UNL     1       0.995   2.529  19.507  0.00  0.00    +0.000 C 
ENDBRANCH   5  10
BRANCH   6  13
ATOM     13  O   UNL     1       5.249   2.972  19.326  0.00  0.00    +0.000 OA
ATOM     14  H   UNL     1       4.820   2.129  19.121  0.00  0.00    +0.000 HD
ENDBRANCH   6  13
BRANCH   3  15
ATOM     15  C   UNL     1       2.047   7.444  17.869  0.00  0.00    +0.000 C 
BRANCH  15  16
ATOM     16  N   UNL     1       2.206   8.613  18.726  0.00  0.00    +0.000 NA
ATOM     17  C   UNL     1       1.788   8.480  20.124  0.00  0.00    +0.000 C 
ATOM     18  C   UNL     1       0.334   8.899  20.392  0.00  0.00    +0.000 C 
ATOM     19  O   UNL     1       0.067  10.216  19.890  0.00  0.00    +0.000 OA
ATOM     20  C   UNL     1       0.330  10.281  18.484  0.00  0.00    +0.000 C 
ATOM     21  C   UNL     1       1.781   9.897  18.164  0.00  0.00    +0.000 C 
ENDBRANCH  15  16
ENDBRANCH   3  15
TORSDOF 5
ENDMDL
MODEL 6
REMARK VINA RESULT:      -6.7      2.148      3.312
REMARK  Name = 
REMARK  9 active torsions:
REMARK  status: ('A' for Active; 'I' for Inactive)
REMARK    1  A    between atoms: C_1  and  C_2
REMARK    2  A    between atoms: C_2  and  C_3
REMARK    3  A    between atoms: C_2  and  C_4
REMARK    4  A    between atoms: C_6  and  C_7
REMARK    5  A    between atoms: C_7  and  N_8
REMARK    6  A    between atoms: C_15  and  C_16
REMARK    7  A    between atoms: C_16  and  C_17
REMARK    8  A    between atoms: C_16  and  C_18
REMARK    9  A    between atoms: C_19  and  O_20
REMARK                            x       y       z     vdW  Elec       q    Type
REMARK                         _______ _______ _______ _____ _____    ______ ____
ROOT
ATOM      1  C   UNL     1       6.633   5.764  16.783  0.00  0.00    +0.000 A 
ATOM      2  C   UNL     1       5.383   5.482  17.367  0.00  0.00    +0.000 A 
ATOM      3  C   UNL     1       4.435   4.682  16.725  0.00  0.00    +0.000 A 
ATOM      4  C   UNL     1       4.739   4.192  15.445  0.00  0.00    +0.000 A 
ATOM      5  C   UNL     1       5.971   4.447  14.809  0.00  0.00    +0.000 A 
ATOM      6  C   UNL     1       6.908   5.242  15.498  0.00  0.00    +0.000 A 
ENDROOT
BRANCH   1   8
ATOM      7  C   UNL     1       7.399   8.065  17.482  0.00  0.00    +0.000 C 
ATOM      8  C   UNL     1       7.688   6.563  17.545  0.00  0.00    +0.000 C 
ATOM      9  C   UNL     1       7.860   6.120  19.005  0.00  0.00    +0.000 C 
ENDBRANCH   1   8
BRANCH   5  10
ATOM     10  C   UNL     1       6.239   3.797  13.453  0.00  0.00    +0.000 C 
ATOM     11  C   UNL     1       4.916   3.498  12.726  0.00  0.00    +0.000 C 
ATOM     12  C   UNL     1       7.158   4.638  12.559  0.00  0.00    +0.000 C 
ENDBRANCH   5  10
BRANCH   6  13
ATOM     13  O   UNL     1       8.137   5.529  14.966  0.00  0.00    +0.000 OA
ATOM     14  H   UNL     1       8.703   4.747  15.033  0.00  0.00    +0.000 HD
ENDBRANCH   6  13
BRANCH   3  15
ATOM     15  C   UNL     1       3.184   4.212  17.435  0.00  0.00    +0.000 C 
BRANCH  15  16
ATOM     16  N   UNL     1       3.182   2.941  18.152  0.00  0.00    +0.000 NA
ATOM     17  C   UNL     1       1.944   2.157  18.121  0.00  0.00    +0.000 C 
ATOM     18  C   UNL     1       0.990   2.436  19.293  0.00  0.00    +0.000 C 
ATOM     19  O   UNL     1       1.659   2.306  20.556  0.00  0.00    +0.000 OA
ATOM     20  C   UNL     1       2.774   3.201  20.628  0.00  0.00    +0.000 C 
ATOM     21  C   UNL     1       3.774   2.946  19.491  0.00  0.00    +0.000 C 
ENDBRANCH  15  16
ENDBRANCH   3  15
TORSDOF 5
ENDMDL
MODEL 7
REMARK VINA RESULT:      -6.7      2.482      5.893
REMARK  Name = 
REMARK  9 active torsions:
REMARK  status: ('A' for Active; 'I' for Inactive)
REMARK    1  A    between atoms: C_1  and  C_2
REMARK    2  A    between atoms: C_2  and  C_3
REMARK    3  A    between atoms: C_2  and  C_4
REMARK    4  A    between atoms: C_6  and  C_7
REMARK    5  A    between atoms: C_7  and  N_8
REMARK    6  A    between atoms: C_15  and  C_16
REMARK    7  A    between atoms: C_16  and  C_17
REMARK    8  A    between atoms: C_16  and  C_18
REMARK    9  A    between atoms: C_19  and  O_20
REMARK                            x       y       z     vdW  Elec       q    Type
REMARK                         _______ _______ _______ _____ _____    ______ ____
ROOT
ATOM      1  C   UNL     1       4.540   4.664  17.135  0.00  0.00    +0.000 A 
ATOM      2  C   UNL     1       4.182   6.020  17.262  0.00  0.00    +0.000 A 
ATOM      3  C   UNL     1       3.131   6.428  18.087  0.00  0.00    +0.000 A 
ATOM      4  C   UNL     1       2.398   5.441  18.764  0.00  0.00    +0.000 A 
ATOM      5  C   UNL     1       2.707   4.069  18.670  0.00  0.00    +0.000 A 
ATOM      6  C   UNL     1       3.786   3.700  17.842  0.00  0.00    +0.000 A 
ENDROOT
BRANCH   1   8
ATOM      7  C   UNL     1       5.661   4.810  14.878  0.00  0.00    +0.000 C 
ATOM      8  C   UNL     1       5.751   4.251  16.300  0.00  0.00    +0.000 C 
ATOM      9  C   UNL     1       7.096   4.637  16.934  0.00  0.00    +0.000 C 
ENDBRANCH   1   8
BRANCH   5  10
ATOM     10  C   UNL     1       1.903   3.082  19.513  0.00  0.00    +0.000 C 
ATOM     11  C   UNL     1       1.304   3.784  20.744  0.00  0.00    +0.000 C 
ATOM     12  C   UNL     1       0.802   2.375  18.716  0.00  0.00    +0.000 C 
ENDBRANCH   5  10
BRANCH   6  13
ATOM     13  O   UNL     1       4.170   2.392  17.701  0.00  0.00    +0.000 OA
ATOM     14  H   UNL     1       4.855   2.334  17.021  0.00  0.00    +0.000 HD
ENDBRANCH   6  13
BRANCH   3  15
ATOM     15  C   UNL     1       2.880   7.891  18.383  0.00  0.00    +0.000 C 
BRANCH  15  16
ATOM     16  N   UNL     1       1.537   8.351  18.721  0.00  0.00    +0.000 NA
ATOM     17  C   UNL     1       1.030   9.523  18.000  0.00  0.00    +0.000 C 
ATOM     18  C   UNL     1       1.302  10.862  18.702  0.00  0.00    +0.000 C 
ATOM     19  O   UNL     1       0.842  10.845  20.061  0.00  0.00    +0.000 OA
ATOM     20  C   UNL     1       1.474   9.789  20.792  0.00  0.00    +0.000 C 
ATOM     21  C   UNL     1       1.210   8.422  20.146  0.00  0.00    +0.000 C 
ENDBRANCH  15  16
ENDBRANCH   3  15
TORSDOF 5
ENDMDL
MODEL 8
REMARK VINA RESULT:      -6.6      2.235      4.259
REMARK  Name = 
REMARK  9 active torsions:
REMARK  status: ('A' for Active; 'I' for Inactive)
REMARK    1  A    between atoms: C_1  and  C_2
REMARK    2  A    between atoms: C_2  and  C_3
REMARK    3  A    between atoms: C_2  and  C_4
REMARK    4  A    between atoms: C_6  and  C_7
REMARK    5  A    between atoms: C_7  and  N_8
REMARK    6  A    between atoms: C_15  and  C_16
REMARK    7  A    between atoms: C_16  and  C_17
REMARK    8  A    between atoms: C_16  and  C_18
REMARK    9  A    between atoms: C_19  and  O_20
REMARK                            x       y       z     vdW  Elec       q    Type
REMARK                         _______ _______ _______ _____ _____    ______ ____
ROOT
ATOM      1  C   UNL     1       6.018   4.221  14.784  0.00  0.00    +0.000 A 
ATOM      2  C   UNL     1       4.843   3.844  15.465  0.00  0.00    +0.000 A 
ATOM      3  C   UNL     1       4.567   4.294  16.758  0.00  0.00    +0.000 A 
ATOM      4  C   UNL     1       5.517   5.108  17.394  0.00  0.00    +0.000 A 
ATOM      5  C   UNL     1       6.712   5.512  16.764  0.00  0.00    +0.000 A 
ATOM      6  C   UNL     1       6.945   5.052  15.453  0.00  0.00    +0.000 A 
ENDROOT
BRANCH   1   8
ATOM      7  C   UNL     1       4.931   3.529  12.614  0.00  0.00    +0.000 C 
ATOM      8  C   UNL     1       6.253   3.792  13.337  0.00  0.00    +0.000 C 
ATOM      9  C   UNL     1       7.107   4.783  12.533  0.00  0.00    +0.000 C 
ENDBRANCH   1   8
BRANCH   5  10
ATOM     10  C   UNL     1       7.641   6.468  17.510  0.00  0.00    +0.000 C 
ATOM     11  C   UNL     1       7.129   7.915  17.403  0.00  0.00    +0.000 C 
ATOM     12  C   UNL     1       7.839   6.081  18.980  0.00  0.00    +0.000 C 
ENDBRANCH   5  10
BRANCH   6  13
ATOM     13  O   UNL     1       8.071   5.405  14.757  0.00  0.00    +0.000 OA
ATOM     14  H   UNL     1       8.715   5.791  15.368  0.00  0.00    +0.000 HD
ENDBRANCH   6  13
BRANCH   3  15
ATOM     15  C   UNL     1       3.219   4.060  17.406  0.00  0.00    +0.000 C 
BRANCH  15  16
ATOM     16  N   UNL     1       3.093   3.122  18.517  0.00  0.00    +0.000 NA
ATOM     17  C   UNL     1       2.032   2.114  18.425  0.00  0.00    +0.000 C 
ATOM     18  C   UNL     1       0.703   2.536  19.069  0.00  0.00    +0.000 C 
ATOM     19  O   UNL     1       0.891   2.975  20.422  0.00  0.00    +0.000 OA
ATOM     20  C   UNL     1       1.812   4.070  20.472  0.00  0.00    +0.000 C 
ATOM     21  C   UNL     1       3.169   3.691  19.863  0.00  0.00    +0.000 C 
ENDBRANCH  15  16
ENDBRANCH   3  15
TORSDOF 5
ENDMDL
MODEL 9
REMARK VINA RESULT:      -6.6      2.867      6.206
REMARK  Name = 
REMARK  9 active torsions:
REMARK  status: ('A' for Active; 'I' for Inactive)
REMARK    1  A    between atoms: C_1  and  C_2
REMARK    2  A    between atoms: C_2  and  C_3
REMARK    3  A    between atoms: C_2  and  C_4
REMARK    4  A    between atoms: C_6  and  C_7
REMARK    5  A    between atoms: C_7  and  N_8
REMARK    6  A    between atoms: C_15  and  C_16
REMARK    7  A    between atoms: C_16  and  C_17
REMARK    8  A    between atoms: C_16  and  C_18
REMARK    9  A    between atoms: C_19  and  O_20
REMARK                            x       y       z     vdW  Elec       q    Type
REMARK                         _______ _______ _______ _____ _____    ______ ____
ROOT
ATOM      1  C   UNL     1       4.392   5.625  17.515  0.00  0.00    +0.000 A 
ATOM      2  C   UNL     1       3.766   6.861  17.773  0.00  0.00    +0.000 A 
ATOM      3  C   UNL     1       2.618   6.951  18.563  0.00  0.00    +0.000 A 
ATOM      4  C   UNL     1       2.064   5.764  19.067  0.00  0.00    +0.000 A 
ATOM      5  C   UNL     1       2.643   4.499  18.835  0.00  0.00    +0.000 A 
ATOM      6  C   UNL     1       3.811   4.452  18.049  0.00  0.00    +0.000 A 
ENDROOT
BRANCH   1   8
ATOM      7  C   UNL     1       5.440   5.627  15.219  0.00  0.00    +0.000 C 
ATOM      8  C   UNL     1       5.698   5.562  16.726  0.00  0.00    +0.000 C 
ATOM      9  C   UNL     1       6.716   6.637  17.134  0.00  0.00    +0.000 C 
ENDBRANCH   1   8
BRANCH   5  10
ATOM     10  C   UNL     1       2.011   3.277  19.498  0.00  0.00    +0.000 C 
ATOM     11  C   UNL     1       1.310   3.674  20.809  0.00  0.00    +0.000 C 
ATOM     12  C   UNL     1       1.036   2.535  18.577  0.00  0.00    +0.000 C 
ENDBRANCH   5  10
BRANCH   6  13
ATOM     13  O   UNL     1       4.452   3.271  17.785  0.00  0.00    +0.000 OA
ATOM     14  H   UNL     1       3.928   2.539  18.140  0.00  0.00    +0.000 HD
ENDBRANCH   6  13
BRANCH   3  15
ATOM     15  C   UNL     1       2.068   8.289  19.009  0.00  0.00    +0.000 C 
BRANCH  15  16
ATOM     16  N   UNL     1       1.573   9.244  18.024  0.00  0.00    +0.000 NA
ATOM     17  C   UNL     1       2.191  10.573  18.010  0.00  0.00    +0.000 C 
ATOM     18  C   UNL     1       1.473  11.613  18.883  0.00  0.00    +0.000 C 
ATOM     19  O   UNL     1       0.074  11.684  18.571  0.00  0.00    +0.000 OA
ATOM     20  C   UNL     1      -0.546  10.406  18.747  0.00  0.00    +0.000 C 
ATOM     21  C   UNL     1       0.119   9.333  17.874  0.00  0.00    +0.000 C 
ENDBRANCH  15  16
ENDBRANCH   3  15
TORSDOF 5
ENDMDL
