MODEL 1
REMARK VINA RESULT:      -8.3      0.000      0.000
REMARK  Name = 
REMARK  8 active torsions:
REMARK  status: ('A' for Active; 'I' for Inactive)
REMARK    1  A    between atoms: C_1  and  O_2
REMARK    2  A    between atoms: O_2  and  C_3
REMARK    3  A    between atoms: C_3  and  C_5
REMARK    4  A    between atoms: C_8  and  C_9
REMARK    5  A    between atoms: C_9  and  N_10
REMARK    6  A    between atoms: C_13  and  O_14
REMARK    7  A    between atoms: O_14  and  C_15
REMARK    8  A    between atoms: C_19  and  C_20
REMARK                            x       y       z     vdW  Elec       q    Type
REMARK                         _______ _______ _______ _____ _____    ______ ____
ROOT
ATOM      1  N   UNL     1       1.966   8.189  19.463  0.00  0.00    +0.000 NA
ATOM      2  C   UNL     1       1.592   8.593  18.103  0.00  0.00    +0.000 C 
ATOM      3  C   UNL     1       1.183  10.060  17.995  0.00  0.00    +0.000 C 
ATOM      4  C   UNL     1       0.077  10.403  18.995  0.00  0.00    +0.000 C 
ATOM      5  C   UNL     1       0.584  10.056  20.393  0.00  0.00    +0.000 C 
ATOM      6  C   UNL     1       1.003   8.589  20.493  0.00  0.00    +0.000 C 
ENDROOT
BRANCH   1   7
ATOM      7  C   UNL     1       2.312   6.754  19.551  0.00  0.00    +0.000 C 
BRANCH   7  11
ATOM      8  C   UNL     1       5.932   5.472  17.507  0.00  0.00    +0.000 A 
ATOM      9  C   UNL     1       5.071   6.400  16.913  0.00  0.00    +0.000 A 
ATOM     10  C   UNL     1       3.910   6.814  17.578  0.00  0.00    +0.000 A 
ATOM     11  C   UNL     1       3.580   6.298  18.841  0.00  0.00    +0.000 A 
ATOM     12  C   UNL     1       4.444   5.362  19.427  0.00  0.00    +0.000 A 
ATOM     13  C   UNL     1       5.609   4.950  18.767  0.00  0.00    +0.000 A 
BRANCH   8  14
ATOM     14  C   UNL     1       7.174   5.092  16.778  0.00  0.00    +0.000 C 
ATOM     15  O   UNL     1       8.013   4.325  17.223  0.00  0.00    +0.000 OA
BRANCH  14  17
ATOM     16  C   UNL     1       7.180   4.789  14.454  0.00  0.00    +0.000 C 
ATOM     17  O   UNL     1       7.213   5.692  15.560  0.00  0.00    +0.000 OA
ENDBRANCH  14  17
ENDBRANCH   8  14
ENDBRANCH   7  11
ENDBRANCH   1   7
BRANCH   4  18
ATOM     18  O   UNL     1      -1.131   9.659  18.745  0.00  0.00    +0.000 OA
BRANCH  18  19
ATOM     19  C   UNL     1      -2.087  10.202  17.929  0.00  0.00    +0.000 A 
ATOM     20  C   UNL     1      -1.960  10.374  16.551  0.00  0.00    +0.000 A 
ATOM     21  C   UNL     1      -3.016  10.891  15.802  0.00  0.00    +0.000 A 
ATOM     22  C   UNL     1      -4.212  11.240  16.423  0.00  0.00    +0.000 A 
ATOM     23  C   UNL     1      -4.334  11.164  17.812  0.00  0.00    +0.000 A 
ATOM     24  C   UNL     1      -3.280  10.600  18.555  0.00  0.00    +0.000 A 
BRANCH  23  25
ATOM     25  C   UNL     1      -5.579  11.596  18.521  0.00  0.00    +0.000 C 
ATOM     26  O   UNL     1      -6.641  11.126  18.114  0.00  0.00    +0.000 OA
ATOM     27  N   UNL     1      -5.527  12.467  19.611  0.00  0.00    +0.000 N 
ATOM     28  C   UNL     1      -4.339  12.995  20.303  0.00  0.00    +0.000 C 
ATOM     29  C   UNL     1      -4.455  12.861  21.825  0.00  0.00    +0.000 C 
ATOM     30  O   UNL     1      -5.678  13.421  22.317  0.00  0.00    +0.000 OA
ATOM     31  C   UNL     1      -6.804  12.766  21.709  0.00  0.00    +0.000 C 
ATOM     32  C   UNL     1      -6.788  12.964  20.190  0.00  0.00    +0.000 C 
ENDBRANCH  23  25
ENDBRANCH  18  19
ENDBRANCH   4  18
TORSDOF 7
ENDMDL
MODEL 2
REMARK VINA RESULT:      -8.3      1.998      2.656
REMARK  Name = 
REMARK  8 active torsions:
REMARK  status: ('A' for Active; 'I' for Inactive)
REMARK    1  A    between atoms: C_1  and  O_2
REMARK    2  A    between atoms: O_2  and  C_3
REMARK    3  A    between atoms: C_3  and  C_5
REMARK    4  A    between atoms: C_8  and  C_9
REMARK    5  A    between atoms: C_9  and  N_10
REMARK    6  A    between atoms: C_13  and  O_14
REMARK    7  A    between atoms: O_14  and  C_15
REMARK    8  A    between atoms: C_19  and  C_20
REMARK                            x       y       z     vdW  Elec       q    Type
REMARK                         _______ _______ _______ _____ _____    ______ ____
ROOT
ATOM      1  N   UNL     1       2.501   7.524  18.943  0.00  0.00    +0.000 NA
ATOM      2  C   UNL     1       2.052   8.354  17.821  0.00  0.00    +0.000 C 
ATOM      3  C   UNL     1       1.852   9.822  18.192  0.00  0.00    +0.000 C 
ATOM      4  C   UNL     1       0.917   9.969  19.394  0.00  0.00    +0.000 C 
ATOM      5  C   UNL     1       1.510   9.166  20.549  0.00  0.00    +0.000 C 
ATOM      6  C   UNL     1       1.719   7.700  20.170  0.00  0.00    +0.000 C 
ENDROOT
BRANCH   1   7
ATOM      7  C   UNL     1       2.642   6.099  18.571  0.00  0.00    +0.000 C 
BRANCH   7  11
ATOM      8  C   UNL     1       5.698   5.074  15.651  0.00  0.00    +0.000 A 
ATOM      9  C   UNL     1       4.963   4.072  16.292  0.00  0.00    +0.000 A 
ATOM     10  C   UNL     1       3.977   4.408  17.227  0.00  0.00    +0.000 A 
ATOM     11  C   UNL     1       3.715   5.749  17.550  0.00  0.00    +0.000 A 
ATOM     12  C   UNL     1       4.462   6.748  16.909  0.00  0.00    +0.000 A 
ATOM     13  C   UNL     1       5.446   6.416  15.969  0.00  0.00    +0.000 A 
BRANCH   8  14
ATOM     14  C   UNL     1       6.710   4.669  14.636  0.00  0.00    +0.000 C 
ATOM     15  O   UNL     1       7.743   5.286  14.425  0.00  0.00    +0.000 OA
BRANCH  14  17
ATOM     16  C   UNL     1       6.174   3.633  12.603  0.00  0.00    +0.000 C 
ATOM     17  O   UNL     1       6.332   3.520  14.018  0.00  0.00    +0.000 OA
ENDBRANCH  14  17
ENDBRANCH   8  14
ENDBRANCH   7  11
ENDBRANCH   1   7
BRANCH   4  18
ATOM     18  O   UNL     1      -0.405   9.470  19.118  0.00  0.00    +0.000 OA
BRANCH  18  19
ATOM     19  C   UNL     1      -1.430  10.363  18.951  0.00  0.00    +0.000 A 
ATOM     20  C   UNL     1      -2.454  10.240  18.014  0.00  0.00    +0.000 A 
ATOM     21  C   UNL     1      -3.481  11.181  17.960  0.00  0.00    +0.000 A 
ATOM     22  C   UNL     1      -3.495  12.256  18.844  0.00  0.00    +0.000 A 
ATOM     23  C   UNL     1      -2.435  12.453  19.731  0.00  0.00    +0.000 A 
ATOM     24  C   UNL     1      -1.426  11.475  19.809  0.00  0.00    +0.000 A 
BRANCH  23  25
ATOM     25  C   UNL     1      -2.381  13.634  20.649  0.00  0.00    +0.000 C 
ATOM     26  O   UNL     1      -1.722  14.602  20.269  0.00  0.00    +0.000 OA
ATOM     27  N   UNL     1      -3.071  13.640  21.862  0.00  0.00    +0.000 N 
ATOM     28  C   UNL     1      -4.009  12.633  22.386  0.00  0.00    +0.000 C 
ATOM     29  C   UNL     1      -5.298  13.269  22.915  0.00  0.00    +0.000 C 
ATOM     30  O   UNL     1      -5.029  14.317  23.854  0.00  0.00    +0.000 OA
ATOM     31  C   UNL     1      -4.228  15.340  23.239  0.00  0.00    +0.000 C 
ATOM     32  C   UNL     1      -2.879  14.771  22.788  0.00  0.00    +0.000 C 
ENDBRANCH  23  25
ENDBRANCH  18  19
ENDBRANCH   4  18
TORSDOF 7
ENDMDL
MODEL 3
REMARK VINA RESULT:      -8.1      2.804     11.118
REMARK  Name = 
REMARK  8 active torsions:
REMARK  status: ('A' for Active; 'I' for Inactive)
REMARK    1  A    between atoms: C_1  and  O_2
REMARK    2  A    between atoms: O_2  and  C_3
REMARK    3  A    between atoms: C_3  and  C_5
REMARK    4  A    between atoms: C_8  and  C_9
REMARK    5  A    between atoms: C_9  and  N_10
REMARK    6  A    between atoms: C_13  and  O_14
REMARK    7  A    between atoms: O_14  and  C_15
REMARK    8  A    between atoms: C_19  and  C_20
REMARK                            x       y       z     vdW  Elec       q    Type
REMARK                         _______ _______ _______ _____ _____    ______ ____
ROOT
ATOM      1  N   UNL     1       0.428  11.843  19.257  0.00  0.00    +0.000 NA
ATOM      2  C   UNL     1       1.819  11.610  18.856  0.00  0.00    +0.000 C 
ATOM      3  C   UNL     1       1.977  10.487  17.833  0.00  0.00    +0.000 C 
ATOM      4  C   UNL     1       1.322   9.194  18.322  0.00  0.00    +0.000 C 
ATOM      5  C   UNL     1      -0.147   9.495  18.614  0.00  0.00    +0.000 C 
ATOM      6  C   UNL     1      -0.301  10.627  19.629  0.00  0.00    +0.000 C 
ENDROOT
BRANCH   1   7
ATOM      7  C   UNL     1       0.305  12.902  20.282  0.00  0.00    +0.000 C 
BRANCH   7  11
ATOM      8  C   UNL     1      -3.282  12.902  22.744  0.00  0.00    +0.000 A 
ATOM      9  C   UNL     1      -2.032  12.630  23.308  0.00  0.00    +0.000 A 
ATOM     10  C   UNL     1      -0.880  12.636  22.513  0.00  0.00    +0.000 A 
ATOM     11  C   UNL     1      -0.955  12.901  21.136  0.00  0.00    +0.000 A 
ATOM     12  C   UNL     1      -2.213  13.165  20.575  0.00  0.00    +0.000 A 
ATOM     13  C   UNL     1      -3.367  13.165  21.369  0.00  0.00    +0.000 A 
BRANCH   8  14
ATOM     14  C   UNL     1      -4.473  12.920  23.638  0.00  0.00    +0.000 C 
ATOM     15  O   UNL     1      -4.705  12.062  24.475  0.00  0.00    +0.000 OA
BRANCH  14  17
ATOM     16  C   UNL     1      -4.760  15.209  24.053  0.00  0.00    +0.000 C 
ATOM     17  O   UNL     1      -5.227  14.025  23.404  0.00  0.00    +0.000 OA
ENDBRANCH  14  17
ENDBRANCH   8  14
ENDBRANCH   7  11
ENDBRANCH   1   7
BRANCH   4  18
ATOM     18  O   UNL     1       1.937   8.694  19.524  0.00  0.00    +0.000 OA
BRANCH  18  19
ATOM     19  C   UNL     1       2.104   7.343  19.671  0.00  0.00    +0.000 A 
ATOM     20  C   UNL     1       1.638   6.591  20.748  0.00  0.00    +0.000 A 
ATOM     21  C   UNL     1       1.816   5.209  20.777  0.00  0.00    +0.000 A 
ATOM     22  C   UNL     1       2.462   4.563  19.727  0.00  0.00    +0.000 A 
ATOM     23  C   UNL     1       3.019   5.301  18.681  0.00  0.00    +0.000 A 
ATOM     24  C   UNL     1       2.796   6.690  18.637  0.00  0.00    +0.000 A 
BRANCH  23  25
ATOM     25  C   UNL     1       3.780   4.648  17.570  0.00  0.00    +0.000 C 
ATOM     26  O   UNL     1       3.152   3.876  16.845  0.00  0.00    +0.000 OA
ATOM     27  N   UNL     1       5.130   4.930  17.353  0.00  0.00    +0.000 N 
ATOM     28  C   UNL     1       5.975   5.928  18.031  0.00  0.00    +0.000 C 
ATOM     29  C   UNL     1       6.777   6.772  17.034  0.00  0.00    +0.000 C 
ATOM     30  O   UNL     1       7.512   5.955  16.115  0.00  0.00    +0.000 OA
ATOM     31  C   UNL     1       6.615   5.104  15.382  0.00  0.00    +0.000 C 
ATOM     32  C   UNL     1       5.866   4.164  16.331  0.00  0.00    +0.000 C 
ENDBRANCH  23  25
ENDBRANCH  18  19
ENDBRANCH   4  18
TORSDOF 7
ENDMDL
MODEL 4
REMARK VINA RESULT:      -8.1      4.128      5.758
REMARK  Name = 
REMARK  8 active torsions:
REMARK  status: ('A' for Active; 'I' for Inactive)
REMARK    1  A    between atoms: C_1  and  O_2
REMARK    2  A    between atoms: O_2  and  C_3
REMARK    3  A    between atoms: C_3  and  C_5
REMARK    4  A    between atoms: C_8  and  C_9
REMARK    5  A    between atoms: C_9  and  N_10
REMARK    6  A    between atoms: C_13  and  O_14
REMARK    7  A    between atoms: O_14  and  C_15
REMARK    8  A    between atoms: C_19  and  C_20
REMARK                            x       y       z     vdW  Elec       q    Type
REMARK                         _______ _______ _______ _____ _____    ______ ____
ROOT
ATOM      1  N   UNL     1       4.821   4.570  18.035  0.00  0.00    +0.000 NA
ATOM      2  C   UNL     1       4.759   4.859  19.471  0.00  0.00    +0.000 C 
ATOM      3  C   UNL     1       3.353   4.739  20.056  0.00  0.00    +0.000 C 
ATOM      4  C   UNL     1       2.352   5.595  19.277  0.00  0.00    +0.000 C 
ATOM      5  C   UNL     1       2.399   5.159  17.815  0.00  0.00    +0.000 C 
ATOM      6  C   UNL     1       3.810   5.270  17.237  0.00  0.00    +0.000 C 
ENDROOT
BRANCH   1   7
ATOM      7  C   UNL     1       6.182   4.739  17.482  0.00  0.00    +0.000 C 
BRANCH   7  11
ATOM      8  C   UNL     1       8.183   8.519  18.274  0.00  0.00    +0.000 A 
ATOM      9  C   UNL     1       7.193   8.431  17.291  0.00  0.00    +0.000 A 
ATOM     10  C   UNL     1       6.548   7.214  17.044  0.00  0.00    +0.000 A 
ATOM     11  C   UNL     1       6.889   6.058  17.764  0.00  0.00    +0.000 A 
ATOM     12  C   UNL     1       7.889   6.151  18.743  0.00  0.00    +0.000 A 
ATOM     13  C   UNL     1       8.533   7.370  18.996  0.00  0.00    +0.000 A 
BRANCH   8  14
ATOM     14  C   UNL     1       8.814   9.845  18.527  0.00  0.00    +0.000 C 
ATOM     15  O   UNL     1       8.878  10.735  17.693  0.00  0.00    +0.000 OA
BRANCH  14  17
ATOM     16  C   UNL     1       9.636  11.235  20.225  0.00  0.00    +0.000 C 
ATOM     17  O   UNL     1       9.269   9.921  19.804  0.00  0.00    +0.000 OA
ENDBRANCH  14  17
ENDBRANCH   8  14
ENDBRANCH   7  11
ENDBRANCH   1   7
BRANCH   4  18
ATOM     18  O   UNL     1       2.668   6.999  19.349  0.00  0.00    +0.000 OA
BRANCH  18  19
ATOM     19  C   UNL     1       1.794   7.843  19.980  0.00  0.00    +0.000 A 
ATOM     20  C   UNL     1       1.254   7.634  21.249  0.00  0.00    +0.000 A 
ATOM     21  C   UNL     1       0.411   8.583  21.824  0.00  0.00    +0.000 A 
ATOM     22  C   UNL     1       0.099   9.753  21.138  0.00  0.00    +0.000 A 
ATOM     23  C   UNL     1       0.552   9.946  19.832  0.00  0.00    +0.000 A 
ATOM     24  C   UNL     1       1.438   9.004  19.275  0.00  0.00    +0.000 A 
BRANCH  23  25
ATOM     25  C   UNL     1       0.182  11.159  19.037  0.00  0.00    +0.000 C 
ATOM     26  O   UNL     1      -0.743  11.036  18.234  0.00  0.00    +0.000 OA
ATOM     27  N   UNL     1       0.839  12.376  19.224  0.00  0.00    +0.000 N 
ATOM     28  C   UNL     1       1.853  12.722  20.235  0.00  0.00    +0.000 C 
ATOM     29  C   UNL     1       1.535  14.046  20.937  0.00  0.00    +0.000 C 
ATOM     30  O   UNL     1       1.306  15.104  19.998  0.00  0.00    +0.000 OA
ATOM     31  C   UNL     1       0.210  14.768  19.131  0.00  0.00    +0.000 C 
ATOM     32  C   UNL     1       0.527  13.503  18.327  0.00  0.00    +0.000 C 
ENDBRANCH  23  25
ENDBRANCH  18  19
ENDBRANCH   4  18
TORSDOF 7
ENDMDL
MODEL 5
REMARK VINA RESULT:      -8.0      4.010      5.689
REMARK  Name = 
REMARK  8 active torsions:
REMARK  status: ('A' for Active; 'I' for Inactive)
REMARK    1  A    between atoms: C_1  and  O_2
REMARK    2  A    between atoms: O_2  and  C_3
REMARK    3  A    between atoms: C_3  and  C_5
REMARK    4  A    between atoms: C_8  and  C_9
REMARK    5  A    between atoms: C_9  and  N_10
REMARK    6  A    between atoms: C_13  and  O_14
REMARK    7  A    between atoms: O_14  and  C_15
REMARK    8  A    between atoms: C_19  and  C_20
REMARK                            x       y       z     vdW  Elec       q    Type
REMARK                         _______ _______ _______ _____ _____    ______ ____
ROOT
ATOM      1  N   UNL     1       4.894   4.648  17.992  0.00  0.00    +0.000 NA
ATOM      2  C   UNL     1       4.814   4.942  19.426  0.00  0.00    +0.000 C 
ATOM      3  C   UNL     1       3.406   4.794  20.000  0.00  0.00    +0.000 C 
ATOM      4  C   UNL     1       2.394   5.626  19.210  0.00  0.00    +0.000 C 
ATOM      5  C   UNL     1       2.462   5.185  17.750  0.00  0.00    +0.000 C 
ATOM      6  C   UNL     1       3.875   5.323  17.183  0.00  0.00    +0.000 C 
ENDROOT
BRANCH   1   7
ATOM      7  C   UNL     1       6.255   4.843  17.450  0.00  0.00    +0.000 C 
BRANCH   7  11
ATOM      8  C   UNL     1       8.286   8.561  18.439  0.00  0.00    +0.000 A 
ATOM      9  C   UNL     1       8.537   7.397  19.171  0.00  0.00    +0.000 A 
ATOM     10  C   UNL     1       7.885   6.202  18.846  0.00  0.00    +0.000 A 
ATOM     11  C   UNL     1       6.960   6.149  17.791  0.00  0.00    +0.000 A 
ATOM     12  C   UNL     1       6.707   7.322  17.066  0.00  0.00    +0.000 A 
ATOM     13  C   UNL     1       7.361   8.519  17.386  0.00  0.00    +0.000 A 
BRANCH   8  14
ATOM     14  C   UNL     1       9.032   9.799  18.799  0.00  0.00    +0.000 C 
ATOM     15  O   UNL     1       9.330  10.101  19.944  0.00  0.00    +0.000 OA
BRANCH  14  17
ATOM     16  C   UNL     1      10.435  11.417  17.848  0.00  0.00    +0.000 C 
ATOM     17  O   UNL     1       9.346  10.507  17.684  0.00  0.00    +0.000 OA
ENDBRANCH  14  17
ENDBRANCH   8  14
ENDBRANCH   7  11
ENDBRANCH   1   7
BRANCH   4  18
ATOM     18  O   UNL     1       2.679   7.037  19.278  0.00  0.00    +0.000 OA
BRANCH  18  19
ATOM     19  C   UNL     1       1.802   7.860  19.931  0.00  0.00    +0.000 A 
ATOM     20  C   UNL     1       1.332   7.660  21.229  0.00  0.00    +0.000 A 
ATOM     21  C   UNL     1       0.478   8.588  21.823  0.00  0.00    +0.000 A 
ATOM     22  C   UNL     1       0.085   9.727  21.126  0.00  0.00    +0.000 A 
ATOM     23  C   UNL     1       0.466   9.905  19.795  0.00  0.00    +0.000 A 
ATOM     24  C   UNL     1       1.364   8.987  19.218  0.00  0.00    +0.000 A 
BRANCH  23  25
ATOM     25  C   UNL     1       0.007  11.082  18.991  0.00  0.00    +0.000 C 
ATOM     26  O   UNL     1      -0.921  10.889  18.206  0.00  0.00    +0.000 OA
ATOM     27  N   UNL     1       0.589  12.340  19.152  0.00  0.00    +0.000 N 
ATOM     28  C   UNL     1       1.596  12.762  20.141  0.00  0.00    +0.000 C 
ATOM     29  C   UNL     1       1.207  14.074  20.831  0.00  0.00    +0.000 C 
ATOM     30  O   UNL     1       0.896  15.102  19.883  0.00  0.00    +0.000 OA
ATOM     31  C   UNL     1      -0.190  14.686  19.039  0.00  0.00    +0.000 C 
ATOM     32  C   UNL     1       0.193  13.433  18.245  0.00  0.00    +0.000 C 
ENDBRANCH  23  25
ENDBRANCH  18  19
ENDBRANCH   4  18
TORSDOF 7
ENDMDL
MODEL 6
REMARK VINA RESULT:      -7.9      2.739      5.104
REMARK  Name = 
REMARK  8 active torsions:
REMARK  status: ('A' for Active; 'I' for Inactive)
REMARK    1  A    between atoms: C_1  and  O_2
REMARK    2  A    between atoms: O_2  and  C_3
REMARK    3  A    between atoms: C_3  and  C_5
REMARK    4  A    between atoms: C_8  and  C_9
REMARK    5  A    between atoms: C_9  and  N_10
REMARK    6  A    between atoms: C_13  and  O_14
REMARK    7  A    between atoms: O_14  and  C_15
REMARK    8  A    between atoms: C_19  and  C_20
REMARK                            x       y       z     vdW  Elec       q    Type
REMARK                         _______ _______ _______ _____ _____    ______ ____
ROOT
ATOM      1  N   UNL     1       2.402   2.662  19.182  0.00  0.00    +0.000 NA
ATOM      2  C   UNL     1       3.003   2.841  20.507  0.00  0.00    +0.000 C 
ATOM      3  C   UNL     1       2.065   3.498  21.518  0.00  0.00    +0.000 C 
ATOM      4  C   UNL     1       1.509   4.819  20.982  0.00  0.00    +0.000 C 
ATOM      5  C   UNL     1       0.806   4.529  19.658  0.00  0.00    +0.000 C 
ATOM      6  C   UNL     1       1.745   3.861  18.654  0.00  0.00    +0.000 C 
ENDROOT
BRANCH   1   7
ATOM      7  C   UNL     1       3.343   2.068  18.209  0.00  0.00    +0.000 C 
BRANCH   7  11
ATOM      8  C   UNL     1       6.286   4.720  16.411  0.00  0.00    +0.000 A 
ATOM      9  C   UNL     1       5.255   4.174  15.639  0.00  0.00    +0.000 A 
ATOM     10  C   UNL     1       4.308   3.325  16.224  0.00  0.00    +0.000 A 
ATOM     11  C   UNL     1       4.378   2.995  17.587  0.00  0.00    +0.000 A 
ATOM     12  C   UNL     1       5.419   3.541  18.352  0.00  0.00    +0.000 A 
ATOM     13  C   UNL     1       6.366   4.394  17.772  0.00  0.00    +0.000 A 
BRANCH   8  14
ATOM     14  C   UNL     1       7.247   5.648  15.752  0.00  0.00    +0.000 C 
ATOM     15  O   UNL     1       7.617   5.530  14.594  0.00  0.00    +0.000 OA
BRANCH  14  17
ATOM     16  C   UNL     1       6.531   7.387  17.150  0.00  0.00    +0.000 C 
ATOM     17  O   UNL     1       7.617   6.636  16.607  0.00  0.00    +0.000 OA
ENDBRANCH  14  17
ENDBRANCH   8  14
ENDBRANCH   7  11
ENDBRANCH   1   7
BRANCH   4  18
ATOM     18  O   UNL     1       2.547   5.791  20.749  0.00  0.00    +0.000 OA
BRANCH  18  19
ATOM     19  C   UNL     1       2.258   6.904  20.007  0.00  0.00    +0.000 A 
ATOM     20  C   UNL     1       2.587   7.079  18.663  0.00  0.00    +0.000 A 
ATOM     21  C   UNL     1       2.200   8.232  17.984  0.00  0.00    +0.000 A 
ATOM     22  C   UNL     1       1.478   9.225  18.640  0.00  0.00    +0.000 A 
ATOM     23  C   UNL     1       1.215   9.118  20.007  0.00  0.00    +0.000 A 
ATOM     24  C   UNL     1       1.570   7.930  20.675  0.00  0.00    +0.000 A 
BRANCH  23  25
ATOM     25  C   UNL     1       0.502  10.196  20.763  0.00  0.00    +0.000 C 
ATOM     26  O   UNL     1       1.044  10.605  21.789  0.00  0.00    +0.000 OA
ATOM     27  N   UNL     1      -0.704  10.726  20.303  0.00  0.00    +0.000 N 
ATOM     28  C   UNL     1      -1.399  10.451  19.034  0.00  0.00    +0.000 C 
ATOM     29  C   UNL     1      -1.837  11.739  18.328  0.00  0.00    +0.000 C 
ATOM     30  O   UNL     1      -2.589  12.593  19.198  0.00  0.00    +0.000 OA
ATOM     31  C   UNL     1      -1.803  12.942  20.350  0.00  0.00    +0.000 C 
ATOM     32  C   UNL     1      -1.431  11.690  21.149  0.00  0.00    +0.000 C 
ENDBRANCH  23  25
ENDBRANCH  18  19
ENDBRANCH   4  18
TORSDOF 7
ENDMDL
MODEL 7
REMARK VINA RESULT:      -7.9      5.104      7.189
REMARK  Name = 
REMARK  8 active torsions:
REMARK  status: ('A' for Active; 'I' for Inactive)
REMARK    1  A    between atoms: C_1  and  O_2
REMARK    2  A    between atoms: O_2  and  C_3
REMARK    3  A    between atoms: C_3  and  C_5
REMARK    4  A    between atoms: C_8  and  C_9
REMARK    5  A    between atoms: C_9  and  N_10
REMARK    6  A    between atoms: C_13  and  O_14
REMARK    7  A    between atoms: O_14  and  C_15
REMARK    8  A    between atoms: C_19  and  C_20
REMARK                            x       y       z     vdW  Elec       q    Type
REMARK                         _______ _______ _______ _____ _____    ______ ____
ROOT
ATOM      1  N   UNL     1       0.932   8.652  20.800  0.00  0.00    +0.000 NA
ATOM      2  C   UNL     1       0.891   9.050  22.210  0.00  0.00    +0.000 C 
ATOM      3  C   UNL     1      -0.321   9.910  22.565  0.00  0.00    +0.000 C 
ATOM      4  C   UNL     1      -0.425  11.128  21.646  0.00  0.00    +0.000 C 
ATOM      5  C   UNL     1      -0.487  10.625  20.206  0.00  0.00    +0.000 C 
ATOM      6  C   UNL     1       0.722   9.756  19.859  0.00  0.00    +0.000 C 
ENDROOT
BRANCH   1   7
ATOM      7  C   UNL     1       2.138   7.862  20.470  0.00  0.00    +0.000 C 
BRANCH   7  11
ATOM      8  C   UNL     1       1.534   3.849  18.903  0.00  0.00    +0.000 A 
ATOM      9  C   UNL     1       2.014   4.870  18.077  0.00  0.00    +0.000 A 
ATOM     10  C   UNL     1       2.211   6.159  18.588  0.00  0.00    +0.000 A 
ATOM     11  C   UNL     1       1.921   6.455  19.929  0.00  0.00    +0.000 A 
ATOM     12  C   UNL     1       1.433   5.428  20.749  0.00  0.00    +0.000 A 
ATOM     13  C   UNL     1       1.239   4.136  20.243  0.00  0.00    +0.000 A 
BRANCH   8  14
ATOM     14  C   UNL     1       1.376   2.486  18.324  0.00  0.00    +0.000 C 
ATOM     15  O   UNL     1       0.346   1.833  18.398  0.00  0.00    +0.000 OA
BRANCH  14  17
ATOM     16  C   UNL     1       3.513   1.551  18.549  0.00  0.00    +0.000 C 
ATOM     17  O   UNL     1       2.514   2.103  17.690  0.00  0.00    +0.000 OA
ENDBRANCH  14  17
ENDBRANCH   8  14
ENDBRANCH   7  11
ENDBRANCH   1   7
BRANCH   4  18
ATOM     18  O   UNL     1       0.708  12.007  21.779  0.00  0.00    +0.000 OA
BRANCH  18  19
ATOM     19  C   UNL     1       0.781  13.120  20.984  0.00  0.00    +0.000 A 
ATOM     20  C   UNL     1      -0.283  13.979  20.710  0.00  0.00    +0.000 A 
ATOM     21  C   UNL     1      -0.091  15.116  19.927  0.00  0.00    +0.000 A 
ATOM     22  C   UNL     1       1.169  15.408  19.411  0.00  0.00    +0.000 A 
ATOM     23  C   UNL     1       2.229  14.518  19.593  0.00  0.00    +0.000 A 
ATOM     24  C   UNL     1       2.038  13.396  20.421  0.00  0.00    +0.000 A 
BRANCH  23  25
ATOM     25  C   UNL     1       3.579  14.764  18.996  0.00  0.00    +0.000 C 
ATOM     26  O   UNL     1       3.809  14.235  17.908  0.00  0.00    +0.000 OA
ATOM     27  N   UNL     1       4.517  15.578  19.633  0.00  0.00    +0.000 N 
ATOM     28  C   UNL     1       4.344  16.390  20.849  0.00  0.00    +0.000 C 
ATOM     29  C   UNL     1       4.867  17.819  20.664  0.00  0.00    +0.000 C 
ATOM     30  O   UNL     1       6.213  17.834  20.173  0.00  0.00    +0.000 OA
ATOM     31  C   UNL     1       6.288  17.148  18.913  0.00  0.00    +0.000 C 
ATOM     32  C   UNL     1       5.875  15.681  19.071  0.00  0.00    +0.000 C 
ENDBRANCH  23  25
ENDBRANCH  18  19
ENDBRANCH   4  18
TORSDOF 7
ENDMDL
MODEL 8
REMARK VINA RESULT:      -7.9      2.720     10.998
REMARK  Name = 
REMARK  8 active torsions:
REMARK  status: ('A' for Active; 'I' for Inactive)
REMARK    1  A    between atoms: C_1  and  O_2
REMARK    2  A    between atoms: O_2  and  C_3
REMARK    3  A    between atoms: C_3  and  C_5
REMARK    4  A    between atoms: C_8  and  C_9
REMARK    5  A    between atoms: C_9  and  N_10
REMARK    6  A    between atoms: C_13  and  O_14
REMARK    7  A    between atoms: O_14  and  C_15
REMARK    8  A    between atoms: C_19  and  C_20
REMARK                            x       y       z     vdW  Elec       q    Type
REMARK                         _______ _______ _______ _____ _____    ______ ____
ROOT
ATOM      1  N   UNL     1       0.732  11.786  18.779  0.00  0.00    +0.000 NA
ATOM      2  C   UNL     1       2.127  11.363  18.622  0.00  0.00    +0.000 C 
ATOM      3  C   UNL     1       2.298  10.158  17.699  0.00  0.00    +0.000 C 
ATOM      4  C   UNL     1       1.415   8.990  18.141  0.00  0.00    +0.000 C 
ATOM      5  C   UNL     1      -0.031   9.482  18.173  0.00  0.00    +0.000 C 
ATOM      6  C   UNL     1      -0.194  10.694  19.090  0.00  0.00    +0.000 C 
ENDROOT
BRANCH   1   7
ATOM      7  C   UNL     1       0.588  12.923  19.714  0.00  0.00    +0.000 C 
BRANCH   7  11
ATOM      8  C   UNL     1      -3.079  13.112  22.046  0.00  0.00    +0.000 A 
ATOM      9  C   UNL     1      -3.082  13.444  20.687  0.00  0.00    +0.000 A 
ATOM     10  C   UNL     1      -1.901  13.376  19.940  0.00  0.00    +0.000 A 
ATOM     11  C   UNL     1      -0.691  12.989  20.537  0.00  0.00    +0.000 A 
ATOM     12  C   UNL     1      -0.693  12.665  21.902  0.00  0.00    +0.000 A 
ATOM     13  C   UNL     1      -1.875  12.727  22.652  0.00  0.00    +0.000 A 
BRANCH   8  14
ATOM     14  C   UNL     1      -4.369  13.163  22.790  0.00  0.00    +0.000 C 
ATOM     15  O   UNL     1      -5.200  14.046  22.645  0.00  0.00    +0.000 OA
BRANCH  14  17
ATOM     16  C   UNL     1      -4.628  12.413  24.994  0.00  0.00    +0.000 C 
ATOM     17  O   UNL     1      -4.488  12.088  23.611  0.00  0.00    +0.000 OA
ENDBRANCH  14  17
ENDBRANCH   8  14
ENDBRANCH   7  11
ENDBRANCH   1   7
BRANCH   4  18
ATOM     18  O   UNL     1       1.767   8.508  19.452  0.00  0.00    +0.000 OA
BRANCH  18  19
ATOM     19  C   UNL     1       2.049   7.179  19.615  0.00  0.00    +0.000 A 
ATOM     20  C   UNL     1       1.685   6.413  20.722  0.00  0.00    +0.000 A 
ATOM     21  C   UNL     1       1.976   5.052  20.769  0.00  0.00    +0.000 A 
ATOM     22  C   UNL     1       2.636   4.438  19.707  0.00  0.00    +0.000 A 
ATOM     23  C   UNL     1       3.092   5.198  18.628  0.00  0.00    +0.000 A 
ATOM     24  C   UNL     1       2.755   6.563  18.569  0.00  0.00    +0.000 A 
BRANCH  23  25
ATOM     25  C   UNL     1       3.865   4.587  17.501  0.00  0.00    +0.000 C 
ATOM     26  O   UNL     1       3.246   3.834  16.748  0.00  0.00    +0.000 OA
ATOM     27  N   UNL     1       5.214   4.884  17.302  0.00  0.00    +0.000 N 
ATOM     28  C   UNL     1       6.048   5.865  18.016  0.00  0.00    +0.000 C 
ATOM     29  C   UNL     1       6.850   6.746  17.053  0.00  0.00    +0.000 C 
ATOM     30  O   UNL     1       7.596   5.964  16.112  0.00  0.00    +0.000 OA
ATOM     31  C   UNL     1       6.709   5.131  15.346  0.00  0.00    +0.000 C 
ATOM     32  C   UNL     1       5.961   4.156  16.260  0.00  0.00    +0.000 C 
ENDBRANCH  23  25
ENDBRANCH  18  19
ENDBRANCH   4  18
TORSDOF 7
ENDMDL
MODEL 9
REMARK VINA RESULT:      -7.8      3.811      5.393
REMARK  Name = 
REMARK  8 active torsions:
REMARK  status: ('A' for Active; 'I' for Inactive)
REMARK    1  A    between atoms: C_1  and  O_2
REMARK    2  A    between atoms: O_2  and  C_3
REMARK    3  A    between atoms: C_3  and  C_5
REMARK    4  A    between atoms: C_8  and  C_9
REMARK    5  A    between atoms: C_9  and  N_10
REMARK    6  A    between atoms: C_13  and  O_14
REMARK    7  A    between atoms: O_14  and  C_15
REMARK    8  A    between atoms: C_19  and  C_20
REMARK                            x       y       z     vdW  Elec       q    Type
REMARK                         _______ _______ _______ _____ _____    ______ ____
ROOT
ATOM      1  N   UNL     1       4.379   5.063  18.284  0.00  0.00    +0.000 NA
ATOM      2  C   UNL     1       4.351   5.122  19.748  0.00  0.00    +0.000 C 
ATOM      3  C   UNL     1       2.949   4.977  20.337  0.00  0.00    +0.000 C 
ATOM      4  C   UNL     1       1.982   5.993  19.726  0.00  0.00    +0.000 C 
ATOM      5  C   UNL     1       1.988   5.794  18.212  0.00  0.00    +0.000 C 
ATOM      6  C   UNL     1       3.394   5.929  17.629  0.00  0.00    +0.000 C 
ENDROOT
BRANCH   1   7
ATOM      7  C   UNL     1       5.740   5.254  17.737  0.00  0.00    +0.000 C 
BRANCH   7  11
ATOM      8  C   UNL     1       6.391   4.031  13.613  0.00  0.00    +0.000 A 
ATOM      9  C   UNL     1       5.310   3.526  14.342  0.00  0.00    +0.000 A 
ATOM     10  C   UNL     1       5.102   3.927  15.667  0.00  0.00    +0.000 A 
ATOM     11  C   UNL     1       5.976   4.829  16.294  0.00  0.00    +0.000 A 
ATOM     12  C   UNL     1       7.062   5.326  15.559  0.00  0.00    +0.000 A 
ATOM     13  C   UNL     1       7.270   4.931  14.231  0.00  0.00    +0.000 A 
BRANCH   8  14
ATOM     14  C   UNL     1       6.548   3.604  12.195  0.00  0.00    +0.000 C 
ATOM     15  O   UNL     1       7.449   3.992  11.466  0.00  0.00    +0.000 OA
BRANCH  14  17
ATOM     16  C   UNL     1       6.065   1.491  11.304  0.00  0.00    +0.000 C 
ATOM     17  O   UNL     1       5.579   2.716  11.854  0.00  0.00    +0.000 OA
ENDBRANCH  14  17
ENDBRANCH   8  14
ENDBRANCH   7  11
ENDBRANCH   1   7
BRANCH   4  18
ATOM     18  O   UNL     1       2.368   7.350  20.013  0.00  0.00    +0.000 OA
BRANCH  18  19
ATOM     19  C   UNL     1       1.434   8.211  20.524  0.00  0.00    +0.000 A 
ATOM     20  C   UNL     1       0.799   8.064  21.757  0.00  0.00    +0.000 A 
ATOM     21  C   UNL     1      -0.101   9.026  22.209  0.00  0.00    +0.000 A 
ATOM     22  C   UNL     1      -0.376  10.149  21.434  0.00  0.00    +0.000 A 
ATOM     23  C   UNL     1       0.175  10.277  20.158  0.00  0.00    +0.000 A 
ATOM     24  C   UNL     1       1.117   9.323  19.727  0.00  0.00    +0.000 A 
BRANCH  23  25
ATOM     25  C   UNL     1      -0.151  11.435  19.267  0.00  0.00    +0.000 C 
ATOM     26  O   UNL     1      -1.066  11.275  18.460  0.00  0.00    +0.000 OA
ATOM     27  N   UNL     1       0.536  12.646  19.373  0.00  0.00    +0.000 N 
ATOM     28  C   UNL     1       1.543  13.041  20.372  0.00  0.00    +0.000 C 
ATOM     29  C   UNL     1       1.251  14.423  20.966  0.00  0.00    +0.000 C 
ATOM     30  O   UNL     1       1.064  15.412  19.947  0.00  0.00    +0.000 OA
ATOM     31  C   UNL     1      -0.027  15.038  19.088  0.00  0.00    +0.000 C 
ATOM     32  C   UNL     1       0.268  13.709  18.388  0.00  0.00    +0.000 C 
ENDBRANCH  23  25
ENDBRANCH  18  19
ENDBRANCH   4  18
TORSDOF 7
ENDMDL
