MODEL 1
REMARK VINA RESULT:      -7.3      0.000      0.000
REMARK  Name = 
REMARK  12 active torsions:
REMARK  status: ('A' for Active; 'I' for Inactive)
REMARK    1  A    between atoms: C_1  and  C_2
REMARK    2  A    between atoms: C_7  and  C_8
REMARK    3  A    between atoms: C_8  and  C_9
REMARK    4  A    between atoms: C_9  and  C_10
REMARK    5  A    between atoms: N_12  and  C_13
REMARK    6  A    between atoms: N_12  and  C_16
REMARK    7  A    between atoms: C_13  and  C_14
REMARK    8  A    between atoms: C_14  and  O_15
REMARK    9  A    between atoms: C_16  and  C_17
REMARK   10  A    between atoms: C_16  and  C_18
REMARK   11  A    between atoms: N_22  and  C_23
REMARK   12  A    between atoms: C_23  and  C_24
REMARK                            x       y       z     vdW  Elec       q    Type
REMARK                         _______ _______ _______ _____ _____    ______ ____
ROOT
ATOM      1  C   UNL     1       0.415  10.559  19.139  0.00  0.00    +0.000 C 
ATOM      2  C   UNL     1       0.305  10.173  20.637  0.00  0.00    +0.000 C 
ATOM      3  C   UNL     1       0.996   8.864  20.795  0.00  0.00    +0.000 C 
ATOM      4  O   UNL     1       1.142   8.310  21.870  0.00  0.00    +0.000 OA
ATOM      5  N   UNL     1       1.482   8.447  19.602  0.00  0.00    +0.000 N 
ATOM      6  C   UNL     1       1.325   9.411  18.640  0.00  0.00    +0.000 C 
ATOM      7  O   UNL     1       1.994   9.443  17.612  0.00  0.00    +0.000 OA
ENDROOT
BRANCH   1  14
ATOM      8  C   UNL     1      -1.980  12.412  20.181  0.00  0.00    +0.000 C 
ATOM      9  C   UNL     1      -2.065  11.488  18.997  0.00  0.00    +0.000 A 
ATOM     10  C   UNL     1      -3.351  11.358  18.408  0.00  0.00    +0.000 A 
ATOM     11  C   UNL     1      -3.590  10.533  17.314  0.00  0.00    +0.000 A 
ATOM     12  C   UNL     1      -2.537   9.838  16.759  0.00  0.00    +0.000 A 
ATOM     13  C   UNL     1      -1.271   9.954  17.328  0.00  0.00    +0.000 A 
ATOM     14  C   UNL     1      -0.983  10.749  18.475  0.00  0.00    +0.000 A 
ENDBRANCH   1  14
BRANCH   1  15
ATOM     15  C   UNL     1       1.266  11.866  18.931  0.00  0.00    +0.000 C 
BRANCH  15  16
ATOM     16  C   UNL     1       1.527  12.713  20.174  0.00  0.00    +0.000 C 
ATOM     17  O   UNL     1       2.195  12.277  21.109  0.00  0.00    +0.000 OA
ATOM     18  N   UNL     1       1.016  14.010  20.218  0.00  0.00    +0.000 N 
BRANCH  18  19
ATOM     19  C   UNL     1       0.733  14.818  19.008  0.00  0.00    +0.000 C 
ATOM     20  C   UNL     1      -0.386  15.844  19.203  0.00  0.00    +0.000 C 
ATOM     21  C   UNL     1       2.006  15.486  18.480  0.00  0.00    +0.000 C 
ENDBRANCH  18  19
BRANCH  18  22
ATOM     22  C   UNL     1       0.948  14.668  21.544  0.00  0.00    +0.000 C 
BRANCH  22  23
ATOM     23  C   UNL     1       2.174  15.495  21.972  0.00  0.00    +0.000 C 
BRANCH  23  24
ATOM     24  O   UNL     1       3.204  14.681  22.518  0.00  0.00    +0.000 OA
ATOM     25  H   UNL     1       3.978  14.836  21.948  0.00  0.00    +0.000 HD
ENDBRANCH  23  24
ENDBRANCH  22  23
ENDBRANCH  18  22
ENDBRANCH  15  16
ENDBRANCH   1  15
BRANCH   5  26
ATOM     26  C   UNL     1       2.510   7.420  19.564  0.00  0.00    +0.000 C 
BRANCH  26  27
ATOM     27  C   UNL     1       2.041   6.010  19.350  0.00  0.00    +0.000 A 
ATOM     28  C   UNL     1       1.590   5.211  20.408  0.00  0.00    +0.000 A 
ATOM     29  C   UNL     1       1.340   3.857  20.194  0.00  0.00    +0.000 A 
ATOM     30  C   UNL     1       1.533   3.346  18.922  0.00  0.00    +0.000 A 
ATOM     31  N   UNL     1       1.927   4.093  17.869  0.00  0.00    +0.000 NA
ATOM     32  C   UNL     1       2.168   5.403  18.105  0.00  0.00    +0.000 A 
ENDBRANCH  26  27
ENDBRANCH   5  26
TORSDOF 9
ENDMDL
MODEL 2
REMARK VINA RESULT:      -7.0      2.942      9.036
REMARK  Name = 
REMARK  12 active torsions:
REMARK  status: ('A' for Active; 'I' for Inactive)
REMARK    1  A    between atoms: C_1  and  C_2
REMARK    2  A    between atoms: C_7  and  C_8
REMARK    3  A    between atoms: C_8  and  C_9
REMARK    4  A    between atoms: C_9  and  C_10
REMARK    5  A    between atoms: N_12  and  C_13
REMARK    6  A    between atoms: N_12  and  C_16
REMARK    7  A    between atoms: C_13  and  C_14
REMARK    8  A    between atoms: C_14  and  O_15
REMARK    9  A    between atoms: C_16  and  C_17
REMARK   10  A    between atoms: C_16  and  C_18
REMARK   11  A    between atoms: N_22  and  C_23
REMARK   12  A    between atoms: C_23  and  C_24
REMARK                            x       y       z     vdW  Elec       q    Type
REMARK                         _______ _______ _______ _____ _____    ______ ____
ROOT
ATOM      1  C   UNL     1       3.441   6.161  18.319  0.00  0.00    +0.000 C 
ATOM      2  C   UNL     1       2.915   6.045  19.774  0.00  0.00    +0.000 C 
ATOM      3  C   UNL     1       2.116   7.272  20.040  0.00  0.00    +0.000 C 
ATOM      4  O   UNL     1       1.510   7.464  21.079  0.00  0.00    +0.000 OA
ATOM      5  N   UNL     1       2.111   8.071  18.947  0.00  0.00    +0.000 N 
ATOM      6  C   UNL     1       2.715   7.454  17.881  0.00  0.00    +0.000 C 
ATOM      7  O   UNL     1       2.513   7.786  16.717  0.00  0.00    +0.000 OA
ENDROOT
BRANCH   1  14
ATOM      8  C   UNL     1       5.271   6.609  15.730  0.00  0.00    +0.000 C 
ATOM      9  C   UNL     1       5.788   6.212  17.085  0.00  0.00    +0.000 A 
ATOM     10  C   UNL     1       7.171   5.895  17.148  0.00  0.00    +0.000 A 
ATOM     11  C   UNL     1       7.792   5.502  18.329  0.00  0.00    +0.000 A 
ATOM     12  C   UNL     1       7.049   5.444  19.488  0.00  0.00    +0.000 A 
ATOM     13  C   UNL     1       5.690   5.750  19.440  0.00  0.00    +0.000 A 
ATOM     14  C   UNL     1       4.997   6.114  18.249  0.00  0.00    +0.000 A 
ENDBRANCH   1  14
BRANCH   1  15
ATOM     15  C   UNL     1       2.851   5.035  17.391  0.00  0.00    +0.000 C 
BRANCH  15  16
ATOM     16  C   UNL     1       1.915   4.027  18.055  0.00  0.00    +0.000 C 
ATOM     17  O   UNL     1       0.705   4.044  17.833  0.00  0.00    +0.000 OA
ATOM     18  N   UNL     1       2.462   3.063  18.900  0.00  0.00    +0.000 N 
BRANCH  18  19
ATOM     19  C   UNL     1       3.859   2.580  18.792  0.00  0.00    +0.000 C 
ATOM     20  C   UNL     1       4.531   2.336  20.145  0.00  0.00    +0.000 C 
ATOM     21  C   UNL     1       3.946   1.337  17.902  0.00  0.00    +0.000 C 
ENDBRANCH  18  19
BRANCH  18  22
ATOM     22  C   UNL     1       1.534   2.354  19.813  0.00  0.00    +0.000 C 
BRANCH  22  23
ATOM     23  C   UNL     1       1.149   3.081  21.114  0.00  0.00    +0.000 C 
BRANCH  23  24
ATOM     24  O   UNL     1       1.468   2.316  22.269  0.00  0.00    +0.000 OA
ATOM     25  H   UNL     1       2.441   2.296  22.298  0.00  0.00    +0.000 HD
ENDBRANCH  23  24
ENDBRANCH  22  23
ENDBRANCH  18  22
ENDBRANCH  15  16
ENDBRANCH   1  15
BRANCH   5  26
ATOM     26  C   UNL     1       1.105   9.112  18.821  0.00  0.00    +0.000 C 
BRANCH  26  27
ATOM     27  C   UNL     1       1.567  10.523  19.045  0.00  0.00    +0.000 A 
ATOM     28  C   UNL     1       1.147  11.273  20.151  0.00  0.00    +0.000 A 
ATOM     29  C   UNL     1       1.452  12.631  20.221  0.00  0.00    +0.000 A 
ATOM     30  C   UNL     1       2.183  13.194  19.189  0.00  0.00    +0.000 A 
ATOM     31  N   UNL     1       2.640  12.495  18.128  0.00  0.00    +0.000 NA
ATOM     32  C   UNL     1       2.325  11.180  18.082  0.00  0.00    +0.000 A 
ENDBRANCH  26  27
ENDBRANCH   5  26
TORSDOF 9
ENDMDL
MODEL 3
REMARK VINA RESULT:      -6.9      1.023      1.294
REMARK  Name = 
REMARK  12 active torsions:
REMARK  status: ('A' for Active; 'I' for Inactive)
REMARK    1  A    between atoms: C_1  and  C_2
REMARK    2  A    between atoms: C_7  and  C_8
REMARK    3  A    between atoms: C_8  and  C_9
REMARK    4  A    between atoms: C_9  and  C_10
REMARK    5  A    between atoms: N_12  and  C_13
REMARK    6  A    between atoms: N_12  and  C_16
REMARK    7  A    between atoms: C_13  and  C_14
REMARK    8  A    between atoms: C_14  and  O_15
REMARK    9  A    between atoms: C_16  and  C_17
REMARK   10  A    between atoms: C_16  and  C_18
REMARK   11  A    between atoms: N_22  and  C_23
REMARK   12  A    between atoms: C_23  and  C_24
REMARK                            x       y       z     vdW  Elec       q    Type
REMARK                         _______ _______ _______ _____ _____    ______ ____
ROOT
ATOM      1  C   UNL     1       0.360  10.580  19.077  0.00  0.00    +0.000 C 
ATOM      2  C   UNL     1       0.229  10.163  20.565  0.00  0.00    +0.000 C 
ATOM      3  C   UNL     1       0.977   8.886  20.720  0.00  0.00    +0.000 C 
ATOM      4  O   UNL     1       1.122   8.320  21.789  0.00  0.00    +0.000 OA
ATOM      5  N   UNL     1       1.515   8.514  19.534  0.00  0.00    +0.000 N 
ATOM      6  C   UNL     1       1.337   9.487  18.584  0.00  0.00    +0.000 C 
ATOM      7  O   UNL     1       2.032   9.568  17.576  0.00  0.00    +0.000 OA
ENDROOT
BRANCH   1  14
ATOM      8  C   UNL     1      -2.076  12.456  19.973  0.00  0.00    +0.000 C 
ATOM      9  C   UNL     1      -2.128  11.468  18.840  0.00  0.00    +0.000 A 
ATOM     10  C   UNL     1      -3.401  11.289  18.235  0.00  0.00    +0.000 A 
ATOM     11  C   UNL     1      -3.609  10.403  17.183  0.00  0.00    +0.000 A 
ATOM     12  C   UNL     1      -2.537   9.693  16.686  0.00  0.00    +0.000 A 
ATOM     13  C   UNL     1      -1.283   9.857  17.271  0.00  0.00    +0.000 A 
ATOM     14  C   UNL     1      -1.027  10.716  18.378  0.00  0.00    +0.000 A 
ENDBRANCH   1  14
BRANCH   1  15
ATOM     15  C   UNL     1       1.153  11.930  18.914  0.00  0.00    +0.000 C 
BRANCH  15  16
ATOM     16  C   UNL     1       1.486  12.683  20.200  0.00  0.00    +0.000 C 
ATOM     17  O   UNL     1       1.997  12.106  21.158  0.00  0.00    +0.000 OA
ATOM     18  N   UNL     1       1.226  14.052  20.259  0.00  0.00    +0.000 N 
BRANCH  18  19
ATOM     19  C   UNL     1       1.180  14.927  19.064  0.00  0.00    +0.000 C 
ATOM     20  C   UNL     1      -0.239  15.321  18.645  0.00  0.00    +0.000 C 
ATOM     21  C   UNL     1       2.062  16.164  19.251  0.00  0.00    +0.000 C 
ENDBRANCH  18  19
BRANCH  18  22
ATOM     22  C   UNL     1       1.195  14.680  21.601  0.00  0.00    +0.000 C 
BRANCH  22  23
ATOM     23  C   UNL     1      -0.108  14.531  22.407  0.00  0.00    +0.000 C 
BRANCH  23  24
ATOM     24  O   UNL     1      -1.150  15.353  21.897  0.00  0.00    +0.000 OA
ATOM     25  H   UNL     1      -1.772  14.738  21.470  0.00  0.00    +0.000 HD
ENDBRANCH  23  24
ENDBRANCH  22  23
ENDBRANCH  18  22
ENDBRANCH  15  16
ENDBRANCH   1  15
BRANCH   5  26
ATOM     26  C   UNL     1       2.591   7.538  19.507  0.00  0.00    +0.000 C 
BRANCH  26  27
ATOM     27  C   UNL     1       2.191   6.104  19.311  0.00  0.00    +0.000 A 
ATOM     28  C   UNL     1       2.105   5.525  18.038  0.00  0.00    +0.000 A 
ATOM     29  C   UNL     1       1.555   4.254  17.892  0.00  0.00    +0.000 A 
ATOM     30  C   UNL     1       1.122   3.590  19.028  0.00  0.00    +0.000 A 
ATOM     31  N   UNL     1       1.226   4.098  20.275  0.00  0.00    +0.000 NA
ATOM     32  C   UNL     1       1.759   5.337  20.388  0.00  0.00    +0.000 A 
ENDBRANCH  26  27
ENDBRANCH   5  26
TORSDOF 9
ENDMDL
MODEL 4
REMARK VINA RESULT:      -6.8      1.156      1.344
REMARK  Name = 
REMARK  12 active torsions:
REMARK  status: ('A' for Active; 'I' for Inactive)
REMARK    1  A    between atoms: C_1  and  C_2
REMARK    2  A    between atoms: C_7  and  C_8
REMARK    3  A    between atoms: C_8  and  C_9
REMARK    4  A    between atoms: C_9  and  C_10
REMARK    5  A    between atoms: N_12  and  C_13
REMARK    6  A    between atoms: N_12  and  C_16
REMARK    7  A    between atoms: C_13  and  C_14
REMARK    8  A    between atoms: C_14  and  O_15
REMARK    9  A    between atoms: C_16  and  C_17
REMARK   10  A    between atoms: C_16  and  C_18
REMARK   11  A    between atoms: N_22  and  C_23
REMARK   12  A    between atoms: C_23  and  C_24
REMARK                            x       y       z     vdW  Elec       q    Type
REMARK                         _______ _______ _______ _____ _____    ______ ____
ROOT
ATOM      1  C   UNL     1      -0.161  10.840  19.334  0.00  0.00    +0.000 C 
ATOM      2  C   UNL     1      -0.527  10.528  20.809  0.00  0.00    +0.000 C 
ATOM      3  C   UNL     1       0.223   9.299  21.187  0.00  0.00    +0.000 C 
ATOM      4  O   UNL     1       0.203   8.821  22.307  0.00  0.00    +0.000 OA
ATOM      5  N   UNL     1       0.962   8.864  20.139  0.00  0.00    +0.000 N 
ATOM      6  C   UNL     1       0.917   9.756  19.098  0.00  0.00    +0.000 C 
ATOM      7  O   UNL     1       1.767   9.792  18.214  0.00  0.00    +0.000 OA
ENDROOT
BRANCH   1  14
ATOM      8  C   UNL     1      -2.876  12.473  19.805  0.00  0.00    +0.000 C 
ATOM      9  C   UNL     1      -2.643  11.506  18.677  0.00  0.00    +0.000 A 
ATOM     10  C   UNL     1      -3.772  11.225  17.862  0.00  0.00    +0.000 A 
ATOM     11  C   UNL     1      -3.716  10.344  16.787  0.00  0.00    +0.000 A 
ATOM     12  C   UNL     1      -2.515   9.742  16.479  0.00  0.00    +0.000 A 
ATOM     13  C   UNL     1      -1.400  10.006  17.271  0.00  0.00    +0.000 A 
ATOM     14  C   UNL     1      -1.415  10.864  18.409  0.00  0.00    +0.000 A 
ENDBRANCH   1  14
BRANCH   1  15
ATOM     15  C   UNL     1       0.607  12.206  19.197  0.00  0.00    +0.000 C 
BRANCH  15  16
ATOM     16  C   UNL     1       0.929  12.940  20.497  0.00  0.00    +0.000 C 
ATOM     17  O   UNL     1       1.799  12.525  21.260  0.00  0.00    +0.000 OA
ATOM     18  N   UNL     1       0.235  14.112  20.792  0.00  0.00    +0.000 N 
BRANCH  18  19
ATOM     19  C   UNL     1      -0.363  14.990  19.758  0.00  0.00    +0.000 C 
ATOM     20  C   UNL     1      -1.452  15.921  20.298  0.00  0.00    +0.000 C 
ATOM     21  C   UNL     1       0.716  15.781  19.013  0.00  0.00    +0.000 C 
ENDBRANCH  18  19
BRANCH  18  22
ATOM     22  C   UNL     1       0.279  14.594  22.193  0.00  0.00    +0.000 C 
BRANCH  22  23
ATOM     23  C   UNL     1      -0.924  14.240  23.087  0.00  0.00    +0.000 C 
BRANCH  23  24
ATOM     24  O   UNL     1      -1.012  12.842  23.336  0.00  0.00    +0.000 OA
ATOM     25  H   UNL     1      -0.177  12.611  23.778  0.00  0.00    +0.000 HD
ENDBRANCH  23  24
ENDBRANCH  22  23
ENDBRANCH  18  22
ENDBRANCH  15  16
ENDBRANCH   1  15
BRANCH   5  26
ATOM     26  C   UNL     1       2.056   7.935  20.367  0.00  0.00    +0.000 C 
BRANCH  26  27
ATOM     27  C   UNL     1       1.894   6.555  19.798  0.00  0.00    +0.000 A 
ATOM     28  C   UNL     1       1.481   5.473  20.587  0.00  0.00    +0.000 A 
ATOM     29  C   UNL     1       1.522   4.182  20.065  0.00  0.00    +0.000 A 
ATOM     30  C   UNL     1       1.959   4.014  18.762  0.00  0.00    +0.000 A 
ATOM     31  N   UNL     1       2.326   5.035  17.959  0.00  0.00    +0.000 NA
ATOM     32  C   UNL     1       2.282   6.278  18.492  0.00  0.00    +0.000 A 
ENDBRANCH  26  27
ENDBRANCH   5  26
TORSDOF 9
ENDMDL
MODEL 5
REMARK VINA RESULT:      -6.5      3.072      8.154
REMARK  Name = 
REMARK  12 active torsions:
REMARK  status: ('A' for Active; 'I' for Inactive)
REMARK    1  A    between atoms: C_1  and  C_2
REMARK    2  A    between atoms: C_7  and  C_8
REMARK    3  A    between atoms: C_8  and  C_9
REMARK    4  A    between atoms: C_9  and  C_10
REMARK    5  A    between atoms: N_12  and  C_13
REMARK    6  A    between atoms: N_12  and  C_16
REMARK    7  A    between atoms: C_13  and  C_14
REMARK    8  A    between atoms: C_14  and  O_15
REMARK    9  A    between atoms: C_16  and  C_17
REMARK   10  A    between atoms: C_16  and  C_18
REMARK   11  A    between atoms: N_22  and  C_23
REMARK   12  A    between atoms: C_23  and  C_24
REMARK                            x       y       z     vdW  Elec       q    Type
REMARK                         _______ _______ _______ _____ _____    ______ ____
ROOT
ATOM      1  C   UNL     1       2.714   6.282  19.144  0.00  0.00    +0.000 C 
ATOM      2  C   UNL     1       2.717   7.011  17.775  0.00  0.00    +0.000 C 
ATOM      3  C   UNL     1       2.044   8.322  17.986  0.00  0.00    +0.000 C 
ATOM      4  O   UNL     1       1.936   9.166  17.114  0.00  0.00    +0.000 OA
ATOM      5  N   UNL     1       1.656   8.444  19.277  0.00  0.00    +0.000 N 
ATOM      6  C   UNL     1       2.122   7.400  20.034  0.00  0.00    +0.000 C 
ATOM      7  O   UNL     1       2.238   7.461  21.254  0.00  0.00    +0.000 OA
ENDROOT
BRANCH   1  14
ATOM      8  C   UNL     1       2.136   4.286  21.580  0.00  0.00    +0.000 C 
ATOM      9  C   UNL     1       1.821   3.991  20.139  0.00  0.00    +0.000 A 
ATOM     10  C   UNL     1       1.359   2.677  19.865  0.00  0.00    +0.000 A 
ATOM     11  C   UNL     1       1.036   2.252  18.580  0.00  0.00    +0.000 A 
ATOM     12  C   UNL     1       1.139   3.146  17.536  0.00  0.00    +0.000 A 
ATOM     13  C   UNL     1       1.595   4.439  17.790  0.00  0.00    +0.000 A 
ATOM     14  C   UNL     1       1.980   4.908  19.079  0.00  0.00    +0.000 A 
ENDBRANCH   1  14
BRANCH   1  15
ATOM     15  C   UNL     1       4.172   6.061  19.693  0.00  0.00    +0.000 C 
BRANCH  15  16
ATOM     16  C   UNL     1       5.054   5.091  18.910  0.00  0.00    +0.000 C 
ATOM     17  O   UNL     1       4.847   3.880  18.940  0.00  0.00    +0.000 OA
ATOM     18  N   UNL     1       6.090   5.609  18.134  0.00  0.00    +0.000 N 
BRANCH  18  19
ATOM     19  C   UNL     1       6.080   6.978  17.566  0.00  0.00    +0.000 C 
ATOM     20  C   UNL     1       7.464   7.631  17.513  0.00  0.00    +0.000 C 
ATOM     21  C   UNL     1       5.407   7.002  16.192  0.00  0.00    +0.000 C 
ENDBRANCH  18  19
BRANCH  18  22
ATOM     22  C   UNL     1       7.148   4.667  17.697  0.00  0.00    +0.000 C 
BRANCH  22  23
ATOM     23  C   UNL     1       7.074   4.165  16.244  0.00  0.00    +0.000 C 
BRANCH  23  24
ATOM     24  O   UNL     1       5.964   3.300  16.034  0.00  0.00    +0.000 OA
ATOM     25  H   UNL     1       5.182   3.877  16.075  0.00  0.00    +0.000 HD
ENDBRANCH  23  24
ENDBRANCH  22  23
ENDBRANCH  18  22
ENDBRANCH  15  16
ENDBRANCH   1  15
BRANCH   5  26
ATOM     26  C   UNL     1       1.339   9.758  19.812  0.00  0.00    +0.000 C 
BRANCH  26  27
ATOM     27  C   UNL     1       0.230  10.509  19.132  0.00  0.00    +0.000 A 
ATOM     28  C   UNL     1       0.360  11.856  18.773  0.00  0.00    +0.000 A 
ATOM     29  C   UNL     1      -0.752  12.560  18.314  0.00  0.00    +0.000 A 
ATOM     30  C   UNL     1      -1.958  11.888  18.212  0.00  0.00    +0.000 A 
ATOM     31  N   UNL     1      -2.112  10.580  18.510  0.00  0.00    +0.000 NA
ATOM     32  C   UNL     1      -1.018   9.922  18.958  0.00  0.00    +0.000 A 
ENDBRANCH  26  27
ENDBRANCH   5  26
TORSDOF 9
ENDMDL
MODEL 6
REMARK VINA RESULT:      -6.3      1.206      1.768
REMARK  Name = 
REMARK  12 active torsions:
REMARK  status: ('A' for Active; 'I' for Inactive)
REMARK    1  A    between atoms: C_1  and  C_2
REMARK    2  A    between atoms: C_7  and  C_8
REMARK    3  A    between atoms: C_8  and  C_9
REMARK    4  A    between atoms: C_9  and  C_10
REMARK    5  A    between atoms: N_12  and  C_13
REMARK    6  A    between atoms: N_12  and  C_16
REMARK    7  A    between atoms: C_13  and  C_14
REMARK    8  A    between atoms: C_14  and  O_15
REMARK    9  A    between atoms: C_16  and  C_17
REMARK   10  A    between atoms: C_16  and  C_18
REMARK   11  A    between atoms: N_22  and  C_23
REMARK   12  A    between atoms: C_23  and  C_24
REMARK                            x       y       z     vdW  Elec       q    Type
REMARK                         _______ _______ _______ _____ _____    ______ ____
ROOT
ATOM      1  C   UNL     1       0.492  10.544  19.058  0.00  0.00    +0.000 C 
ATOM      2  C   UNL     1       0.489  10.344  20.596  0.00  0.00    +0.000 C 
ATOM      3  C   UNL     1       1.133   9.027  20.858  0.00  0.00    +0.000 C 
ATOM      4  O   UNL     1       1.343   8.597  21.978  0.00  0.00    +0.000 OA
ATOM      5  N   UNL     1       1.501   8.448  19.691  0.00  0.00    +0.000 N 
ATOM      6  C   UNL     1       1.307   9.299  18.634  0.00  0.00    +0.000 C 
ATOM      7  O   UNL     1       1.891   9.175  17.562  0.00  0.00    +0.000 OA
ENDROOT
BRANCH   1  14
ATOM      8  C   UNL     1      -1.943  12.112  20.424  0.00  0.00    +0.000 C 
ATOM      9  C   UNL     1      -2.039  11.334  19.141  0.00  0.00    +0.000 A 
ATOM     10  C   UNL     1      -3.344  11.199  18.597  0.00  0.00    +0.000 A 
ATOM     11  C   UNL     1      -3.593  10.499  17.421  0.00  0.00    +0.000 A 
ATOM     12  C   UNL     1      -2.534   9.941  16.739  0.00  0.00    +0.000 A 
ATOM     13  C   UNL     1      -1.248  10.063  17.262  0.00  0.00    +0.000 A 
ATOM     14  C   UNL     1      -0.946  10.729  18.485  0.00  0.00    +0.000 A 
ENDBRANCH   1  14
BRANCH   1  15
ATOM     15  C   UNL     1       1.379  11.770  18.628  0.00  0.00    +0.000 C 
BRANCH  15  16
ATOM     16  C   UNL     1       0.683  13.128  18.573  0.00  0.00    +0.000 C 
ATOM     17  O   UNL     1      -0.160  13.374  17.713  0.00  0.00    +0.000 OA
ATOM     18  N   UNL     1       1.002  14.082  19.540  0.00  0.00    +0.000 N 
BRANCH  18  19
ATOM     19  C   UNL     1       1.509  13.740  20.889  0.00  0.00    +0.000 C 
ATOM     20  C   UNL     1       3.006  14.006  21.068  0.00  0.00    +0.000 C 
ATOM     21  C   UNL     1       0.692  14.437  21.980  0.00  0.00    +0.000 C 
ENDBRANCH  18  19
BRANCH  18  22
ATOM     22  C   UNL     1       0.620  15.487  19.260  0.00  0.00    +0.000 C 
BRANCH  22  23
ATOM     23  C   UNL     1       1.670  16.364  18.553  0.00  0.00    +0.000 C 
BRANCH  23  24
ATOM     24  O   UNL     1       2.378  17.191  19.467  0.00  0.00    +0.000 OA
ATOM     25  H   UNL     1       3.055  17.640  18.930  0.00  0.00    +0.000 HD
ENDBRANCH  23  24
ENDBRANCH  22  23
ENDBRANCH  18  22
ENDBRANCH  15  16
ENDBRANCH   1  15
BRANCH   5  26
ATOM     26  C   UNL     1       2.476   7.371  19.699  0.00  0.00    +0.000 C 
BRANCH  26  27
ATOM     27  C   UNL     1       1.950   5.988  19.441  0.00  0.00    +0.000 A 
ATOM     28  C   UNL     1       1.487   5.166  20.477  0.00  0.00    +0.000 A 
ATOM     29  C   UNL     1       1.182   3.832  20.217  0.00  0.00    +0.000 A 
ATOM     30  C   UNL     1       1.334   3.363  18.923  0.00  0.00    +0.000 A 
ATOM     31  N   UNL     1       1.737   4.135  17.892  0.00  0.00    +0.000 NA
ATOM     32  C   UNL     1       2.031   5.425  18.172  0.00  0.00    +0.000 A 
ENDBRANCH  26  27
ENDBRANCH   5  26
TORSDOF 9
ENDMDL
MODEL 7
REMARK VINA RESULT:      -6.3      0.644      1.136
REMARK  Name = 
REMARK  12 active torsions:
REMARK  status: ('A' for Active; 'I' for Inactive)
REMARK    1  A    between atoms: C_1  and  C_2
REMARK    2  A    between atoms: C_7  and  C_8
REMARK    3  A    between atoms: C_8  and  C_9
REMARK    4  A    between atoms: C_9  and  C_10
REMARK    5  A    between atoms: N_12  and  C_13
REMARK    6  A    between atoms: N_12  and  C_16
REMARK    7  A    between atoms: C_13  and  C_14
REMARK    8  A    between atoms: C_14  and  O_15
REMARK    9  A    between atoms: C_16  and  C_17
REMARK   10  A    between atoms: C_16  and  C_18
REMARK   11  A    between atoms: N_22  and  C_23
REMARK   12  A    between atoms: C_23  and  C_24
REMARK                            x       y       z     vdW  Elec       q    Type
REMARK                         _______ _______ _______ _____ _____    ______ ____
ROOT
ATOM      1  C   UNL     1       0.463  10.581  19.162  0.00  0.00    +0.000 C 
ATOM      2  C   UNL     1       0.330  10.078  20.623  0.00  0.00    +0.000 C 
ATOM      3  C   UNL     1       1.078   8.794  20.705  0.00  0.00    +0.000 C 
ATOM      4  O   UNL     1       1.221   8.168  21.740  0.00  0.00    +0.000 OA
ATOM      5  N   UNL     1       1.615   8.491  19.500  0.00  0.00    +0.000 N 
ATOM      6  C   UNL     1       1.439   9.517  18.607  0.00  0.00    +0.000 C 
ATOM      7  O   UNL     1       2.134   9.656  17.606  0.00  0.00    +0.000 OA
ENDROOT
BRANCH   1  14
ATOM      8  C   UNL     1      -1.915  12.520  20.078  0.00  0.00    +0.000 C 
ATOM      9  C   UNL     1      -2.001  11.538  18.942  0.00  0.00    +0.000 A 
ATOM     10  C   UNL     1      -3.281  11.397  18.344  0.00  0.00    +0.000 A 
ATOM     11  C   UNL     1      -3.520  10.521  17.290  0.00  0.00    +0.000 A 
ATOM     12  C   UNL     1      -2.472   9.783  16.784  0.00  0.00    +0.000 A 
ATOM     13  C   UNL     1      -1.210   9.910  17.363  0.00  0.00    +0.000 A 
ATOM     14  C   UNL     1      -0.924  10.758  18.472  0.00  0.00    +0.000 A 
ENDBRANCH   1  14
BRANCH   1  15
ATOM     15  C   UNL     1       1.256  11.937  19.078  0.00  0.00    +0.000 C 
BRANCH  15  16
ATOM     16  C   UNL     1       1.522  12.654  20.399  0.00  0.00    +0.000 C 
ATOM     17  O   UNL     1       1.904  12.035  21.391  0.00  0.00    +0.000 OA
ATOM     18  N   UNL     1       1.348  14.036  20.456  0.00  0.00    +0.000 N 
BRANCH  18  19
ATOM     19  C   UNL     1       1.469  14.924  19.275  0.00  0.00    +0.000 C 
ATOM     20  C   UNL     1       2.504  14.448  18.252  0.00  0.00    +0.000 C 
ATOM     21  C   UNL     1       0.108  15.153  18.614  0.00  0.00    +0.000 C 
ENDBRANCH  18  19
BRANCH  18  22
ATOM     22  C   UNL     1       1.238  14.653  21.799  0.00  0.00    +0.000 C 
BRANCH  22  23
ATOM     23  C   UNL     1       2.339  15.654  22.196  0.00  0.00    +0.000 C 
BRANCH  23  24
ATOM     24  O   UNL     1       3.481  15.004  22.741  0.00  0.00    +0.000 OA
ATOM     25  H   UNL     1       3.193  14.673  23.610  0.00  0.00    +0.000 HD
ENDBRANCH  23  24
ENDBRANCH  22  23
ENDBRANCH  18  22
ENDBRANCH  15  16
ENDBRANCH   1  15
BRANCH   5  26
ATOM     26  C   UNL     1       2.691   7.517  19.417  0.00  0.00    +0.000 C 
BRANCH  26  27
ATOM     27  C   UNL     1       2.284   6.075  19.316  0.00  0.00    +0.000 A 
ATOM     28  C   UNL     1       2.015   5.465  18.083  0.00  0.00    +0.000 A 
ATOM     29  C   UNL     1       1.465   4.186  18.051  0.00  0.00    +0.000 A 
ATOM     30  C   UNL     1       1.216   3.546  19.253  0.00  0.00    +0.000 A 
ATOM     31  N   UNL     1       1.500   4.085  20.458  0.00  0.00    +0.000 NA
ATOM     32  C   UNL     1       2.028   5.330  20.462  0.00  0.00    +0.000 A 
ENDBRANCH  26  27
ENDBRANCH   5  26
TORSDOF 9
ENDMDL
MODEL 8
REMARK VINA RESULT:      -6.3      2.461      5.125
REMARK  Name = 
REMARK  12 active torsions:
REMARK  status: ('A' for Active; 'I' for Inactive)
REMARK    1  A    between atoms: C_1  and  C_2
REMARK    2  A    between atoms: C_7  and  C_8
REMARK    3  A    between atoms: C_8  and  C_9
REMARK    4  A    between atoms: C_9  and  C_10
REMARK    5  A    between atoms: N_12  and  C_13
REMARK    6  A    between atoms: N_12  and  C_16
REMARK    7  A    between atoms: C_13  and  C_14
REMARK    8  A    between atoms: C_14  and  O_15
REMARK    9  A    between atoms: C_16  and  C_17
REMARK   10  A    between atoms: C_16  and  C_18
REMARK   11  A    between atoms: N_22  and  C_23
REMARK   12  A    between atoms: C_23  and  C_24
REMARK                            x       y       z     vdW  Elec       q    Type
REMARK                         _______ _______ _______ _____ _____    ______ ____
ROOT
ATOM      1  C   UNL     1       0.496  13.945  20.219  0.00  0.00    +0.000 C 
ATOM      2  C   UNL     1      -0.930  13.640  19.692  0.00  0.00    +0.000 C 
ATOM      3  C   UNL     1      -1.063  12.158  19.647  0.00  0.00    +0.000 C 
ATOM      4  O   UNL     1      -2.092  11.588  19.333  0.00  0.00    +0.000 OA
ATOM      5  N   UNL     1       0.083  11.575  20.071  0.00  0.00    +0.000 N 
ATOM      6  C   UNL     1       0.966  12.509  20.550  0.00  0.00    +0.000 C 
ATOM      7  O   UNL     1       1.881  12.229  21.317  0.00  0.00    +0.000 OA
ENDROOT
BRANCH   1  14
ATOM      8  C   UNL     1       2.620  12.860  18.082  0.00  0.00    +0.000 C 
ATOM      9  C   UNL     1       2.336  14.313  18.344  0.00  0.00    +0.000 A 
ATOM     10  C   UNL     1       3.181  15.238  17.674  0.00  0.00    +0.000 A 
ATOM     11  C   UNL     1       3.048  16.614  17.824  0.00  0.00    +0.000 A 
ATOM     12  C   UNL     1       2.041  17.104  18.628  0.00  0.00    +0.000 A 
ATOM     13  C   UNL     1       1.207  16.209  19.294  0.00  0.00    +0.000 A 
ATOM     14  C   UNL     1       1.330  14.792  19.210  0.00  0.00    +0.000 A 
ENDBRANCH   1  14
BRANCH   1  15
ATOM     15  C   UNL     1       0.462  14.686  21.607  0.00  0.00    +0.000 C 
BRANCH  15  16
ATOM     16  C   UNL     1      -0.685  14.319  22.546  0.00  0.00    +0.000 C 
ATOM     17  O   UNL     1      -0.551  13.442  23.398  0.00  0.00    +0.000 OA
ATOM     18  N   UNL     1      -1.886  15.020  22.440  0.00  0.00    +0.000 N 
BRANCH  18  19
ATOM     19  C   UNL     1      -1.982  16.401  21.913  0.00  0.00    +0.000 C 
ATOM     20  C   UNL     1      -3.170  16.619  20.973  0.00  0.00    +0.000 C 
ATOM     21  C   UNL     1      -1.984  17.428  23.049  0.00  0.00    +0.000 C 
ENDBRANCH  18  19
BRANCH  18  22
ATOM     22  C   UNL     1      -3.082  14.417  23.074  0.00  0.00    +0.000 C 
BRANCH  22  23
ATOM     23  C   UNL     1      -3.655  13.151  22.411  0.00  0.00    +0.000 C 
BRANCH  23  24
ATOM     24  O   UNL     1      -3.238  11.964  23.075  0.00  0.00    +0.000 OA
ATOM     25  H   UNL     1      -2.901  11.385  22.369  0.00  0.00    +0.000 HD
ENDBRANCH  23  24
ENDBRANCH  22  23
ENDBRANCH  18  22
ENDBRANCH  15  16
ENDBRANCH   1  15
BRANCH   5  26
ATOM     26  C   UNL     1       0.071  10.181  20.483  0.00  0.00    +0.000 C 
BRANCH  26  27
ATOM     27  C   UNL     1       1.036   9.267  19.786  0.00  0.00    +0.000 A 
ATOM     28  C   UNL     1       1.357   9.422  18.431  0.00  0.00    +0.000 A 
ATOM     29  C   UNL     1       2.110   8.446  17.783  0.00  0.00    +0.000 A 
ATOM     30  C   UNL     1       2.535   7.350  18.514  0.00  0.00    +0.000 A 
ATOM     31  N   UNL     1       2.280   7.186  19.830  0.00  0.00    +0.000 NA
ATOM     32  C   UNL     1       1.542   8.146  20.434  0.00  0.00    +0.000 A 
ENDBRANCH  26  27
ENDBRANCH   5  26
TORSDOF 9
ENDMDL
MODEL 9
REMARK VINA RESULT:      -6.2      2.146      4.674
REMARK  Name = 
REMARK  12 active torsions:
REMARK  status: ('A' for Active; 'I' for Inactive)
REMARK    1  A    between atoms: C_1  and  C_2
REMARK    2  A    between atoms: C_7  and  C_8
REMARK    3  A    between atoms: C_8  and  C_9
REMARK    4  A    between atoms: C_9  and  C_10
REMARK    5  A    between atoms: N_12  and  C_13
REMARK    6  A    between atoms: N_12  and  C_16
REMARK    7  A    between atoms: C_13  and  C_14
REMARK    8  A    between atoms: C_14  and  O_15
REMARK    9  A    between atoms: C_16  and  C_17
REMARK   10  A    between atoms: C_16  and  C_18
REMARK   11  A    between atoms: N_22  and  C_23
REMARK   12  A    between atoms: C_23  and  C_24
REMARK                            x       y       z     vdW  Elec       q    Type
REMARK                         _______ _______ _______ _____ _____    ______ ____
ROOT
ATOM      1  C   UNL     1       0.852   9.764  19.203  0.00  0.00    +0.000 C 
ATOM      2  C   UNL     1       1.585   9.494  17.863  0.00  0.00    +0.000 C 
ATOM      3  C   UNL     1       2.507   8.350  18.101  0.00  0.00    +0.000 C 
ATOM      4  O   UNL     1       3.188   7.847  17.225  0.00  0.00    +0.000 OA
ATOM      5  N   UNL     1       2.406   7.930  19.384  0.00  0.00    +0.000 N 
ATOM      6  C   UNL     1       1.391   8.578  20.039  0.00  0.00    +0.000 C 
ATOM      7  O   UNL     1       0.858   8.132  21.050  0.00  0.00    +0.000 OA
ENDROOT
BRANCH   1  14
ATOM      8  C   UNL     1      -0.109  10.992  22.000  0.00  0.00    +0.000 C 
ATOM      9  C   UNL     1       0.572  11.774  20.911  0.00  0.00    +0.000 A 
ATOM     10  C   UNL     1       0.658  13.176  21.120  0.00  0.00    +0.000 A 
ATOM     11  C   UNL     1       1.250  14.033  20.198  0.00  0.00    +0.000 A 
ATOM     12  C   UNL     1       1.802  13.502  19.051  0.00  0.00    +0.000 A 
ATOM     13  C   UNL     1       1.722  12.128  18.832  0.00  0.00    +0.000 A 
ATOM     14  C   UNL     1       1.088  11.215  19.723  0.00  0.00    +0.000 A 
ENDBRANCH   1  14
BRANCH   1  15
ATOM     15  C   UNL     1      -0.695   9.503  19.088  0.00  0.00    +0.000 C 
BRANCH  15  16
ATOM     16  C   UNL     1      -1.354   9.885  17.765  0.00  0.00    +0.000 C 
ATOM     17  O   UNL     1      -1.146   9.235  16.742  0.00  0.00    +0.000 OA
ATOM     18  N   UNL     1      -2.222  10.976  17.741  0.00  0.00    +0.000 N 
BRANCH  18  19
ATOM     19  C   UNL     1      -2.979  11.444  18.926  0.00  0.00    +0.000 C 
ATOM     20  C   UNL     1      -2.426  12.734  19.538  0.00  0.00    +0.000 C 
ATOM     21  C   UNL     1      -4.471  11.580  18.611  0.00  0.00    +0.000 C 
ENDBRANCH  18  19
BRANCH  18  22
ATOM     22  C   UNL     1      -2.546  11.558  16.417  0.00  0.00    +0.000 C 
BRANCH  22  23
ATOM     23  C   UNL     1      -3.426  10.707  15.482  0.00  0.00    +0.000 C 
BRANCH  23  24
ATOM     24  O   UNL     1      -2.692  10.199  14.374  0.00  0.00    +0.000 OA
ATOM     25  H   UNL     1      -2.075  10.912  14.130  0.00  0.00    +0.000 HD
ENDBRANCH  23  24
ENDBRANCH  22  23
ENDBRANCH  18  22
ENDBRANCH  15  16
ENDBRANCH   1  15
BRANCH   5  26
ATOM     26  C   UNL     1       2.898   6.612  19.749  0.00  0.00    +0.000 C 
BRANCH  26  27
ATOM     27  C   UNL     1       2.020   5.446  19.395  0.00  0.00    +0.000 A 
ATOM     28  C   UNL     1       1.342   4.706  20.372  0.00  0.00    +0.000 A 
ATOM     29  C   UNL     1       0.690   3.527  20.017  0.00  0.00    +0.000 A 
ATOM     30  C   UNL     1       0.723   3.131  18.691  0.00  0.00    +0.000 A 
ATOM     31  N   UNL     1       1.331   3.839  17.715  0.00  0.00    +0.000 NA
ATOM     32  C   UNL     1       1.961   4.977  18.088  0.00  0.00    +0.000 A 
ENDBRANCH  26  27
ENDBRANCH   5  26
TORSDOF 9
ENDMDL
