MODEL 1
REMARK VINA RESULT:      -7.7      0.000      0.000
REMARK  Name = 
REMARK  5 active torsions:
REMARK  status: ('A' for Active; 'I' for Inactive)
REMARK    1  A    between atoms: S_2  and  C_4
REMARK    2  A    between atoms: S_2  and  N_11
REMARK    3  A    between atoms: N_14  and  C_15
REMARK    4  A    between atoms: C_15  and  C_16
REMARK    5  A    between atoms: C_20  and  C_21
REMARK                            x       y       z     vdW  Elec       q    Type
REMARK                         _______ _______ _______ _____ _____    ______ ____
ROOT
ATOM      1  N   UNL     1      -0.871  10.730  20.432  0.00  0.00    +0.000 NA
ATOM      2  C   UNL     1      -0.497  11.270  19.087  0.00  0.00    +0.000 C 
ATOM      3  C   UNL     1       1.032  11.226  18.828  0.00  0.00    +0.000 C 
ATOM      4  N   UNL     1       1.716   9.941  19.132  0.00  0.00    +0.000 NA
ATOM      5  C   UNL     1       1.293   9.477  20.472  0.00  0.00    +0.000 C 
ATOM      6  C   UNL     1      -0.234   9.390  20.639  0.00  0.00    +0.000 C 
ENDROOT
BRANCH   1   8
ATOM      7  O   UNL     1      -0.002  12.978  21.320  0.00  0.00    +0.000 OA
ATOM      8  S   UNL     1      -0.696  11.795  21.769  0.00  0.00    +0.000 S 
ATOM      9  O   UNL     1      -0.210  11.019  22.887  0.00  0.00    +0.000 OA
BRANCH   8  10
ATOM     10  C   UNL     1      -2.365  12.256  22.158  0.00  0.00    +0.000 A 
ATOM     11  C   UNL     1      -2.813  12.117  23.475  0.00  0.00    +0.000 A 
ATOM     12  C   UNL     1      -4.085  12.579  23.821  0.00  0.00    +0.000 A 
ATOM     13  C   UNL     1      -4.890  13.185  22.856  0.00  0.00    +0.000 A 
ATOM     14 CL   UNL     1      -6.441  13.783  23.296  0.00  0.00    +0.000 Cl
ATOM     15  C   UNL     1      -4.441  13.324  21.542  0.00  0.00    +0.000 A 
ATOM     16  C   UNL     1      -3.173  12.854  21.186  0.00  0.00    +0.000 A 
ENDBRANCH   8  10
ENDBRANCH   1   8
BRANCH   4  17
ATOM     17  C   UNL     1       1.468   8.952  18.069  0.00  0.00    +0.000 C 
BRANCH  17  18
ATOM     18  C   UNL     1       2.457   7.802  18.027  0.00  0.00    +0.000 A 
ATOM     19  C   UNL     1       3.573   7.854  17.185  0.00  0.00    +0.000 A 
ATOM     20  C   UNL     1       4.512   6.825  17.198  0.00  0.00    +0.000 A 
ATOM     21  C   UNL     1       4.353   5.740  18.065  0.00  0.00    +0.000 A 
ATOM     22  C   UNL     1       3.248   5.652  18.931  0.00  0.00    +0.000 A 
ATOM     23  C   UNL     1       2.299   6.692  18.876  0.00  0.00    +0.000 A 
BRANCH  22  24
ATOM     24  C   UNL     1       3.109   4.534  19.893  0.00  0.00    +0.000 A 
ATOM     25  C   UNL     1       2.145   4.558  20.913  0.00  0.00    +0.000 A 
ATOM     26  C   UNL     1       2.027   3.473  21.771  0.00  0.00    +0.000 A 
ATOM     27  N   UNL     1       2.788   2.365  21.689  0.00  0.00    +0.000 NA
ATOM     28  C   UNL     1       3.712   2.347  20.708  0.00  0.00    +0.000 A 
ATOM     29  C   UNL     1       3.910   3.387  19.809  0.00  0.00    +0.000 A 
ENDBRANCH  22  24
ENDBRANCH  17  18
ENDBRANCH   4  17
TORSDOF 5
ENDMDL
MODEL 2
REMARK VINA RESULT:      -7.7      1.054      1.054
REMARK  Name = 
REMARK  5 active torsions:
REMARK  status: ('A' for Active; 'I' for Inactive)
REMARK    1  A    between atoms: S_2  and  C_4
REMARK    2  A    between atoms: S_2  and  N_11
REMARK    3  A    between atoms: N_14  and  C_15
REMARK    4  A    between atoms: C_15  and  C_16
REMARK    5  A    between atoms: C_20  and  C_21
REMARK                            x       y       z     vdW  Elec       q    Type
REMARK                         _______ _______ _______ _____ _____    ______ ____
ROOT
ATOM      1  N   UNL     1      -0.956  10.836  20.722  0.00  0.00    +0.000 NA
ATOM      2  C   UNL     1      -0.509  11.543  19.481  0.00  0.00    +0.000 C 
ATOM      3  C   UNL     1       1.019  11.422  19.239  0.00  0.00    +0.000 C 
ATOM      4  N   UNL     1       1.598  10.057  19.353  0.00  0.00    +0.000 NA
ATOM      5  C   UNL     1       1.108   9.429  20.600  0.00  0.00    +0.000 C 
ATOM      6  C   UNL     1      -0.425   9.435  20.731  0.00  0.00    +0.000 C 
ENDROOT
BRANCH   1   8
ATOM      7  O   UNL     1       0.158  12.779  21.980  0.00  0.00    +0.000 OA
ATOM      8  S   UNL     1      -0.736  11.670  22.209  0.00  0.00    +0.000 S 
ATOM      9  O   UNL     1      -0.462  10.683  23.229  0.00  0.00    +0.000 OA
BRANCH   8  10
ATOM     10  C   UNL     1      -2.345  12.330  22.560  0.00  0.00    +0.000 A 
ATOM     11  C   UNL     1      -2.924  12.068  23.806  0.00  0.00    +0.000 A 
ATOM     12  C   UNL     1      -4.139  12.672  24.140  0.00  0.00    +0.000 A 
ATOM     13  C   UNL     1      -4.756  13.538  23.237  0.00  0.00    +0.000 A 
ATOM     14 CL   UNL     1      -6.233  14.305  23.669  0.00  0.00    +0.000 Cl
ATOM     15  C   UNL     1      -4.176  13.799  21.994  0.00  0.00    +0.000 A 
ATOM     16  C   UNL     1      -2.966  13.190  21.649  0.00  0.00    +0.000 A 
ENDBRANCH   8  10
ENDBRANCH   1   8
BRANCH   4  17
ATOM     17  C   UNL     1       1.305   9.262  18.148  0.00  0.00    +0.000 C 
BRANCH  17  18
ATOM     18  C   UNL     1       2.244   8.095  17.912  0.00  0.00    +0.000 A 
ATOM     19  C   UNL     1       3.522   8.305  17.380  0.00  0.00    +0.000 A 
ATOM     20  C   UNL     1       4.403   7.238  17.226  0.00  0.00    +0.000 A 
ATOM     21  C   UNL     1       4.023   5.951  17.616  0.00  0.00    +0.000 A 
ATOM     22  C   UNL     1       2.751   5.696  18.160  0.00  0.00    +0.000 A 
ATOM     23  C   UNL     1       1.869   6.789  18.276  0.00  0.00    +0.000 A 
BRANCH  22  24
ATOM     24  C   UNL     1       2.368   4.345  18.630  0.00  0.00    +0.000 A 
ATOM     25  C   UNL     1       1.392   4.162  19.620  0.00  0.00    +0.000 A 
ATOM     26  C   UNL     1       1.039   2.875  20.006  0.00  0.00    +0.000 A 
ATOM     27  N   UNL     1       1.578   1.760  19.479  0.00  0.00    +0.000 NA
ATOM     28  C   UNL     1       2.515   1.941  18.528  0.00  0.00    +0.000 A 
ATOM     29  C   UNL     1       2.939   3.187  18.084  0.00  0.00    +0.000 A 
ENDBRANCH  22  24
ENDBRANCH  17  18
ENDBRANCH   4  17
TORSDOF 5
ENDMDL
MODEL 3
REMARK VINA RESULT:      -7.7      2.013      3.052
REMARK  Name = 
REMARK  5 active torsions:
REMARK  status: ('A' for Active; 'I' for Inactive)
REMARK    1  A    between atoms: S_2  and  C_4
REMARK    2  A    between atoms: S_2  and  N_11
REMARK    3  A    between atoms: N_14  and  C_15
REMARK    4  A    between atoms: C_15  and  C_16
REMARK    5  A    between atoms: C_20  and  C_21
REMARK                            x       y       z     vdW  Elec       q    Type
REMARK                         _______ _______ _______ _____ _____    ______ ____
ROOT
ATOM      1  N   UNL     1      -0.787   9.975  21.093  0.00  0.00    +0.000 NA
ATOM      2  C   UNL     1      -0.277  10.190  19.703  0.00  0.00    +0.000 C 
ATOM      3  C   UNL     1       1.241   9.898  19.570  0.00  0.00    +0.000 C 
ATOM      4  N   UNL     1       1.720   8.618  20.157  0.00  0.00    +0.000 NA
ATOM      5  C   UNL     1       1.172   8.482  21.526  0.00  0.00    +0.000 C 
ATOM      6  C   UNL     1      -0.358   8.629  21.592  0.00  0.00    +0.000 C 
ENDROOT
BRANCH   1   8
ATOM      7  O   UNL     1       0.489  12.124  21.685  0.00  0.00    +0.000 OA
ATOM      8  S   UNL     1      -0.526  11.247  22.219  0.00  0.00    +0.000 S 
ATOM      9  O   UNL     1      -0.391  10.653  23.530  0.00  0.00    +0.000 OA
BRANCH   8  10
ATOM     10  C   UNL     1      -2.065  12.130  22.218  0.00  0.00    +0.000 A 
ATOM     11  C   UNL     1      -2.824  12.163  23.391  0.00  0.00    +0.000 A 
ATOM     12  C   UNL     1      -3.981  12.945  23.441  0.00  0.00    +0.000 A 
ATOM     13  C   UNL     1      -4.361  13.694  22.326  0.00  0.00    +0.000 A 
ATOM     14 CL   UNL     1      -5.767  14.681  22.405  0.00  0.00    +0.000 Cl
ATOM     15  C   UNL     1      -3.602  13.660  21.155  0.00  0.00    +0.000 A 
ATOM     16  C   UNL     1      -2.449  12.872  21.096  0.00  0.00    +0.000 A 
ENDBRANCH   8  10
ENDBRANCH   1   8
BRANCH   4  17
ATOM     17  C   UNL     1       1.385   7.482  19.281  0.00  0.00    +0.000 C 
BRANCH  17  18
ATOM     18  C   UNL     1       2.257   6.255  19.470  0.00  0.00    +0.000 A 
ATOM     19  C   UNL     1       1.867   5.232  20.341  0.00  0.00    +0.000 A 
ATOM     20  C   UNL     1       2.639   4.079  20.461  0.00  0.00    +0.000 A 
ATOM     21  C   UNL     1       3.802   3.930  19.700  0.00  0.00    +0.000 A 
ATOM     22  C   UNL     1       4.227   4.932  18.809  0.00  0.00    +0.000 A 
ATOM     23  C   UNL     1       3.443   6.100  18.729  0.00  0.00    +0.000 A 
BRANCH  22  24
ATOM     24  C   UNL     1       5.425   4.749  17.956  0.00  0.00    +0.000 A 
ATOM     25  C   UNL     1       6.721   4.885  18.474  0.00  0.00    +0.000 A 
ATOM     26  C   UNL     1       7.816   4.671  17.648  0.00  0.00    +0.000 A 
ATOM     27  N   UNL     1       7.721   4.327  16.350  0.00  0.00    +0.000 NA
ATOM     28  C   UNL     1       6.472   4.197  15.857  0.00  0.00    +0.000 A 
ATOM     29  C   UNL     1       5.319   4.400  16.604  0.00  0.00    +0.000 A 
ENDBRANCH  22  24
ENDBRANCH  17  18
ENDBRANCH   4  17
TORSDOF 5
ENDMDL
MODEL 4
REMARK VINA RESULT:      -7.5      2.173      3.490
REMARK  Name = 
REMARK  5 active torsions:
REMARK  status: ('A' for Active; 'I' for Inactive)
REMARK    1  A    between atoms: S_2  and  C_4
REMARK    2  A    between atoms: S_2  and  N_11
REMARK    3  A    between atoms: N_14  and  C_15
REMARK    4  A    between atoms: C_15  and  C_16
REMARK    5  A    between atoms: C_20  and  C_21
REMARK                            x       y       z     vdW  Elec       q    Type
REMARK                         _______ _______ _______ _____ _____    ______ ____
ROOT
ATOM      1  N   UNL     1      -0.183  10.050  20.145  0.00  0.00    +0.000 NA
ATOM      2  C   UNL     1       0.437   9.315  18.998  0.00  0.00    +0.000 C 
ATOM      3  C   UNL     1       1.788   8.650  19.372  0.00  0.00    +0.000 C 
ATOM      4  N   UNL     1       1.804   7.854  20.629  0.00  0.00    +0.000 NA
ATOM      5  C   UNL     1       1.176   8.648  21.708  0.00  0.00    +0.000 C 
ATOM      6  C   UNL     1      -0.229   9.165  21.353  0.00  0.00    +0.000 C 
ENDROOT
BRANCH   1   8
ATOM      7  O   UNL     1       0.657  12.288  19.204  0.00  0.00    +0.000 OA
ATOM      8  S   UNL     1       0.414  11.629  20.466  0.00  0.00    +0.000 S 
ATOM      9  O   UNL     1       1.454  11.512  21.463  0.00  0.00    +0.000 OA
BRANCH   8  10
ATOM     10  C   UNL     1      -0.954  12.442  21.251  0.00  0.00    +0.000 A 
ATOM     11  C   UNL     1      -2.092  12.730  20.492  0.00  0.00    +0.000 A 
ATOM     12  C   UNL     1      -3.219  13.267  21.120  0.00  0.00    +0.000 A 
ATOM     13  C   UNL     1      -3.203  13.499  22.496  0.00  0.00    +0.000 A 
ATOM     14 CL   UNL     1      -4.605  14.128  23.267  0.00  0.00    +0.000 Cl
ATOM     15  C   UNL     1      -2.066  13.212  23.251  0.00  0.00    +0.000 A 
ATOM     16  C   UNL     1      -0.931  12.683  22.629  0.00  0.00    +0.000 A 
ENDBRANCH   8  10
ENDBRANCH   1   8
BRANCH   4  17
ATOM     17  C   UNL     1       1.169   6.541  20.426  0.00  0.00    +0.000 C 
BRANCH  17  18
ATOM     18  C   UNL     1       2.136   5.379  20.302  0.00  0.00    +0.000 A 
ATOM     19  C   UNL     1       1.895   4.177  20.978  0.00  0.00    +0.000 A 
ATOM     20  C   UNL     1       2.752   3.093  20.808  0.00  0.00    +0.000 A 
ATOM     21  C   UNL     1       3.851   3.192  19.950  0.00  0.00    +0.000 A 
ATOM     22  C   UNL     1       4.126   4.380  19.249  0.00  0.00    +0.000 A 
ATOM     23  C   UNL     1       3.260   5.471  19.462  0.00  0.00    +0.000 A 
BRANCH  22  24
ATOM     24  C   UNL     1       5.255   4.468  18.293  0.00  0.00    +0.000 A 
ATOM     25  C   UNL     1       6.545   4.827  18.712  0.00  0.00    +0.000 A 
ATOM     26  C   UNL     1       7.581   4.862  17.788  0.00  0.00    +0.000 A 
ATOM     27  N   UNL     1       7.433   4.564  16.483  0.00  0.00    +0.000 NA
ATOM     28  C   UNL     1       6.191   4.220  16.086  0.00  0.00    +0.000 A 
ATOM     29  C   UNL     1       5.093   4.165  16.934  0.00  0.00    +0.000 A 
ENDBRANCH  22  24
ENDBRANCH  17  18
ENDBRANCH   4  17
TORSDOF 5
ENDMDL
MODEL 5
REMARK VINA RESULT:      -7.4      1.919      3.115
REMARK  Name = 
REMARK  5 active torsions:
REMARK  status: ('A' for Active; 'I' for Inactive)
REMARK    1  A    between atoms: S_2  and  C_4
REMARK    2  A    between atoms: S_2  and  N_11
REMARK    3  A    between atoms: N_14  and  C_15
REMARK    4  A    between atoms: C_15  and  C_16
REMARK    5  A    between atoms: C_20  and  C_21
REMARK                            x       y       z     vdW  Elec       q    Type
REMARK                         _______ _______ _______ _____ _____    ______ ____
ROOT
ATOM      1  N   UNL     1      -0.916  11.035  20.079  0.00  0.00    +0.000 NA
ATOM      2  C   UNL     1      -0.488  11.108  18.647  0.00  0.00    +0.000 C 
ATOM      3  C   UNL     1       1.040  10.906  18.467  0.00  0.00    +0.000 C 
ATOM      4  N   UNL     1       1.639   9.745  19.178  0.00  0.00    +0.000 NA
ATOM      5  C   UNL     1       1.167   9.746  20.581  0.00  0.00    +0.000 C 
ATOM      6  C   UNL     1      -0.365   9.796  20.714  0.00  0.00    +0.000 C 
ENDROOT
BRANCH   1   8
ATOM      7  O   UNL     1      -0.507  13.571  20.130  0.00  0.00    +0.000 OA
ATOM      8  S   UNL     1      -0.698  12.454  21.025  0.00  0.00    +0.000 S 
ATOM      9  O   UNL     1       0.263  12.149  22.060  0.00  0.00    +0.000 OA
BRANCH   8  10
ATOM     10  C   UNL     1      -2.264  12.663  21.832  0.00  0.00    +0.000 A 
ATOM     11  C   UNL     1      -3.376  13.021  21.063  0.00  0.00    +0.000 A 
ATOM     12  C   UNL     1      -4.637  13.080  21.663  0.00  0.00    +0.000 A 
ATOM     13  C   UNL     1      -4.777  12.770  23.017  0.00  0.00    +0.000 A 
ATOM     14 CL   UNL     1      -6.336  12.811  23.740  0.00  0.00    +0.000 Cl
ATOM     15  C   UNL     1      -3.666  12.413  23.783  0.00  0.00    +0.000 A 
ATOM     16  C   UNL     1      -2.400  12.362  23.191  0.00  0.00    +0.000 A 
ENDBRANCH   8  10
ENDBRANCH   1   8
BRANCH   4  17
ATOM     17  C   UNL     1       1.349   8.489  18.467  0.00  0.00    +0.000 C 
BRANCH  17  18
ATOM     18  C   UNL     1       2.238   7.321  18.853  0.00  0.00    +0.000 A 
ATOM     19  C   UNL     1       1.933   6.533  19.968  0.00  0.00    +0.000 A 
ATOM     20  C   UNL     1       2.716   5.424  20.279  0.00  0.00    +0.000 A 
ATOM     21  C   UNL     1       3.802   5.081  19.470  0.00  0.00    +0.000 A 
ATOM     22  C   UNL     1       4.140   5.843  18.337  0.00  0.00    +0.000 A 
ATOM     23  C   UNL     1       3.349   6.977  18.063  0.00  0.00    +0.000 A 
BRANCH  22  24
ATOM     24  C   UNL     1       5.253   5.446  17.444  0.00  0.00    +0.000 A 
ATOM     25  C   UNL     1       5.177   5.621  16.054  0.00  0.00    +0.000 A 
ATOM     26  C   UNL     1       6.258   5.269  15.257  0.00  0.00    +0.000 A 
ATOM     27  N   UNL     1       7.409   4.762  15.737  0.00  0.00    +0.000 NA
ATOM     28  C   UNL     1       7.478   4.596  17.073  0.00  0.00    +0.000 A 
ATOM     29  C   UNL     1       6.446   4.911  17.948  0.00  0.00    +0.000 A 
ENDBRANCH  22  24
ENDBRANCH  17  18
ENDBRANCH   4  17
TORSDOF 5
ENDMDL
MODEL 6
REMARK VINA RESULT:      -7.3      1.854      2.943
REMARK  Name = 
REMARK  5 active torsions:
REMARK  status: ('A' for Active; 'I' for Inactive)
REMARK    1  A    between atoms: S_2  and  C_4
REMARK    2  A    between atoms: S_2  and  N_11
REMARK    3  A    between atoms: N_14  and  C_15
REMARK    4  A    between atoms: C_15  and  C_16
REMARK    5  A    between atoms: C_20  and  C_21
REMARK                            x       y       z     vdW  Elec       q    Type
REMARK                         _______ _______ _______ _____ _____    ______ ____
ROOT
ATOM      1  N   UNL     1      -0.998  10.801  20.685  0.00  0.00    +0.000 NA
ATOM      2  C   UNL     1      -0.510  11.235  19.339  0.00  0.00    +0.000 C 
ATOM      3  C   UNL     1       1.032  11.142  19.201  0.00  0.00    +0.000 C 
ATOM      4  N   UNL     1       1.658   9.868  19.647  0.00  0.00    +0.000 NA
ATOM      5  C   UNL     1       1.124   9.511  20.980  0.00  0.00    +0.000 C 
ATOM      6  C   UNL     1      -0.413   9.467  21.035  0.00  0.00    +0.000 C 
ENDROOT
BRANCH   1   8
ATOM      7  O   UNL     1      -0.256  13.142  21.437  0.00  0.00    +0.000 OA
ATOM      8  S   UNL     1      -0.897  11.956  21.954  0.00  0.00    +0.000 S 
ATOM      9  O   UNL     1      -0.389  11.279  23.125  0.00  0.00    +0.000 OA
BRANCH   8  10
ATOM     10  C   UNL     1      -2.592  12.355  22.293  0.00  0.00    +0.000 A 
ATOM     11  C   UNL     1      -3.048  12.294  23.613  0.00  0.00    +0.000 A 
ATOM     12  C   UNL     1      -4.347  12.712  23.912  0.00  0.00    +0.000 A 
ATOM     13  C   UNL     1      -5.172  13.198  22.897  0.00  0.00    +0.000 A 
ATOM     14 CL   UNL     1      -6.757  13.743  23.277  0.00  0.00    +0.000 Cl
ATOM     15  C   UNL     1      -4.715  13.258  21.579  0.00  0.00    +0.000 A 
ATOM     16  C   UNL     1      -3.420  12.832  21.271  0.00  0.00    +0.000 A 
ENDBRANCH   8  10
ENDBRANCH   1   8
BRANCH   4  17
ATOM     17  C   UNL     1       1.466   8.810  18.640  0.00  0.00    +0.000 C 
BRANCH  17  18
ATOM     18  C   UNL     1       2.239   7.532  18.906  0.00  0.00    +0.000 A 
ATOM     19  C   UNL     1       1.850   6.666  19.934  0.00  0.00    +0.000 A 
ATOM     20  C   UNL     1       2.524   5.463  20.131  0.00  0.00    +0.000 A 
ATOM     21  C   UNL     1       3.584   5.106  19.294  0.00  0.00    +0.000 A 
ATOM     22  C   UNL     1       4.004   5.945  18.246  0.00  0.00    +0.000 A 
ATOM     23  C   UNL     1       3.324   7.169  18.088  0.00  0.00    +0.000 A 
BRANCH  22  24
ATOM     24  C   UNL     1       5.087   5.541  17.320  0.00  0.00    +0.000 A 
ATOM     25  C   UNL     1       6.302   6.241  17.262  0.00  0.00    +0.000 A 
ATOM     26  C   UNL     1       7.304   5.806  16.404  0.00  0.00    +0.000 A 
ATOM     27  N   UNL     1       7.192   4.728  15.606  0.00  0.00    +0.000 NA
ATOM     28  C   UNL     1       6.023   4.059  15.666  0.00  0.00    +0.000 A 
ATOM     29  C   UNL     1       4.963   4.422  16.485  0.00  0.00    +0.000 A 
ENDBRANCH  22  24
ENDBRANCH  17  18
ENDBRANCH   4  17
TORSDOF 5
ENDMDL
MODEL 7
REMARK VINA RESULT:      -7.3      1.077      1.272
REMARK  Name = 
REMARK  5 active torsions:
REMARK  status: ('A' for Active; 'I' for Inactive)
REMARK    1  A    between atoms: S_2  and  C_4
REMARK    2  A    between atoms: S_2  and  N_11
REMARK    3  A    between atoms: N_14  and  C_15
REMARK    4  A    between atoms: C_15  and  C_16
REMARK    5  A    between atoms: C_20  and  C_21
REMARK                            x       y       z     vdW  Elec       q    Type
REMARK                         _______ _______ _______ _____ _____    ______ ____
ROOT
ATOM      1  N   UNL     1      -0.833  11.365  20.572  0.00  0.00    +0.000 NA
ATOM      2  C   UNL     1      -0.282  11.926  19.299  0.00  0.00    +0.000 C 
ATOM      3  C   UNL     1       1.233  11.642  19.124  0.00  0.00    +0.000 C 
ATOM      4  N   UNL     1       1.672  10.241  19.362  0.00  0.00    +0.000 NA
ATOM      5  C   UNL     1       1.087   9.763  20.635  0.00  0.00    +0.000 C 
ATOM      6  C   UNL     1      -0.441   9.925  20.707  0.00  0.00    +0.000 C 
ENDROOT
BRANCH   1   8
ATOM      7  O   UNL     1       0.457  13.260  21.732  0.00  0.00    +0.000 OA
ATOM      8  S   UNL     1      -0.577  12.289  21.999  0.00  0.00    +0.000 S 
ATOM      9  O   UNL     1      -0.472  11.366  23.107  0.00  0.00    +0.000 OA
BRANCH   8  10
ATOM     10  C   UNL     1      -2.106  13.164  22.210  0.00  0.00    +0.000 A 
ATOM     11  C   UNL     1      -3.228  12.462  22.660  0.00  0.00    +0.000 A 
ATOM     12  C   UNL     1      -4.408  13.156  22.938  0.00  0.00    +0.000 A 
ATOM     13  C   UNL     1      -4.453  14.542  22.778  0.00  0.00    +0.000 A 
ATOM     14 CL   UNL     1      -5.897  15.395  23.155  0.00  0.00    +0.000 Cl
ATOM     15  C   UNL     1      -3.331  15.242  22.329  0.00  0.00    +0.000 A 
ATOM     16  C   UNL     1      -2.150  14.552  22.039  0.00  0.00    +0.000 A 
ENDBRANCH   8  10
ENDBRANCH   1   8
BRANCH   4  17
ATOM     17  C   UNL     1       1.339   9.385  18.211  0.00  0.00    +0.000 C 
BRANCH  17  18
ATOM     18  C   UNL     1       2.182   8.130  18.086  0.00  0.00    +0.000 A 
ATOM     19  C   UNL     1       3.366   8.138  17.341  0.00  0.00    +0.000 A 
ATOM     20  C   UNL     1       4.169   7.001  17.284  0.00  0.00    +0.000 A 
ATOM     21  C   UNL     1       3.804   5.848  17.984  0.00  0.00    +0.000 A 
ATOM     22  C   UNL     1       2.625   5.798  18.749  0.00  0.00    +0.000 A 
ATOM     23  C   UNL     1       1.817   6.953  18.765  0.00  0.00    +0.000 A 
BRANCH  22  24
ATOM     24  C   UNL     1       2.267   4.598  19.540  0.00  0.00    +0.000 A 
ATOM     25  C   UNL     1       1.899   3.394  18.921  0.00  0.00    +0.000 A 
ATOM     26  C   UNL     1       1.606   2.283  19.701  0.00  0.00    +0.000 A 
ATOM     27  N   UNL     1       1.657   2.276  21.046  0.00  0.00    +0.000 NA
ATOM     28  C   UNL     1       2.012   3.436  21.636  0.00  0.00    +0.000 A 
ATOM     29  C   UNL     1       2.314   4.599  20.940  0.00  0.00    +0.000 A 
ENDBRANCH  22  24
ENDBRANCH  17  18
ENDBRANCH   4  17
TORSDOF 5
ENDMDL
MODEL 8
REMARK VINA RESULT:      -7.2      2.068      3.160
REMARK  Name = 
REMARK  5 active torsions:
REMARK  status: ('A' for Active; 'I' for Inactive)
REMARK    1  A    between atoms: S_2  and  C_4
REMARK    2  A    between atoms: S_2  and  N_11
REMARK    3  A    between atoms: N_14  and  C_15
REMARK    4  A    between atoms: C_15  and  C_16
REMARK    5  A    between atoms: C_20  and  C_21
REMARK                            x       y       z     vdW  Elec       q    Type
REMARK                         _______ _______ _______ _____ _____    ______ ____
ROOT
ATOM      1  N   UNL     1      -1.134  11.742  19.936  0.00  0.00    +0.000 NA
ATOM      2  C   UNL     1      -0.459  12.048  18.636  0.00  0.00    +0.000 C 
ATOM      3  C   UNL     1       1.073  11.805  18.685  0.00  0.00    +0.000 C 
ATOM      4  N   UNL     1       1.517  10.508  19.262  0.00  0.00    +0.000 NA
ATOM      5  C   UNL     1       0.804  10.281  20.539  0.00  0.00    +0.000 C 
ATOM      6  C   UNL     1      -0.726  10.382  20.415  0.00  0.00    +0.000 C 
ENDROOT
BRANCH   1   8
ATOM      7  O   UNL     1      -1.017  14.245  20.502  0.00  0.00    +0.000 OA
ATOM      8  S   UNL     1      -1.062  12.956  21.151  0.00  0.00    +0.000 S 
ATOM      9  O   UNL     1      -0.053  12.561  22.107  0.00  0.00    +0.000 OA
BRANCH   8  10
ATOM     10  C   UNL     1      -2.627  12.815  21.976  0.00  0.00    +0.000 A 
ATOM     11  C   UNL     1      -2.647  12.728  23.371  0.00  0.00    +0.000 A 
ATOM     12  C   UNL     1      -3.872  12.730  24.042  0.00  0.00    +0.000 A 
ATOM     13  C   UNL     1      -5.061  12.831  23.318  0.00  0.00    +0.000 A 
ATOM     14 CL   UNL     1      -6.564  12.867  24.152  0.00  0.00    +0.000 Cl
ATOM     15  C   UNL     1      -5.039  12.917  21.925  0.00  0.00    +0.000 A 
ATOM     16  C   UNL     1      -3.817  12.906  21.246  0.00  0.00    +0.000 A 
ENDBRANCH   8  10
ENDBRANCH   1   8
BRANCH   4  17
ATOM     17  C   UNL     1       1.335   9.415  18.292  0.00  0.00    +0.000 C 
BRANCH  17  18
ATOM     18  C   UNL     1       2.109   8.149  18.608  0.00  0.00    +0.000 A 
ATOM     19  C   UNL     1       1.664   7.273  19.605  0.00  0.00    +0.000 A 
ATOM     20  C   UNL     1       2.343   6.081  19.846  0.00  0.00    +0.000 A 
ATOM     21  C   UNL     1       3.465   5.745  19.084  0.00  0.00    +0.000 A 
ATOM     22  C   UNL     1       3.943   6.594  18.070  0.00  0.00    +0.000 A 
ATOM     23  C   UNL     1       3.255   7.807  17.867  0.00  0.00    +0.000 A 
BRANCH  22  24
ATOM     24  C   UNL     1       5.095   6.212  17.221  0.00  0.00    +0.000 A 
ATOM     25  C   UNL     1       4.916   5.549  15.997  0.00  0.00    +0.000 A 
ATOM     26  C   UNL     1       6.022   5.241  15.216  0.00  0.00    +0.000 A 
ATOM     27  N   UNL     1       7.289   5.545  15.556  0.00  0.00    +0.000 NA
ATOM     28  C   UNL     1       7.455   6.182  16.733  0.00  0.00    +0.000 A 
ATOM     29  C   UNL     1       6.412   6.524  17.583  0.00  0.00    +0.000 A 
ENDBRANCH  22  24
ENDBRANCH  17  18
ENDBRANCH   4  17
TORSDOF 5
ENDMDL
MODEL 9
REMARK VINA RESULT:      -7.2      2.279      3.524
REMARK  Name = 
REMARK  5 active torsions:
REMARK  status: ('A' for Active; 'I' for Inactive)
REMARK    1  A    between atoms: S_2  and  C_4
REMARK    2  A    between atoms: S_2  and  N_11
REMARK    3  A    between atoms: N_14  and  C_15
REMARK    4  A    between atoms: C_15  and  C_16
REMARK    5  A    between atoms: C_20  and  C_21
REMARK                            x       y       z     vdW  Elec       q    Type
REMARK                         _______ _______ _______ _____ _____    ______ ____
ROOT
ATOM      1  N   UNL     1      -0.096  10.084  20.006  0.00  0.00    +0.000 NA
ATOM      2  C   UNL     1       0.518   9.283  18.902  0.00  0.00    +0.000 C 
ATOM      3  C   UNL     1       1.852   8.609  19.322  0.00  0.00    +0.000 C 
ATOM      4  N   UNL     1       1.841   7.876  20.616  0.00  0.00    +0.000 NA
ATOM      5  C   UNL     1       1.220   8.735  21.649  0.00  0.00    +0.000 C 
ATOM      6  C   UNL     1      -0.171   9.261  21.255  0.00  0.00    +0.000 C 
ENDROOT
BRANCH   1   8
ATOM      7  O   UNL     1       0.955  12.192  18.979  0.00  0.00    +0.000 OA
ATOM      8  S   UNL     1       0.530  11.666  20.255  0.00  0.00    +0.000 S 
ATOM      9  O   UNL     1       1.434  11.608  21.381  0.00  0.00    +0.000 OA
BRANCH   8  10
ATOM     10  C   UNL     1      -0.884  12.597  20.786  0.00  0.00    +0.000 A 
ATOM     11  C   UNL     1      -0.700  13.636  21.703  0.00  0.00    +0.000 A 
ATOM     12  C   UNL     1      -1.783  14.450  22.046  0.00  0.00    +0.000 A 
ATOM     13  C   UNL     1      -3.031  14.228  21.462  0.00  0.00    +0.000 A 
ATOM     14 CL   UNL     1      -4.351  15.255  21.861  0.00  0.00    +0.000 Cl
ATOM     15  C   UNL     1      -3.212  13.191  20.546  0.00  0.00    +0.000 A 
ATOM     16  C   UNL     1      -2.136  12.366  20.206  0.00  0.00    +0.000 A 
ENDBRANCH   8  10
ENDBRANCH   1   8
BRANCH   4  17
ATOM     17  C   UNL     1       1.181   6.568  20.472  0.00  0.00    +0.000 C 
BRANCH  17  18
ATOM     18  C   UNL     1       2.127   5.390  20.328  0.00  0.00    +0.000 A 
ATOM     19  C   UNL     1       1.857   4.178  20.973  0.00  0.00    +0.000 A 
ATOM     20  C   UNL     1       2.695   3.081  20.785  0.00  0.00    +0.000 A 
ATOM     21  C   UNL     1       3.803   3.180  19.939  0.00  0.00    +0.000 A 
ATOM     22  C   UNL     1       4.107   4.378  19.268  0.00  0.00    +0.000 A 
ATOM     23  C   UNL     1       3.260   5.480  19.500  0.00  0.00    +0.000 A 
BRANCH  22  24
ATOM     24  C   UNL     1       5.245   4.467  18.324  0.00  0.00    +0.000 A 
ATOM     25  C   UNL     1       5.120   4.070  16.984  0.00  0.00    +0.000 A 
ATOM     26  C   UNL     1       6.202   4.204  16.125  0.00  0.00    +0.000 A 
ATOM     27  N   UNL     1       7.396   4.706  16.494  0.00  0.00    +0.000 NA
ATOM     28  C   UNL     1       7.511   5.086  17.783  0.00  0.00    +0.000 A 
ATOM     29  C   UNL     1       6.488   4.983  18.716  0.00  0.00    +0.000 A 
ENDBRANCH  22  24
ENDBRANCH  17  18
ENDBRANCH   4  17
TORSDOF 5
ENDMDL
