MODEL 1
REMARK VINA RESULT:      -8.3      0.000      0.000
REMARK  Name = 
REMARK  7 active torsions:
REMARK  status: ('A' for Active; 'I' for Inactive)
REMARK    1  A    between atoms: C_2  and  C_4
REMARK    2  A    between atoms: C_7  and  C_8
REMARK    3  A    between atoms: C_10  and  C_11
REMARK    4  A    between atoms: C_14  and  S_15
REMARK    5  A    between atoms: S_15  and  N_18
REMARK    6  A    between atoms: N_18  and  C_19
REMARK    7  A    between atoms: C_26  and  N_27
REMARK                            x       y       z     vdW  Elec       q    Type
REMARK                         _______ _______ _______ _____ _____    ______ ____
ROOT
ATOM      1  C   UNL     1       4.387   5.244  17.698  0.00  0.00    +0.000 A 
ATOM      2  C   UNL     1       3.566   6.391  17.809  0.00  0.00    +0.000 A 
ATOM      3  C   UNL     1       2.874   6.732  18.984  0.00  0.00    +0.000 A 
ATOM      4  C   UNL     1       3.058   5.852  20.043  0.00  0.00    +0.000 A 
ATOM      5  N   UNL     1       3.834   4.743  20.007  0.00  0.00    +0.000 NA
ATOM      6  C   UNL     1       4.486   4.458  18.861  0.00  0.00    +0.000 A 
ENDROOT
BRANCH   1  10
ATOM      7  C   UNL     1       6.396   4.368  13.949  0.00  0.00    +0.000 A 
ATOM      8  C   UNL     1       5.172   3.773  14.253  0.00  0.00    +0.000 A 
ATOM      9  C   UNL     1       4.524   4.074  15.460  0.00  0.00    +0.000 A 
ATOM     10  C   UNL     1       5.089   4.947  16.414  0.00  0.00    +0.000 A 
ATOM     11  C   UNL     1       6.348   5.492  16.099  0.00  0.00    +0.000 A 
ATOM     12  C   UNL     1       6.987   5.222  14.880  0.00  0.00    +0.000 A 
BRANCH   7  14
ATOM     13  N   UNL     1       6.843   2.911  12.049  0.00  0.00    +0.000 N 
ATOM     14  C   UNL     1       7.103   4.104  12.670  0.00  0.00    +0.000 C 
ATOM     15  O   UNL     1       7.856   4.925  12.166  0.00  0.00    +0.000 OA
ATOM     16  H   UNL     1       7.242   2.793  11.126  0.00  0.00    +0.000 HD
ATOM     17  H   UNL     1       6.050   2.336  12.293  0.00  0.00    +0.000 HD
ENDBRANCH   7  14
ENDBRANCH   1  10
BRANCH   3  18
ATOM     18  C   UNL     1       2.011   7.938  19.077  0.00  0.00    +0.000 A 
ATOM     19  C   UNL     1       1.731   8.717  17.937  0.00  0.00    +0.000 A 
ATOM     20  C   UNL     1       0.955   9.879  18.004  0.00  0.00    +0.000 A 
ATOM     21  C   UNL     1       0.415  10.283  19.223  0.00  0.00    +0.000 A 
ATOM     22  C   UNL     1       0.656   9.533  20.375  0.00  0.00    +0.000 A 
ATOM     23  C   UNL     1       1.440   8.371  20.295  0.00  0.00    +0.000 A 
BRANCH  21  24
ATOM     24  S   UNL     1      -0.495  11.810  19.313  0.00  0.00    +0.000 S 
ATOM     25  O   UNL     1      -1.636  11.583  20.171  0.00  0.00    +0.000 OA
ATOM     26  O   UNL     1       0.441  12.886  19.571  0.00  0.00    +0.000 OA
BRANCH  24  27
ATOM     27  N   UNL     1      -1.096  11.982  17.747  0.00  0.00    +0.000 NA
ATOM     28  H   UNL     1      -0.355  11.850  17.057  0.00  0.00    +0.000 HD
BRANCH  27  29
ATOM     29  C   UNL     1      -2.409  11.413  17.459  0.00  0.00    +0.000 C 
ATOM     30  C   UNL     1      -2.729  10.940  16.067  0.00  0.00    +0.000 C 
ATOM     31  C   UNL     1      -2.616   9.950  17.191  0.00  0.00    +0.000 C 
ENDBRANCH  27  29
ENDBRANCH  24  27
ENDBRANCH  21  24
ENDBRANCH   3  18
BRANCH   6  32
ATOM     32  N   UNL     1       5.247   3.296  18.934  0.00  0.00    +0.000 N 
ATOM     33  H   UNL     1       5.509   3.173  19.908  0.00  0.00    +0.000 HD
ATOM     34  H   UNL     1       6.055   3.340  18.321  0.00  0.00    +0.000 HD
ENDBRANCH   6  32
TORSDOF 7
ENDMDL
MODEL 2
REMARK VINA RESULT:      -8.1      0.213      1.280
REMARK  Name = 
REMARK  7 active torsions:
REMARK  status: ('A' for Active; 'I' for Inactive)
REMARK    1  A    between atoms: C_2  and  C_4
REMARK    2  A    between atoms: C_7  and  C_8
REMARK    3  A    between atoms: C_10  and  C_11
REMARK    4  A    between atoms: C_14  and  S_15
REMARK    5  A    between atoms: S_15  and  N_18
REMARK    6  A    between atoms: N_18  and  C_19
REMARK    7  A    between atoms: C_26  and  N_27
REMARK                            x       y       z     vdW  Elec       q    Type
REMARK                         _______ _______ _______ _____ _____    ______ ____
ROOT
ATOM      1  C   UNL     1       4.378   5.198  17.557  0.00  0.00    +0.000 A 
ATOM      2  C   UNL     1       3.610   6.381  17.674  0.00  0.00    +0.000 A 
ATOM      3  C   UNL     1       2.966   6.767  18.861  0.00  0.00    +0.000 A 
ATOM      4  C   UNL     1       3.140   5.893  19.927  0.00  0.00    +0.000 A 
ATOM      5  N   UNL     1       3.866   4.750  19.887  0.00  0.00    +0.000 NA
ATOM      6  C   UNL     1       4.473   4.423  18.728  0.00  0.00    +0.000 A 
ENDROOT
BRANCH   1  10
ATOM      7  C   UNL     1       6.312   4.209  13.797  0.00  0.00    +0.000 A 
ATOM      8  C   UNL     1       6.903   5.111  14.682  0.00  0.00    +0.000 A 
ATOM      9  C   UNL     1       6.277   5.412  15.900  0.00  0.00    +0.000 A 
ATOM     10  C   UNL     1       5.032   4.854  16.260  0.00  0.00    +0.000 A 
ATOM     11  C   UNL     1       4.440   3.986  15.323  0.00  0.00    +0.000 A 
ATOM     12  C   UNL     1       5.073   3.654  14.117  0.00  0.00    +0.000 A 
BRANCH   7  14
ATOM     13  N   UNL     1       6.677   2.589  12.015  0.00  0.00    +0.000 N 
ATOM     14  C   UNL     1       6.954   3.835  12.511  0.00  0.00    +0.000 C 
ATOM     15  O   UNL     1       7.669   4.613  11.895  0.00  0.00    +0.000 OA
ATOM     16  H   UNL     1       7.028   2.391  11.087  0.00  0.00    +0.000 HD
ATOM     17  H   UNL     1       5.906   2.032  12.353  0.00  0.00    +0.000 HD
ENDBRANCH   7  14
ENDBRANCH   1  10
BRANCH   3  18
ATOM     18  C   UNL     1       2.159   8.011  18.961  0.00  0.00    +0.000 A 
ATOM     19  C   UNL     1       1.566   8.393  20.180  0.00  0.00    +0.000 A 
ATOM     20  C   UNL     1       0.769   9.537  20.292  0.00  0.00    +0.000 A 
ATOM     21  C   UNL     1       0.562  10.348  19.179  0.00  0.00    +0.000 A 
ATOM     22  C   UNL     1       1.142  10.015  17.955  0.00  0.00    +0.000 A 
ATOM     23  C   UNL     1       1.936   8.861  17.855  0.00  0.00    +0.000 A 
BRANCH  21  24
ATOM     24  S   UNL     1      -0.526  11.751  19.311  0.00  0.00    +0.000 S 
ATOM     25  O   UNL     1      -1.652  11.350  20.125  0.00  0.00    +0.000 OA
ATOM     26  O   UNL     1       0.268  12.916  19.644  0.00  0.00    +0.000 OA
BRANCH  24  27
ATOM     27  N   UNL     1      -1.107  11.926  17.738  0.00  0.00    +0.000 NA
ATOM     28  H   UNL     1      -0.351  11.829  17.059  0.00  0.00    +0.000 HD
BRANCH  27  29
ATOM     29  C   UNL     1      -2.395  11.317  17.419  0.00  0.00    +0.000 C 
ATOM     30  C   UNL     1      -2.625  10.728  16.054  0.00  0.00    +0.000 C 
ATOM     31  C   UNL     1      -2.572   9.835  17.261  0.00  0.00    +0.000 C 
ENDBRANCH  27  29
ENDBRANCH  24  27
ENDBRANCH  21  24
ENDBRANCH   3  18
BRANCH   6  32
ATOM     32  N   UNL     1       5.185   3.230  18.797  0.00  0.00    +0.000 N 
ATOM     33  H   UNL     1       4.502   2.479  18.833  0.00  0.00    +0.000 HD
ATOM     34  H   UNL     1       5.816   3.216  19.592  0.00  0.00    +0.000 HD
ENDBRANCH   6  32
TORSDOF 7
ENDMDL
MODEL 3
REMARK VINA RESULT:      -8.1      4.821     11.326
REMARK  Name = 
REMARK  7 active torsions:
REMARK  status: ('A' for Active; 'I' for Inactive)
REMARK    1  A    between atoms: C_2  and  C_4
REMARK    2  A    between atoms: C_7  and  C_8
REMARK    3  A    between atoms: C_10  and  C_11
REMARK    4  A    between atoms: C_14  and  S_15
REMARK    5  A    between atoms: S_15  and  N_18
REMARK    6  A    between atoms: N_18  and  C_19
REMARK    7  A    between atoms: C_26  and  N_27
REMARK                            x       y       z     vdW  Elec       q    Type
REMARK                         _______ _______ _______ _____ _____    ______ ____
ROOT
ATOM      1  C   UNL     1      -1.620  12.599  20.471  0.00  0.00    +0.000 A 
ATOM      2  C   UNL     1      -0.917  11.381  20.319  0.00  0.00    +0.000 A 
ATOM      3  C   UNL     1       0.233  11.249  19.522  0.00  0.00    +0.000 A 
ATOM      4  C   UNL     1       0.635  12.415  18.885  0.00  0.00    +0.000 A 
ATOM      5  N   UNL     1       0.014  13.615  18.992  0.00  0.00    +0.000 NA
ATOM      6  C   UNL     1      -1.081  13.697  19.774  0.00  0.00    +0.000 A 
ENDROOT
BRANCH   1  10
ATOM      7  C   UNL     1      -5.134  12.786  23.015  0.00  0.00    +0.000 A 
ATOM      8  C   UNL     1      -3.869  12.585  23.567  0.00  0.00    +0.000 A 
ATOM      9  C   UNL     1      -2.739  12.541  22.739  0.00  0.00    +0.000 A 
ATOM     10  C   UNL     1      -2.836  12.661  21.335  0.00  0.00    +0.000 A 
ATOM     11  C   UNL     1      -4.131  12.814  20.806  0.00  0.00    +0.000 A 
ATOM     12  C   UNL     1      -5.263  12.891  21.630  0.00  0.00    +0.000 A 
BRANCH   7  14
ATOM     13  N   UNL     1      -6.672  14.100  24.371  0.00  0.00    +0.000 N 
ATOM     14  C   UNL     1      -6.355  12.872  23.856  0.00  0.00    +0.000 C 
ATOM     15  O   UNL     1      -7.073  11.902  24.054  0.00  0.00    +0.000 OA
ATOM     16  H   UNL     1      -7.563  14.168  24.847  0.00  0.00    +0.000 HD
ATOM     17  H   UNL     1      -6.261  14.954  24.025  0.00  0.00    +0.000 HD
ENDBRANCH   7  14
ENDBRANCH   1  10
BRANCH   3  18
ATOM     18  C   UNL     1       0.953   9.957  19.372  0.00  0.00    +0.000 A 
ATOM     19  C   UNL     1       1.521   9.585  18.138  0.00  0.00    +0.000 A 
ATOM     20  C   UNL     1       2.169   8.359  17.958  0.00  0.00    +0.000 A 
ATOM     21  C   UNL     1       2.285   7.474  19.028  0.00  0.00    +0.000 A 
ATOM     22  C   UNL     1       1.749   7.808  20.272  0.00  0.00    +0.000 A 
ATOM     23  C   UNL     1       1.097   9.041  20.437  0.00  0.00    +0.000 A 
BRANCH  21  24
ATOM     24  S   UNL     1       3.032   5.879  18.765  0.00  0.00    +0.000 S 
ATOM     25  O   UNL     1       2.154   5.128  17.897  0.00  0.00    +0.000 OA
ATOM     26  O   UNL     1       4.430   6.077  18.436  0.00  0.00    +0.000 OA
BRANCH  24  27
ATOM     27  N   UNL     1       2.934   5.162  20.288  0.00  0.00    +0.000 NA
ATOM     28  H   UNL     1       2.533   5.809  20.968  0.00  0.00    +0.000 HD
BRANCH  27  29
ATOM     29  C   UNL     1       2.526   3.762  20.352  0.00  0.00    +0.000 C 
ATOM     30  C   UNL     1       2.194   3.140  21.681  0.00  0.00    +0.000 C 
ATOM     31  C   UNL     1       1.117   3.342  20.655  0.00  0.00    +0.000 C 
ENDBRANCH  27  29
ENDBRANCH  24  27
ENDBRANCH  21  24
ENDBRANCH   3  18
BRANCH   6  32
ATOM     32  N   UNL     1      -1.641  14.970  19.806  0.00  0.00    +0.000 N 
ATOM     33  H   UNL     1      -1.654  15.264  20.779  0.00  0.00    +0.000 HD
ATOM     34  H   UNL     1      -2.564  14.982  19.388  0.00  0.00    +0.000 HD
ENDBRANCH   6  32
TORSDOF 7
ENDMDL
MODEL 4
REMARK VINA RESULT:      -8.1      4.361     10.415
REMARK  Name = 
REMARK  7 active torsions:
REMARK  status: ('A' for Active; 'I' for Inactive)
REMARK    1  A    between atoms: C_2  and  C_4
REMARK    2  A    between atoms: C_7  and  C_8
REMARK    3  A    between atoms: C_10  and  C_11
REMARK    4  A    between atoms: C_14  and  S_15
REMARK    5  A    between atoms: S_15  and  N_18
REMARK    6  A    between atoms: N_18  and  C_19
REMARK    7  A    between atoms: C_26  and  N_27
REMARK                            x       y       z     vdW  Elec       q    Type
REMARK                         _______ _______ _______ _____ _____    ______ ____
ROOT
ATOM      1  C   UNL     1      -1.153  11.846  18.860  0.00  0.00    +0.000 A 
ATOM      2  C   UNL     1      -0.491  10.596  18.897  0.00  0.00    +0.000 A 
ATOM      3  C   UNL     1       0.904  10.460  18.796  0.00  0.00    +0.000 A 
ATOM      4  C   UNL     1       1.596  11.657  18.656  0.00  0.00    +0.000 A 
ATOM      5  N   UNL     1       1.027  12.885  18.620  0.00  0.00    +0.000 NA
ATOM      6  C   UNL     1      -0.315  12.969  18.728  0.00  0.00    +0.000 A 
ENDROOT
BRANCH   1  10
ATOM      7  C   UNL     1      -5.483  12.003  19.158  0.00  0.00    +0.000 A 
ATOM      8  C   UNL     1      -4.869  11.442  18.038  0.00  0.00    +0.000 A 
ATOM      9  C   UNL     1      -3.471  11.384  17.957  0.00  0.00    +0.000 A 
ATOM     10  C   UNL     1      -2.641  11.909  18.971  0.00  0.00    +0.000 A 
ATOM     11  C   UNL     1      -3.290  12.511  20.065  0.00  0.00    +0.000 A 
ATOM     12  C   UNL     1      -4.688  12.546  20.168  0.00  0.00    +0.000 A 
BRANCH   7  14
ATOM     13  N   UNL     1      -7.601  10.886  19.601  0.00  0.00    +0.000 N 
ATOM     14  C   UNL     1      -6.960  12.058  19.301  0.00  0.00    +0.000 C 
ATOM     15  O   UNL     1      -7.581  13.106  19.195  0.00  0.00    +0.000 OA
ATOM     16  H   UNL     1      -8.590  10.959  19.806  0.00  0.00    +0.000 HD
ATOM     17  H   UNL     1      -7.111  10.074  19.946  0.00  0.00    +0.000 HD
ENDBRANCH   7  14
ENDBRANCH   1  10
BRANCH   3  18
ATOM     18  C   UNL     1       1.579   9.137  18.832  0.00  0.00    +0.000 A 
ATOM     19  C   UNL     1       1.511   8.320  19.979  0.00  0.00    +0.000 A 
ATOM     20  C   UNL     1       2.170   7.089  20.054  0.00  0.00    +0.000 A 
ATOM     21  C   UNL     1       2.903   6.628  18.963  0.00  0.00    +0.000 A 
ATOM     22  C   UNL     1       2.985   7.398  17.802  0.00  0.00    +0.000 A 
ATOM     23  C   UNL     1       2.323   8.634  17.742  0.00  0.00    +0.000 A 
BRANCH  21  24
ATOM     24  S   UNL     1       3.810   5.103  19.102  0.00  0.00    +0.000 S 
ATOM     25  O   UNL     1       3.443   4.277  17.974  0.00  0.00    +0.000 OA
ATOM     26  O   UNL     1       5.196   5.419  19.386  0.00  0.00    +0.000 OA
BRANCH  24  27
ATOM     27  N   UNL     1       3.130   4.384  20.468  0.00  0.00    +0.000 NA
ATOM     28  H   UNL     1       2.806   5.092  21.127  0.00  0.00    +0.000 HD
BRANCH  27  29
ATOM     29  C   UNL     1       2.296   3.203  20.267  0.00  0.00    +0.000 C 
ATOM     30  C   UNL     1       1.403   2.721  21.378  0.00  0.00    +0.000 C 
ATOM     31  C   UNL     1       0.804   3.281  20.120  0.00  0.00    +0.000 C 
ENDBRANCH  27  29
ENDBRANCH  24  27
ENDBRANCH  21  24
ENDBRANCH   3  18
BRANCH   6  32
ATOM     32  N   UNL     1      -0.792  14.274  18.673  0.00  0.00    +0.000 N 
ATOM     33  H   UNL     1      -1.332  14.429  19.520  0.00  0.00    +0.000 HD
ATOM     34  H   UNL     1      -1.338  14.437  17.833  0.00  0.00    +0.000 HD
ENDBRANCH   6  32
TORSDOF 7
ENDMDL
MODEL 5
REMARK VINA RESULT:      -8.1      1.233      1.966
REMARK  Name = 
REMARK  7 active torsions:
REMARK  status: ('A' for Active; 'I' for Inactive)
REMARK    1  A    between atoms: C_2  and  C_4
REMARK    2  A    between atoms: C_7  and  C_8
REMARK    3  A    between atoms: C_10  and  C_11
REMARK    4  A    between atoms: C_14  and  S_15
REMARK    5  A    between atoms: S_15  and  N_18
REMARK    6  A    between atoms: N_18  and  C_19
REMARK    7  A    between atoms: C_26  and  N_27
REMARK                            x       y       z     vdW  Elec       q    Type
REMARK                         _______ _______ _______ _____ _____    ______ ____
ROOT
ATOM      1  C   UNL     1       3.320   5.802  18.699  0.00  0.00    +0.000 A 
ATOM      2  C   UNL     1       2.658   7.050  18.789  0.00  0.00    +0.000 A 
ATOM      3  C   UNL     1       1.809   7.396  19.854  0.00  0.00    +0.000 A 
ATOM      4  C   UNL     1       1.665   6.414  20.825  0.00  0.00    +0.000 A 
ATOM      5  N   UNL     1       2.274   5.204  20.806  0.00  0.00    +0.000 NA
ATOM      6  C   UNL     1       3.086   4.918  19.768  0.00  0.00    +0.000 A 
ENDROOT
BRANCH   1  10
ATOM      7  C   UNL     1       5.915   4.972  15.317  0.00  0.00    +0.000 A 
ATOM      8  C   UNL     1       5.806   6.266  15.826  0.00  0.00    +0.000 A 
ATOM      9  C   UNL     1       4.977   6.521  16.928  0.00  0.00    +0.000 A 
ATOM     10  C   UNL     1       4.205   5.506  17.534  0.00  0.00    +0.000 A 
ATOM     11  C   UNL     1       4.300   4.222  16.965  0.00  0.00    +0.000 A 
ATOM     12  C   UNL     1       5.152   3.952  15.885  0.00  0.00    +0.000 A 
BRANCH   7  14
ATOM     13  N   UNL     1       6.456   3.579  13.394  0.00  0.00    +0.000 N 
ATOM     14  C   UNL     1       6.805   4.650  14.173  0.00  0.00    +0.000 C 
ATOM     15  O   UNL     1       7.787   5.328  13.907  0.00  0.00    +0.000 OA
ATOM     16  H   UNL     1       7.005   3.440  12.556  0.00  0.00    +0.000 HD
ATOM     17  H   UNL     1       5.535   3.166  13.424  0.00  0.00    +0.000 HD
ENDBRANCH   7  14
ENDBRANCH   1  10
BRANCH   3  18
ATOM     18  C   UNL     1       1.119   8.710  19.925  0.00  0.00    +0.000 A 
ATOM     19  C   UNL     1       0.335   9.056  21.044  0.00  0.00    +0.000 A 
ATOM     20  C   UNL     1      -0.358  10.268  21.120  0.00  0.00    +0.000 A 
ATOM     21  C   UNL     1      -0.264  11.186  20.076  0.00  0.00    +0.000 A 
ATOM     22  C   UNL     1       0.512  10.890  18.955  0.00  0.00    +0.000 A 
ATOM     23  C   UNL     1       1.199   9.668  18.890  0.00  0.00    +0.000 A 
BRANCH  21  24
ATOM     24  S   UNL     1      -1.221  12.685  20.143  0.00  0.00    +0.000 S 
ATOM     25  O   UNL     1      -2.155  12.554  21.239  0.00  0.00    +0.000 OA
ATOM     26  O   UNL     1      -0.313  13.811  20.057  0.00  0.00    +0.000 OA
BRANCH  24  27
ATOM     27  N   UNL     1      -2.129  12.616  18.724  0.00  0.00    +0.000 NA
ATOM     28  H   UNL     1      -1.545  12.807  17.909  0.00  0.00    +0.000 HD
BRANCH  27  29
ATOM     29  C   UNL     1      -3.134  11.563  18.614  0.00  0.00    +0.000 C 
ATOM     30  C   UNL     1      -3.967  11.452  17.367  0.00  0.00    +0.000 C 
ATOM     31  C   UNL     1      -2.971  10.380  17.704  0.00  0.00    +0.000 C 
ENDBRANCH  27  29
ENDBRANCH  24  27
ENDBRANCH  21  24
ENDBRANCH   3  18
BRANCH   6  32
ATOM     32  N   UNL     1       3.653   3.649  19.846  0.00  0.00    +0.000 N 
ATOM     33  H   UNL     1       2.965   2.995  19.484  0.00  0.00    +0.000 HD
ATOM     34  H   UNL     1       3.937   3.425  20.793  0.00  0.00    +0.000 HD
ENDBRANCH   6  32
TORSDOF 7
ENDMDL
MODEL 6
REMARK VINA RESULT:      -8.1      4.245     10.164
REMARK  Name = 
REMARK  7 active torsions:
REMARK  status: ('A' for Active; 'I' for Inactive)
REMARK    1  A    between atoms: C_2  and  C_4
REMARK    2  A    between atoms: C_7  and  C_8
REMARK    3  A    between atoms: C_10  and  C_11
REMARK    4  A    between atoms: C_14  and  S_15
REMARK    5  A    between atoms: S_15  and  N_18
REMARK    6  A    between atoms: N_18  and  C_19
REMARK    7  A    between atoms: C_26  and  N_27
REMARK                            x       y       z     vdW  Elec       q    Type
REMARK                         _______ _______ _______ _____ _____    ______ ____
ROOT
ATOM      1  C   UNL     1      -1.036  11.539  18.611  0.00  0.00    +0.000 A 
ATOM      2  C   UNL     1      -0.342  10.308  18.698  0.00  0.00    +0.000 A 
ATOM      3  C   UNL     1       1.060  10.213  18.694  0.00  0.00    +0.000 A 
ATOM      4  C   UNL     1       1.725  11.428  18.599  0.00  0.00    +0.000 A 
ATOM      5  N   UNL     1       1.125  12.640  18.521  0.00  0.00    +0.000 NA
ATOM      6  C   UNL     1      -0.222  12.685  18.536  0.00  0.00    +0.000 A 
ENDROOT
BRANCH   1  10
ATOM      7  C   UNL     1      -5.378  11.567  18.613  0.00  0.00    +0.000 A 
ATOM      8  C   UNL     1      -4.674  10.835  17.657  0.00  0.00    +0.000 A 
ATOM      9  C   UNL     1      -3.273  10.821  17.673  0.00  0.00    +0.000 A 
ATOM     10  C   UNL     1      -2.528  11.560  18.619  0.00  0.00    +0.000 A 
ATOM     11  C   UNL     1      -3.267  12.326  19.539  0.00  0.00    +0.000 A 
ATOM     12  C   UNL     1      -4.670  12.321  19.550  0.00  0.00    +0.000 A 
BRANCH   7  14
ATOM     13  N   UNL     1      -7.496  10.386  18.832  0.00  0.00    +0.000 N 
ATOM     14  C   UNL     1      -6.862  11.586  18.654  0.00  0.00    +0.000 C 
ATOM     15  O   UNL     1      -7.498  12.627  18.571  0.00  0.00    +0.000 OA
ATOM     16  H   UNL     1      -8.498  10.427  18.970  0.00  0.00    +0.000 HD
ATOM     17  H   UNL     1      -7.012   9.562  19.158  0.00  0.00    +0.000 HD
ENDBRANCH   7  14
ENDBRANCH   1  10
BRANCH   3  18
ATOM     18  C   UNL     1       1.769   8.909  18.780  0.00  0.00    +0.000 A 
ATOM     19  C   UNL     1       2.593   8.463  17.728  0.00  0.00    +0.000 A 
ATOM     20  C   UNL     1       3.239   7.223  17.765  0.00  0.00    +0.000 A 
ATOM     21  C   UNL     1       3.093   6.399  18.879  0.00  0.00    +0.000 A 
ATOM     22  C   UNL     1       2.298   6.808  19.950  0.00  0.00    +0.000 A 
ATOM     23  C   UNL     1       1.651   8.053  19.897  0.00  0.00    +0.000 A 
BRANCH  21  24
ATOM     24  S   UNL     1       3.847   4.787  18.877  0.00  0.00    +0.000 S 
ATOM     25  O   UNL     1       3.245   4.029  17.803  0.00  0.00    +0.000 OA
ATOM     26  O   UNL     1       5.284   4.953  18.969  0.00  0.00    +0.000 OA
BRANCH  24  27
ATOM     27  N   UNL     1       3.290   4.109  20.317  0.00  0.00    +0.000 NA
ATOM     28  H   UNL     1       3.171   4.826  21.033  0.00  0.00    +0.000 HD
BRANCH  27  29
ATOM     29  C   UNL     1       2.279   3.060  20.225  0.00  0.00    +0.000 C 
ATOM     30  C   UNL     1       1.450   2.713  21.431  0.00  0.00    +0.000 C 
ATOM     31  C   UNL     1       0.806   3.351  20.234  0.00  0.00    +0.000 C 
ENDBRANCH  27  29
ENDBRANCH  24  27
ENDBRANCH  21  24
ENDBRANCH   3  18
BRANCH   6  32
ATOM     32  N   UNL     1      -0.732  13.977  18.444  0.00  0.00    +0.000 N 
ATOM     33  H   UNL     1      -0.475  14.333  17.528  0.00  0.00    +0.000 HD
ATOM     34  H   UNL     1      -0.392  14.566  19.196  0.00  0.00    +0.000 HD
ENDBRANCH   6  32
TORSDOF 7
ENDMDL
MODEL 7
REMARK VINA RESULT:      -8.0      2.543      3.261
REMARK  Name = 
REMARK  7 active torsions:
REMARK  status: ('A' for Active; 'I' for Inactive)
REMARK    1  A    between atoms: C_2  and  C_4
REMARK    2  A    between atoms: C_7  and  C_8
REMARK    3  A    between atoms: C_10  and  C_11
REMARK    4  A    between atoms: C_14  and  S_15
REMARK    5  A    between atoms: S_15  and  N_18
REMARK    6  A    between atoms: N_18  and  C_19
REMARK    7  A    between atoms: C_26  and  N_27
REMARK                            x       y       z     vdW  Elec       q    Type
REMARK                         _______ _______ _______ _____ _____    ______ ____
ROOT
ATOM      1  C   UNL     1       3.249   5.373  18.841  0.00  0.00    +0.000 A 
ATOM      2  C   UNL     1       2.714   6.647  19.148  0.00  0.00    +0.000 A 
ATOM      3  C   UNL     1       1.865   6.883  20.242  0.00  0.00    +0.000 A 
ATOM      4  C   UNL     1       1.584   5.761  21.012  0.00  0.00    +0.000 A 
ATOM      5  N   UNL     1       2.067   4.517  20.780  0.00  0.00    +0.000 NA
ATOM      6  C   UNL     1       2.885   4.339  19.723  0.00  0.00    +0.000 A 
ENDROOT
BRANCH   1  10
ATOM      7  C   UNL     1       5.874   4.902  15.414  0.00  0.00    +0.000 A 
ATOM      8  C   UNL     1       5.847   6.101  16.126  0.00  0.00    +0.000 A 
ATOM      9  C   UNL     1       5.006   6.238  17.240  0.00  0.00    +0.000 A 
ATOM     10  C   UNL     1       4.144   5.201  17.658  0.00  0.00    +0.000 A 
ATOM     11  C   UNL     1       4.160   4.023  16.889  0.00  0.00    +0.000 A 
ATOM     12  C   UNL     1       5.020   3.866  15.793  0.00  0.00    +0.000 A 
BRANCH   7  14
ATOM     13  N   UNL     1       6.458   3.681  13.389  0.00  0.00    +0.000 N 
ATOM     14  C   UNL     1       6.771   4.701  14.248  0.00  0.00    +0.000 C 
ATOM     15  O   UNL     1       7.727   5.432  14.034  0.00  0.00    +0.000 OA
ATOM     16  H   UNL     1       7.009   3.626  12.542  0.00  0.00    +0.000 HD
ATOM     17  H   UNL     1       5.553   3.234  13.388  0.00  0.00    +0.000 HD
ENDBRANCH   7  14
ENDBRANCH   1  10
BRANCH   3  18
ATOM     18  C   UNL     1       1.309   8.228  20.543  0.00  0.00    +0.000 A 
ATOM     19  C   UNL     1       0.738   8.510  21.800  0.00  0.00    +0.000 A 
ATOM     20  C   UNL     1       0.172   9.754  22.096  0.00  0.00    +0.000 A 
ATOM     21  C   UNL     1       0.184  10.766  21.138  0.00  0.00    +0.000 A 
ATOM     22  C   UNL     1       0.753  10.534  19.885  0.00  0.00    +0.000 A 
ATOM     23  C   UNL     1       1.313   9.279  19.599  0.00  0.00    +0.000 A 
BRANCH  21  24
ATOM     24  S   UNL     1      -0.618  12.315  21.494  0.00  0.00    +0.000 S 
ATOM     25  O   UNL     1       0.406  13.245  21.916  0.00  0.00    +0.000 OA
ATOM     26  O   UNL     1      -1.515  12.627  20.400  0.00  0.00    +0.000 OA
BRANCH  24  27
ATOM     27  N   UNL     1      -1.537  11.957  22.861  0.00  0.00    +0.000 NA
ATOM     28  H   UNL     1      -1.000  12.120  23.713  0.00  0.00    +0.000 HD
BRANCH  27  29
ATOM     29  C   UNL     1      -2.944  12.349  22.853  0.00  0.00    +0.000 C 
ATOM     30  C   UNL     1      -3.720  12.374  24.141  0.00  0.00    +0.000 C 
ATOM     31  C   UNL     1      -3.423  13.655  23.417  0.00  0.00    +0.000 C 
ENDBRANCH  27  29
ENDBRANCH  24  27
ENDBRANCH  21  24
ENDBRANCH   3  18
BRANCH   6  32
ATOM     32  N   UNL     1       3.316   3.024  19.575  0.00  0.00    +0.000 N 
ATOM     33  H   UNL     1       4.233   3.060  19.139  0.00  0.00    +0.000 HD
ATOM     34  H   UNL     1       2.655   2.473  19.037  0.00  0.00    +0.000 HD
ENDBRANCH   6  32
TORSDOF 7
ENDMDL
MODEL 8
REMARK VINA RESULT:      -8.0      2.139      2.887
REMARK  Name = 
REMARK  7 active torsions:
REMARK  status: ('A' for Active; 'I' for Inactive)
REMARK    1  A    between atoms: C_2  and  C_4
REMARK    2  A    between atoms: C_7  and  C_8
REMARK    3  A    between atoms: C_10  and  C_11
REMARK    4  A    between atoms: C_14  and  S_15
REMARK    5  A    between atoms: S_15  and  N_18
REMARK    6  A    between atoms: N_18  and  C_19
REMARK    7  A    between atoms: C_26  and  N_27
REMARK                            x       y       z     vdW  Elec       q    Type
REMARK                         _______ _______ _______ _____ _____    ______ ____
ROOT
ATOM      1  C   UNL     1       3.353   5.290  18.675  0.00  0.00    +0.000 A 
ATOM      2  C   UNL     1       2.839   6.564  19.015  0.00  0.00    +0.000 A 
ATOM      3  C   UNL     1       1.992   6.785  20.114  0.00  0.00    +0.000 A 
ATOM      4  C   UNL     1       1.692   5.649  20.854  0.00  0.00    +0.000 A 
ATOM      5  N   UNL     1       2.155   4.403  20.591  0.00  0.00    +0.000 NA
ATOM      6  C   UNL     1       2.971   4.239  19.530  0.00  0.00    +0.000 A 
ENDROOT
BRANCH   1  10
ATOM      7  C   UNL     1       5.961   4.872  15.228  0.00  0.00    +0.000 A 
ATOM      8  C   UNL     1       5.496   6.129  15.618  0.00  0.00    +0.000 A 
ATOM      9  C   UNL     1       4.666   6.255  16.741  0.00  0.00    +0.000 A 
ATOM     10  C   UNL     1       4.246   5.134  17.490  0.00  0.00    +0.000 A 
ATOM     11  C   UNL     1       4.693   3.877  17.042  0.00  0.00    +0.000 A 
ATOM     12  C   UNL     1       5.549   3.745  15.939  0.00  0.00    +0.000 A 
BRANCH   7  14
ATOM     13  N   UNL     1       6.550   3.706  13.174  0.00  0.00    +0.000 N 
ATOM     14  C   UNL     1       6.867   4.695  14.066  0.00  0.00    +0.000 C 
ATOM     15  O   UNL     1       7.835   5.420  13.883  0.00  0.00    +0.000 OA
ATOM     16  H   UNL     1       7.109   3.670  12.331  0.00  0.00    +0.000 HD
ATOM     17  H   UNL     1       5.640   3.270  13.150  0.00  0.00    +0.000 HD
ENDBRANCH   7  14
ENDBRANCH   1  10
BRANCH   3  18
ATOM     18  C   UNL     1       1.459   8.131  20.449  0.00  0.00    +0.000 A 
ATOM     19  C   UNL     1       1.279   9.108  19.450  0.00  0.00    +0.000 A 
ATOM     20  C   UNL     1       0.817  10.395  19.743  0.00  0.00    +0.000 A 
ATOM     21  C   UNL     1       0.498  10.733  21.056  0.00  0.00    +0.000 A 
ATOM     22  C   UNL     1       0.647   9.792  22.075  0.00  0.00    +0.000 A 
ATOM     23  C   UNL     1       1.116   8.505  21.768  0.00  0.00    +0.000 A 
BRANCH  21  24
ATOM     24  S   UNL     1      -0.004  12.399  21.431  0.00  0.00    +0.000 S 
ATOM     25  O   UNL     1      -0.878  12.838  20.366  0.00  0.00    +0.000 OA
ATOM     26  O   UNL     1      -0.421  12.451  22.818  0.00  0.00    +0.000 OA
BRANCH  24  27
ATOM     27  N   UNL     1       1.431  13.270  21.267  0.00  0.00    +0.000 NA
ATOM     28  H   UNL     1       2.227  12.722  21.594  0.00  0.00    +0.000 HD
BRANCH  27  29
ATOM     29  C   UNL     1       1.602  14.073  20.060  0.00  0.00    +0.000 C 
ATOM     30  C   UNL     1       2.953  14.645  19.728  0.00  0.00    +0.000 C 
ATOM     31  C   UNL     1       2.354  13.578  18.859  0.00  0.00    +0.000 C 
ENDBRANCH  27  29
ENDBRANCH  24  27
ENDBRANCH  21  24
ENDBRANCH   3  18
BRANCH   6  32
ATOM     32  N   UNL     1       3.380   2.922  19.348  0.00  0.00    +0.000 N 
ATOM     33  H   UNL     1       2.944   2.591  18.493  0.00  0.00    +0.000 HD
ATOM     34  H   UNL     1       3.146   2.344  20.149  0.00  0.00    +0.000 HD
ENDBRANCH   6  32
TORSDOF 7
ENDMDL
MODEL 9
REMARK VINA RESULT:      -7.9      3.883     10.468
REMARK  Name = 
REMARK  7 active torsions:
REMARK  status: ('A' for Active; 'I' for Inactive)
REMARK    1  A    between atoms: C_2  and  C_4
REMARK    2  A    between atoms: C_7  and  C_8
REMARK    3  A    between atoms: C_10  and  C_11
REMARK    4  A    between atoms: C_14  and  S_15
REMARK    5  A    between atoms: S_15  and  N_18
REMARK    6  A    between atoms: N_18  and  C_19
REMARK    7  A    between atoms: C_26  and  N_27
REMARK                            x       y       z     vdW  Elec       q    Type
REMARK                         _______ _______ _______ _____ _____    ______ ____
ROOT
ATOM      1  C   UNL     1      -1.104  11.726  18.665  0.00  0.00    +0.000 A 
ATOM      2  C   UNL     1      -0.443  10.476  18.715  0.00  0.00    +0.000 A 
ATOM      3  C   UNL     1       0.956  10.343  18.730  0.00  0.00    +0.000 A 
ATOM      4  C   UNL     1       1.653  11.544  18.691  0.00  0.00    +0.000 A 
ATOM      5  N   UNL     1       1.086  12.773  18.650  0.00  0.00    +0.000 NA
ATOM      6  C   UNL     1      -0.261  12.853  18.646  0.00  0.00    +0.000 A 
ENDROOT
BRANCH   1  10
ATOM      7  C   UNL     1      -5.442  11.926  18.650  0.00  0.00    +0.000 A 
ATOM      8  C   UNL     1      -4.714  12.407  19.739  0.00  0.00    +0.000 A 
ATOM      9  C   UNL     1      -3.313  12.351  19.728  0.00  0.00    +0.000 A 
ATOM     10  C   UNL     1      -2.596  11.786  18.651  0.00  0.00    +0.000 A 
ATOM     11  C   UNL     1      -3.361  11.266  17.591  0.00  0.00    +0.000 A 
ATOM     12  C   UNL     1      -4.761  11.347  17.579  0.00  0.00    +0.000 A 
BRANCH   7  14
ATOM     13  N   UNL     1      -7.613  11.173  19.457  0.00  0.00    +0.000 N 
ATOM     14  C   UNL     1      -6.924  11.994  18.604  0.00  0.00    +0.000 C 
ATOM     15  O   UNL     1      -7.514  12.774  17.869  0.00  0.00    +0.000 OA
ATOM     16  H   UNL     1      -8.615  11.310  19.495  0.00  0.00    +0.000 HD
ATOM     17  H   UNL     1      -7.172  10.718  20.242  0.00  0.00    +0.000 HD
ENDBRANCH   7  14
ENDBRANCH   1  10
BRANCH   3  18
ATOM     18  C   UNL     1       1.629   9.020  18.776  0.00  0.00    +0.000 A 
ATOM     19  C   UNL     1       1.517   8.190  19.910  0.00  0.00    +0.000 A 
ATOM     20  C   UNL     1       2.173   6.958  19.996  0.00  0.00    +0.000 A 
ATOM     21  C   UNL     1       2.948   6.510  18.929  0.00  0.00    +0.000 A 
ATOM     22  C   UNL     1       3.074   7.292  17.781  0.00  0.00    +0.000 A 
ATOM     23  C   UNL     1       2.415   8.530  17.709  0.00  0.00    +0.000 A 
BRANCH  21  24
ATOM     24  S   UNL     1       3.849   4.983  19.085  0.00  0.00    +0.000 S 
ATOM     25  O   UNL     1       3.291   4.264  20.208  0.00  0.00    +0.000 OA
ATOM     26  O   UNL     1       3.949   4.374  17.774  0.00  0.00    +0.000 OA
BRANCH  24  27
ATOM     27  N   UNL     1       5.384   5.498  19.558  0.00  0.00    +0.000 NA
ATOM     28  H   UNL     1       5.564   5.255  20.532  0.00  0.00    +0.000 HD
BRANCH  27  29
ATOM     29  C   UNL     1       6.475   5.344  18.601  0.00  0.00    +0.000 C 
ATOM     30  C   UNL     1       6.978   6.541  17.841  0.00  0.00    +0.000 C 
ATOM     31  C   UNL     1       7.857   5.871  18.857  0.00  0.00    +0.000 C 
ENDBRANCH  27  29
ENDBRANCH  24  27
ENDBRANCH  21  24
ENDBRANCH   3  18
BRANCH   6  32
ATOM     32  N   UNL     1      -0.735  14.160  18.596  0.00  0.00    +0.000 N 
ATOM     33  H   UNL     1      -0.347  14.647  19.399  0.00  0.00    +0.000 HD
ATOM     34  H   UNL     1      -1.749  14.188  18.582  0.00  0.00    +0.000 HD
ENDBRANCH   6  32
TORSDOF 7
ENDMDL
