MODEL 1
REMARK VINA RESULT:      -8.3      0.000      0.000
REMARK  Name = 
REMARK  4 active torsions:
REMARK  status: ('A' for Active; 'I' for Inactive)
REMARK    1  A    between atoms: C_1  and  O_2
REMARK    2  A    between atoms: O_2  and  C_3
REMARK    3  A    between atoms: C_11  and  O_12
REMARK    4  A    between atoms: O_12  and  C_13
REMARK                            x       y       z     vdW  Elec       q    Type
REMARK                         _______ _______ _______ _____ _____    ______ ____
ROOT
ATOM      1  C   UNL     1       6.696   6.318  16.943  0.00  0.00    +0.000 A 
ATOM      2  C   UNL     1       5.404   6.834  16.875  0.00  0.00    +0.000 A 
ATOM      3  C   UNL     1       4.475   5.981  17.433  0.00  0.00    +0.000 A 
ATOM      4  N   UNL     1       3.784   6.016  18.647  0.00  0.00    +0.000 N 
ATOM      5  C   UNL     1       3.136   4.820  18.792  0.00  0.00    +0.000 A 
ATOM      6  C   UNL     1       3.294   4.101  17.619  0.00  0.00    +0.000 A 
ATOM      7  C   UNL     1       4.550   4.605  17.203  0.00  0.00    +0.000 A 
ATOM      8  C   UNL     1       5.823   4.063  16.950  0.00  0.00    +0.000 A 
ATOM      9  C   UNL     1       6.837   4.971  17.292  0.00  0.00    +0.000 A 
ATOM     10  C   UNL     1       2.465   2.886  17.323  0.00  0.00    +0.000 C 
ATOM     11  C   UNL     1       2.035   2.061  18.565  0.00  0.00    +0.000 C 
ATOM     12  C   UNL     1       2.047   2.847  19.843  0.00  0.00    +0.000 A 
ATOM     13  C   UNL     1       1.661   2.493  21.108  0.00  0.00    +0.000 A 
ATOM     14  N   UNL     1       2.002   3.550  21.910  0.00  0.00    +0.000 N 
ATOM     15  N   UNL     1       2.539   4.596  21.227  0.00  0.00    +0.000 NA
ATOM     16  C   UNL     1       2.531   4.161  19.966  0.00  0.00    +0.000 A 
ATOM     17  H   UNL     1       3.991   6.661  19.399  0.00  0.00    +0.000 HD
ATOM     18  H   UNL     1       1.943   3.631  22.921  0.00  0.00    +0.000 HD
ENDROOT
BRANCH   1  20
ATOM     19  C   UNL     1       7.767   8.326  17.632  0.00  0.00    +0.000 C 
ATOM     20  O   UNL     1       7.676   7.243  16.717  0.00  0.00    +0.000 OA
ENDBRANCH   1  20
BRANCH   9  21
ATOM     21  O   UNL     1       7.847   4.640  18.176  0.00  0.00    +0.000 OA
ATOM     22  C   UNL     1       7.813   5.279  19.464  0.00  0.00    +0.000 C 
ENDBRANCH   9  21
TORSDOF 2
ENDMDL
MODEL 2
REMARK VINA RESULT:      -8.0      2.892      5.842
REMARK  Name = 
REMARK  4 active torsions:
REMARK  status: ('A' for Active; 'I' for Inactive)
REMARK    1  A    between atoms: C_1  and  O_2
REMARK    2  A    between atoms: O_2  and  C_3
REMARK    3  A    between atoms: C_11  and  O_12
REMARK    4  A    between atoms: O_12  and  C_13
REMARK                            x       y       z     vdW  Elec       q    Type
REMARK                         _______ _______ _______ _____ _____    ______ ____
ROOT
ATOM      1  C   UNL     1       1.947   2.991  19.683  0.00  0.00    +0.000 A 
ATOM      2  C   UNL     1       3.034   2.246  19.232  0.00  0.00    +0.000 A 
ATOM      3  C   UNL     1       4.011   3.041  18.670  0.00  0.00    +0.000 A 
ATOM      4  N   UNL     1       5.257   3.463  19.140  0.00  0.00    +0.000 N 
ATOM      5  C   UNL     1       5.733   4.404  18.269  0.00  0.00    +0.000 A 
ATOM      6  C   UNL     1       4.870   4.465  17.188  0.00  0.00    +0.000 A 
ATOM      7  C   UNL     1       3.662   4.104  17.833  0.00  0.00    +0.000 A 
ATOM      8  C   UNL     1       2.411   4.708  18.045  0.00  0.00    +0.000 A 
ATOM      9  C   UNL     1       1.869   4.329  19.283  0.00  0.00    +0.000 A 
ATOM     10  C   UNL     1       5.249   5.165  15.916  0.00  0.00    +0.000 C 
ATOM     11  C   UNL     1       6.196   6.382  16.089  0.00  0.00    +0.000 C 
ATOM     12  C   UNL     1       6.986   6.352  17.365  0.00  0.00    +0.000 A 
ATOM     13  C   UNL     1       7.965   7.193  17.824  0.00  0.00    +0.000 A 
ATOM     14  N   UNL     1       8.250   6.772  19.096  0.00  0.00    +0.000 N 
ATOM     15  N   UNL     1       7.549   5.668  19.470  0.00  0.00    +0.000 NA
ATOM     16  C   UNL     1       6.807   5.410  18.392  0.00  0.00    +0.000 A 
ATOM     17  H   UNL     1       5.578   3.336  20.092  0.00  0.00    +0.000 HD
ATOM     18  H   UNL     1       8.868   7.191  19.785  0.00  0.00    +0.000 HD
ENDROOT
BRANCH   1  20
ATOM     19  C   UNL     1       1.422   2.375  21.919  0.00  0.00    +0.000 C 
ATOM     20  O   UNL     1       1.121   2.310  20.532  0.00  0.00    +0.000 OA
ENDBRANCH   1  20
BRANCH   9  21
ATOM     21  O   UNL     1       1.488   5.261  20.230  0.00  0.00    +0.000 OA
ATOM     22  C   UNL     1       2.185   6.519  20.216  0.00  0.00    +0.000 C 
ENDBRANCH   9  21
TORSDOF 2
ENDMDL
MODEL 3
REMARK VINA RESULT:      -7.3      1.626      2.011
REMARK  Name = 
REMARK  4 active torsions:
REMARK  status: ('A' for Active; 'I' for Inactive)
REMARK    1  A    between atoms: C_1  and  O_2
REMARK    2  A    between atoms: O_2  and  C_3
REMARK    3  A    between atoms: C_11  and  O_12
REMARK    4  A    between atoms: O_12  and  C_13
REMARK                            x       y       z     vdW  Elec       q    Type
REMARK                         _______ _______ _______ _____ _____    ______ ____
ROOT
ATOM      1  C   UNL     1       6.890   5.101  15.295  0.00  0.00    +0.000 A 
ATOM      2  C   UNL     1       5.633   5.591  14.949  0.00  0.00    +0.000 A 
ATOM      3  C   UNL     1       4.676   5.276  15.890  0.00  0.00    +0.000 A 
ATOM      4  N   UNL     1       4.045   6.040  16.874  0.00  0.00    +0.000 N 
ATOM      5  C   UNL     1       3.327   5.188  17.667  0.00  0.00    +0.000 A 
ATOM      6  C   UNL     1       3.384   3.925  17.102  0.00  0.00    +0.000 A 
ATOM      7  C   UNL     1       4.651   4.007  16.475  0.00  0.00    +0.000 A 
ATOM      8  C   UNL     1       5.872   3.317  16.570  0.00  0.00    +0.000 A 
ATOM      9  C   UNL     1       6.959   4.175  16.342  0.00  0.00    +0.000 A 
ATOM     10  C   UNL     1       2.464   2.824  17.542  0.00  0.00    +0.000 C 
ATOM     11  C   UNL     1       2.038   2.875  19.033  0.00  0.00    +0.000 C 
ATOM     12  C   UNL     1       2.158   4.240  19.646  0.00  0.00    +0.000 A 
ATOM     13  C   UNL     1       1.808   4.689  20.892  0.00  0.00    +0.000 A 
ATOM     14  N   UNL     1       2.254   5.981  20.960  0.00  0.00    +0.000 N 
ATOM     15  N   UNL     1       2.827   6.418  19.807  0.00  0.00    +0.000 NA
ATOM     16  C   UNL     1       2.733   5.353  19.009  0.00  0.00    +0.000 A 
ATOM     17  H   UNL     1       4.328   6.977  17.133  0.00  0.00    +0.000 HD
ATOM     18  H   UNL     1       2.246   6.620  21.750  0.00  0.00    +0.000 HD
ENDROOT
BRANCH   1  20
ATOM     19  C   UNL     1       7.994   5.348  13.203  0.00  0.00    +0.000 C 
ATOM     20  O   UNL     1       7.919   5.658  14.588  0.00  0.00    +0.000 OA
ENDBRANCH   1  20
BRANCH   9  21
ATOM     21  O   UNL     1       7.983   4.318  17.258  0.00  0.00    +0.000 OA
ATOM     22  C   UNL     1       7.753   5.229  18.348  0.00  0.00    +0.000 C 
ENDBRANCH   9  21
TORSDOF 2
ENDMDL
MODEL 4
REMARK VINA RESULT:      -7.2      1.924      2.782
REMARK  Name = 
REMARK  4 active torsions:
REMARK  status: ('A' for Active; 'I' for Inactive)
REMARK    1  A    between atoms: C_1  and  O_2
REMARK    2  A    between atoms: O_2  and  C_3
REMARK    3  A    between atoms: C_11  and  O_12
REMARK    4  A    between atoms: O_12  and  C_13
REMARK                            x       y       z     vdW  Elec       q    Type
REMARK                         _______ _______ _______ _____ _____    ______ ____
ROOT
ATOM      1  C   UNL     1       6.555   6.709  17.556  0.00  0.00    +0.000 A 
ATOM      2  C   UNL     1       6.703   6.042  18.769  0.00  0.00    +0.000 A 
ATOM      3  C   UNL     1       5.548   5.388  19.145  0.00  0.00    +0.000 A 
ATOM      4  N   UNL     1       5.190   4.038  19.129  0.00  0.00    +0.000 N 
ATOM      5  C   UNL     1       3.856   3.957  19.419  0.00  0.00    +0.000 A 
ATOM      6  C   UNL     1       3.414   5.223  19.762  0.00  0.00    +0.000 A 
ATOM      7  C   UNL     1       4.304   6.001  18.981  0.00  0.00    +0.000 A 
ATOM      8  C   UNL     1       4.179   6.939  17.941  0.00  0.00    +0.000 A 
ATOM      9  C   UNL     1       5.259   6.852  17.048  0.00  0.00    +0.000 A 
ATOM     10  C   UNL     1       2.085   5.441  20.425  0.00  0.00    +0.000 C 
ATOM     11  C   UNL     1       0.979   4.424  20.037  0.00  0.00    +0.000 C 
ATOM     12  C   UNL     1       1.515   3.125  19.509  0.00  0.00    +0.000 A 
ATOM     13  C   UNL     1       0.863   1.976  19.146  0.00  0.00    +0.000 A 
ATOM     14  N   UNL     1       1.824   1.155  18.618  0.00  0.00    +0.000 N 
ATOM     15  N   UNL     1       3.075   1.684  18.668  0.00  0.00    +0.000 NA
ATOM     16  C   UNL     1       2.872   2.872  19.241  0.00  0.00    +0.000 A 
ATOM     17  H   UNL     1       5.733   3.313  18.675  0.00  0.00    +0.000 HD
ATOM     18  H   UNL     1       1.716   0.248  18.173  0.00  0.00    +0.000 HD
ENDROOT
BRANCH   1  20
ATOM     19  C   UNL     1       8.310   8.309  17.416  0.00  0.00    +0.000 C 
ATOM     20  O   UNL     1       7.737   7.084  16.980  0.00  0.00    +0.000 OA
ENDBRANCH   1  20
BRANCH   9  21
ATOM     21  O   UNL     1       5.074   6.649  15.694  0.00  0.00    +0.000 OA
ATOM     22  C   UNL     1       5.391   5.340  15.188  0.00  0.00    +0.000 C 
ENDBRANCH   9  21
TORSDOF 2
ENDMDL
MODEL 5
REMARK VINA RESULT:      -7.1      2.155      3.016
REMARK  Name = 
REMARK  4 active torsions:
REMARK  status: ('A' for Active; 'I' for Inactive)
REMARK    1  A    between atoms: C_1  and  O_2
REMARK    2  A    between atoms: O_2  and  C_3
REMARK    3  A    between atoms: C_11  and  O_12
REMARK    4  A    between atoms: O_12  and  C_13
REMARK                            x       y       z     vdW  Elec       q    Type
REMARK                         _______ _______ _______ _____ _____    ______ ____
ROOT
ATOM      1  C   UNL     1       6.683   4.812  16.459  0.00  0.00    +0.000 A 
ATOM      2  C   UNL     1       5.389   4.652  15.971  0.00  0.00    +0.000 A 
ATOM      3  C   UNL     1       4.435   4.949  16.922  0.00  0.00    +0.000 A 
ATOM      4  N   UNL     1       3.595   6.052  17.091  0.00  0.00    +0.000 N 
ATOM      5  C   UNL     1       2.988   5.929  18.311  0.00  0.00    +0.000 A 
ATOM      6  C   UNL     1       3.325   4.694  18.837  0.00  0.00    +0.000 A 
ATOM      7  C   UNL     1       4.601   4.528  18.244  0.00  0.00    +0.000 A 
ATOM      8  C   UNL     1       5.918   4.368  18.709  0.00  0.00    +0.000 A 
ATOM      9  C   UNL     1       6.839   4.972  17.840  0.00  0.00    +0.000 A 
ATOM     10  C   UNL     1       2.596   4.112  20.012  0.00  0.00    +0.000 C 
ATOM     11  C   UNL     1       2.049   5.149  21.029  0.00  0.00    +0.000 C 
ATOM     12  C   UNL     1       1.863   6.521  20.448  0.00  0.00    +0.000 A 
ATOM     13  C   UNL     1       1.335   7.657  21.002  0.00  0.00    +0.000 A 
ATOM     14  N   UNL     1       1.525   8.645  20.074  0.00  0.00    +0.000 N 
ATOM     15  N   UNL     1       2.097   8.204  18.922  0.00  0.00    +0.000 NA
ATOM     16  C   UNL     1       2.268   6.902  19.157  0.00  0.00    +0.000 A 
ATOM     17  H   UNL     1       3.676   6.913  16.565  0.00  0.00    +0.000 HD
ATOM     18  H   UNL     1       1.335   9.640  20.150  0.00  0.00    +0.000 HD
ENDROOT
BRANCH   1  20
ATOM     19  C   UNL     1       7.201   4.786  14.138  0.00  0.00    +0.000 C 
ATOM     20  O   UNL     1       7.643   4.859  15.487  0.00  0.00    +0.000 OA
ENDBRANCH   1  20
BRANCH   9  21
ATOM     21  O   UNL     1       7.743   5.923  18.278  0.00  0.00    +0.000 OA
ATOM     22  C   UNL     1       7.560   7.262  17.786  0.00  0.00    +0.000 C 
ENDBRANCH   9  21
TORSDOF 2
ENDMDL
MODEL 6
REMARK VINA RESULT:      -7.0      3.600      5.352
REMARK  Name = 
REMARK  4 active torsions:
REMARK  status: ('A' for Active; 'I' for Inactive)
REMARK    1  A    between atoms: C_1  and  O_2
REMARK    2  A    between atoms: O_2  and  C_3
REMARK    3  A    between atoms: C_11  and  O_12
REMARK    4  A    between atoms: O_12  and  C_13
REMARK                            x       y       z     vdW  Elec       q    Type
REMARK                         _______ _______ _______ _____ _____    ______ ____
ROOT
ATOM      1  C   UNL     1       3.312   3.128  18.624  0.00  0.00    +0.000 A 
ATOM      2  C   UNL     1       4.185   4.076  19.152  0.00  0.00    +0.000 A 
ATOM      3  C   UNL     1       3.615   5.330  19.214  0.00  0.00    +0.000 A 
ATOM      4  N   UNL     1       3.109   6.076  20.281  0.00  0.00    +0.000 N 
ATOM      5  C   UNL     1       2.477   7.171  19.761  0.00  0.00    +0.000 A 
ATOM      6  C   UNL     1       2.710   7.194  18.396  0.00  0.00    +0.000 A 
ATOM      7  C   UNL     1       2.834   5.804  18.157  0.00  0.00    +0.000 A 
ATOM      8  C   UNL     1       2.160   4.849  17.376  0.00  0.00    +0.000 A 
ATOM      9  C   UNL     1       2.146   3.596  18.007  0.00  0.00    +0.000 A 
ATOM     10  C   UNL     1       2.421   8.412  17.568  0.00  0.00    +0.000 C 
ATOM     11  C   UNL     1       1.234   9.280  18.062  0.00  0.00    +0.000 C 
ATOM     12  C   UNL     1       0.912   9.088  19.516  0.00  0.00    +0.000 A 
ATOM     13  C   UNL     1       0.001   9.725  20.317  0.00  0.00    +0.000 A 
ATOM     14  N   UNL     1       0.041   9.069  21.518  0.00  0.00    +0.000 N 
ATOM     15  N   UNL     1       0.968   8.076  21.562  0.00  0.00    +0.000 NA
ATOM     16  C   UNL     1       1.509   8.122  20.344  0.00  0.00    +0.000 A 
ATOM     17  H   UNL     1       2.963   5.706  21.212  0.00  0.00    +0.000 HD
ATOM     18  H   UNL     1      -0.543   9.202  22.339  0.00  0.00    +0.000 HD
ENDROOT
BRANCH   1  20
ATOM     19  C   UNL     1       4.554   1.595  19.951  0.00  0.00    +0.000 C 
ATOM     20  O   UNL     1       3.692   1.835  18.847  0.00  0.00    +0.000 OA
ENDBRANCH   1  20
BRANCH   9  21
ATOM     21  O   UNL     1       0.969   2.918  18.263  0.00  0.00    +0.000 OA
ATOM     22  C   UNL     1       0.537   2.868  19.634  0.00  0.00    +0.000 C 
ENDBRANCH   9  21
TORSDOF 2
ENDMDL
MODEL 7
REMARK VINA RESULT:      -7.0      2.922      5.785
REMARK  Name = 
REMARK  4 active torsions:
REMARK  status: ('A' for Active; 'I' for Inactive)
REMARK    1  A    between atoms: C_1  and  O_2
REMARK    2  A    between atoms: O_2  and  C_3
REMARK    3  A    between atoms: C_11  and  O_12
REMARK    4  A    between atoms: O_12  and  C_13
REMARK                            x       y       z     vdW  Elec       q    Type
REMARK                         _______ _______ _______ _____ _____    ______ ____
ROOT
ATOM      1  C   UNL     1       1.574   3.374  18.308  0.00  0.00    +0.000 A 
ATOM      2  C   UNL     1       2.573   2.807  17.521  0.00  0.00    +0.000 A 
ATOM      3  C   UNL     1       3.697   3.604  17.456  0.00  0.00    +0.000 A 
ATOM      4  N   UNL     1       4.950   3.506  18.065  0.00  0.00    +0.000 N 
ATOM      5  C   UNL     1       5.626   4.669  17.819  0.00  0.00    +0.000 A 
ATOM      6  C   UNL     1       4.869   5.428  16.942  0.00  0.00    +0.000 A 
ATOM      7  C   UNL     1       3.574   4.989  17.310  0.00  0.00    +0.000 A 
ATOM      8  C   UNL     1       2.411   5.590  17.822  0.00  0.00    +0.000 A 
ATOM      9  C   UNL     1       1.723   4.715  18.678  0.00  0.00    +0.000 A 
ATOM     10  C   UNL     1       5.446   6.616  16.230  0.00  0.00    +0.000 C 
ATOM     11  C   UNL     1       6.544   7.386  17.011  0.00  0.00    +0.000 C 
ATOM     12  C   UNL     1       7.217   6.563  18.070  0.00  0.00    +0.000 A 
ATOM     13  C   UNL     1       8.268   6.864  18.895  0.00  0.00    +0.000 A 
ATOM     14  N   UNL     1       8.386   5.799  19.749  0.00  0.00    +0.000 N 
ATOM     15  N   UNL     1       7.506   4.797  19.489  0.00  0.00    +0.000 NA
ATOM     16  C   UNL     1       6.822   5.267  18.445  0.00  0.00    +0.000 A 
ATOM     17  H   UNL     1       5.172   2.848  18.802  0.00  0.00    +0.000 HD
ATOM     18  H   UNL     1       9.003   5.686  20.549  0.00  0.00    +0.000 HD
ENDROOT
BRANCH   1  20
ATOM     19  C   UNL     1       0.920   1.543  19.677  0.00  0.00    +0.000 C 
ATOM     20  O   UNL     1       0.592   2.498  18.677  0.00  0.00    +0.000 OA
ENDBRANCH   1  20
BRANCH   9  21
ATOM     21  O   UNL     1       1.408   5.061  19.978  0.00  0.00    +0.000 OA
ATOM     22  C   UNL     1       2.339   4.657  20.998  0.00  0.00    +0.000 C 
ENDBRANCH   9  21
TORSDOF 2
ENDMDL
MODEL 8
REMARK VINA RESULT:      -6.9      2.579      3.936
REMARK  Name = 
REMARK  4 active torsions:
REMARK  status: ('A' for Active; 'I' for Inactive)
REMARK    1  A    between atoms: C_1  and  O_2
REMARK    2  A    between atoms: O_2  and  C_3
REMARK    3  A    between atoms: C_11  and  O_12
REMARK    4  A    between atoms: O_12  and  C_13
REMARK                            x       y       z     vdW  Elec       q    Type
REMARK                         _______ _______ _______ _____ _____    ______ ____
ROOT
ATOM      1  C   UNL     1       6.582   4.904  17.098  0.00  0.00    +0.000 A 
ATOM      2  C   UNL     1       5.313   4.633  16.593  0.00  0.00    +0.000 A 
ATOM      3  C   UNL     1       4.327   5.320  17.270  0.00  0.00    +0.000 A 
ATOM      4  N   UNL     1       3.570   6.444  16.931  0.00  0.00    +0.000 N 
ATOM      5  C   UNL     1       2.878   6.832  18.045  0.00  0.00    +0.000 A 
ATOM      6  C   UNL     1       3.080   5.879  19.029  0.00  0.00    +0.000 A 
ATOM      7  C   UNL     1       4.373   5.434  18.662  0.00  0.00    +0.000 A 
ATOM      8  C   UNL     1       5.640   5.400  19.269  0.00  0.00    +0.000 A 
ATOM      9  C   UNL     1       6.662   5.576  18.323  0.00  0.00    +0.000 A 
ATOM     10  C   UNL     1       2.232   5.833  20.266  0.00  0.00    +0.000 C 
ATOM     11  C   UNL     1       1.707   7.208  20.759  0.00  0.00    +0.000 C 
ATOM     12  C   UNL     1       1.670   8.257  19.686  0.00  0.00    +0.000 A 
ATOM     13  C   UNL     1       1.201   9.543  19.716  0.00  0.00    +0.000 A 
ATOM     14  N   UNL     1       1.530  10.087  18.503  0.00  0.00    +0.000 N 
ATOM     15  N   UNL     1       2.137   9.207  17.662  0.00  0.00    +0.000 NA
ATOM     16  C   UNL     1       2.187   8.090  18.389  0.00  0.00    +0.000 A 
ATOM     17  H   UNL     1       3.754   7.030  16.126  0.00  0.00    +0.000 HD
ATOM     18  H   UNL     1       1.415  11.043  18.178  0.00  0.00    +0.000 HD
ENDROOT
BRANCH   1  20
ATOM     19  C   UNL     1       7.456   4.812  14.888  0.00  0.00    +0.000 C 
ATOM     20  O   UNL     1       7.602   4.524  16.272  0.00  0.00    +0.000 OA
ENDBRANCH   1  20
BRANCH   9  21
ATOM     21  O   UNL     1       7.609   6.575  18.446  0.00  0.00    +0.000 OA
ATOM     22  C   UNL     1       7.479   7.700  17.560  0.00  0.00    +0.000 C 
ENDBRANCH   9  21
TORSDOF 2
ENDMDL
MODEL 9
REMARK VINA RESULT:      -6.7      1.050      1.069
REMARK  Name = 
REMARK  4 active torsions:
REMARK  status: ('A' for Active; 'I' for Inactive)
REMARK    1  A    between atoms: C_1  and  O_2
REMARK    2  A    between atoms: O_2  and  C_3
REMARK    3  A    between atoms: C_11  and  O_12
REMARK    4  A    between atoms: O_12  and  C_13
REMARK                            x       y       z     vdW  Elec       q    Type
REMARK                         _______ _______ _______ _____ _____    ______ ____
ROOT
ATOM      1  C   UNL     1       6.872   6.594  17.129  0.00  0.00    +0.000 A 
ATOM      2  C   UNL     1       5.722   6.513  16.346  0.00  0.00    +0.000 A 
ATOM      3  C   UNL     1       4.794   5.642  16.877  0.00  0.00    +0.000 A 
ATOM      4  N   UNL     1       3.594   5.855  17.559  0.00  0.00    +0.000 N 
ATOM      5  C   UNL     1       3.169   4.648  18.041  0.00  0.00    +0.000 A 
ATOM      6  C   UNL     1       4.008   3.667  17.542  0.00  0.00    +0.000 A 
ATOM      7  C   UNL     1       5.201   4.420  17.418  0.00  0.00    +0.000 A 
ATOM      8  C   UNL     1       6.498   4.353  17.955  0.00  0.00    +0.000 A 
ATOM      9  C   UNL     1       7.040   5.635  18.134  0.00  0.00    +0.000 A 
ATOM     10  C   UNL     1       3.652   2.211  17.622  0.00  0.00    +0.000 C 
ATOM     11  C   UNL     1       2.802   1.806  18.856  0.00  0.00    +0.000 C 
ATOM     12  C   UNL     1       2.043   2.949  19.464  0.00  0.00    +0.000 A 
ATOM     13  C   UNL     1       1.140   2.968  20.494  0.00  0.00    +0.000 A 
ATOM     14  N   UNL     1       0.855   4.290  20.713  0.00  0.00    +0.000 N 
ATOM     15  N   UNL     1       1.480   5.129  19.846  0.00  0.00    +0.000 NA
ATOM     16  C   UNL     1       2.175   4.293  19.074  0.00  0.00    +0.000 A 
ATOM     17  H   UNL     1       3.288   6.759  17.899  0.00  0.00    +0.000 HD
ATOM     18  H   UNL     1       0.286   4.709  21.443  0.00  0.00    +0.000 HD
ENDROOT
BRANCH   1  20
ATOM     19  C   UNL     1       7.655   8.747  17.767  0.00  0.00    +0.000 C 
ATOM     20  O   UNL     1       7.666   7.669  16.842  0.00  0.00    +0.000 OA
ENDBRANCH   1  20
BRANCH   9  21
ATOM     21  O   UNL     1       7.511   6.066  19.359  0.00  0.00    +0.000 OA
ATOM     22  C   UNL     1       8.405   5.179  20.055  0.00  0.00    +0.000 C 
ENDBRANCH   9  21
TORSDOF 2
ENDMDL
