MODEL 1
REMARK VINA RESULT:      -7.2      0.000      0.000
REMARK  Name = 
REMARK  6 active torsions:
REMARK  status: ('A' for Active; 'I' for Inactive)
REMARK    1  A    between atoms: O_1  and  C_2
REMARK    2  A    between atoms: C_4  and  S_5
REMARK    3  A    between atoms: C_9  and  C_10
REMARK    4  A    between atoms: C_10  and  C_11
REMARK    5  A    between atoms: C_11  and  C_12
REMARK    6  A    between atoms: C_20  and  C_21
REMARK                            x       y       z     vdW  Elec       q    Type
REMARK                         _______ _______ _______ _____ _____    ______ ____
ROOT
ATOM      1  C   UNL     1       4.969   6.147  17.620  0.00  0.00    +0.000 A 
ATOM      2  N   UNL     1       6.250   6.273  17.981  0.00  0.00    +0.000 NA
ATOM      3  C   UNL     1       6.714   5.293  18.756  0.00  0.00    +0.000 A 
ATOM      4  N   UNL     1       6.018   4.207  19.116  0.00  0.00    +0.000 NA
ATOM      5  C   UNL     1       4.721   4.159  18.733  0.00  0.00    +0.000 A 
ATOM      6  C   UNL     1       4.091   5.167  18.036  0.00  0.00    +0.000 A 
ATOM      7  C   UNL     1       2.619   5.117  17.722  0.00  0.00    +0.000 C 
ATOM      8  O   UNL     1       1.948   3.892  18.115  0.00  0.00    +0.000 OA
ATOM      9  C   UNL     1       2.523   3.075  19.146  0.00  0.00    +0.000 C 
ATOM     10  C   UNL     1       4.012   2.858  18.933  0.00  0.00    +0.000 C 
ENDROOT
BRANCH   9  11
ATOM     11  C   UNL     1       2.178   3.553  20.537  0.00  0.00    +0.000 C 
ATOM     12  C   UNL     1       2.523   2.689  21.731  0.00  0.00    +0.000 C 
ATOM     13  C   UNL     1       1.087   2.884  21.348  0.00  0.00    +0.000 C 
ENDBRANCH   9  11
BRANCH   1  14
ATOM     14  O   UNL     1       4.614   7.082  16.706  0.00  0.00    +0.000 OA
ATOM     15  H   UNL     1       3.890   7.535  17.177  0.00  0.00    +0.000 HD
ENDBRANCH   1  14
BRANCH   3  16
ATOM     16  S   UNL     1       8.381   5.442  19.313  0.00  0.00    +0.000 S 
ATOM     17  H   UNL     1       8.576   6.603  18.677  0.00  0.00    +0.000 HD
ENDBRANCH   3  16
BRANCH   7  18
ATOM     18  C   UNL     1       1.746   6.277  18.281  0.00  0.00    +0.000 C 
BRANCH  18  19
ATOM     19  C   UNL     1       2.328   7.012  19.488  0.00  0.00    +0.000 C 
BRANCH  19  20
ATOM     20  C   UNL     1       1.535   8.202  19.951  0.00  0.00    +0.000 A 
ATOM     21  C   UNL     1       1.273   9.277  19.094  0.00  0.00    +0.000 A 
ATOM     22  C   UNL     1       0.606  10.404  19.571  0.00  0.00    +0.000 A 
ATOM     23  C   UNL     1       0.196  10.470  20.902  0.00  0.00    +0.000 A 
ATOM     24  C   UNL     1       0.454   9.400  21.759  0.00  0.00    +0.000 A 
ATOM     25 CL   UNL     1      -0.019   9.486  23.410  0.00  0.00    +0.000 Cl
ATOM     26  C   UNL     1       1.115   8.270  21.289  0.00  0.00    +0.000 A 
ENDBRANCH  19  20
ENDBRANCH  18  19
ENDBRANCH   7  18
TORSDOF 6
ENDMDL
MODEL 2
REMARK VINA RESULT:      -7.2      4.513      6.796
REMARK  Name = 
REMARK  6 active torsions:
REMARK  status: ('A' for Active; 'I' for Inactive)
REMARK    1  A    between atoms: O_1  and  C_2
REMARK    2  A    between atoms: C_4  and  S_5
REMARK    3  A    between atoms: C_9  and  C_10
REMARK    4  A    between atoms: C_10  and  C_11
REMARK    5  A    between atoms: C_11  and  C_12
REMARK    6  A    between atoms: C_20  and  C_21
REMARK                            x       y       z     vdW  Elec       q    Type
REMARK                         _______ _______ _______ _____ _____    ______ ____
ROOT
ATOM      1  C   UNL     1       4.885   6.938  17.624  0.00  0.00    +0.000 A 
ATOM      2  N   UNL     1       4.006   7.930  17.447  0.00  0.00    +0.000 NA
ATOM      3  C   UNL     1       2.828   7.748  18.044  0.00  0.00    +0.000 A 
ATOM      4  N   UNL     1       2.519   6.708  18.829  0.00  0.00    +0.000 NA
ATOM      5  C   UNL     1       3.450   5.733  18.943  0.00  0.00    +0.000 A 
ATOM      6  C   UNL     1       4.656   5.745  18.277  0.00  0.00    +0.000 A 
ATOM      7  C   UNL     1       5.618   4.587  18.352  0.00  0.00    +0.000 C 
ATOM      8  O   UNL     1       5.224   3.519  19.251  0.00  0.00    +0.000 OA
ATOM      9  C   UNL     1       3.840   3.368  19.601  0.00  0.00    +0.000 C 
ATOM     10  C   UNL     1       3.205   4.693  19.989  0.00  0.00    +0.000 C 
ENDROOT
BRANCH   9  11
ATOM     11  C   UNL     1       3.051   2.604  18.563  0.00  0.00    +0.000 C 
ATOM     12  C   UNL     1       1.604   2.968  18.308  0.00  0.00    +0.000 C 
ATOM     13  C   UNL     1       1.935   1.662  18.963  0.00  0.00    +0.000 C 
ENDBRANCH   9  11
BRANCH   1  14
ATOM     14  O   UNL     1       6.106   7.262  17.134  0.00  0.00    +0.000 OA
ATOM     15  H   UNL     1       6.332   6.446  16.650  0.00  0.00    +0.000 HD
ENDBRANCH   1  14
BRANCH   3  16
ATOM     16  S   UNL     1       1.608   8.997  17.791  0.00  0.00    +0.000 S 
ATOM     17  H   UNL     1       0.891   8.243  16.949  0.00  0.00    +0.000 HD
ENDBRANCH   3  16
BRANCH   7  18
ATOM     18  C   UNL     1       5.985   3.897  17.008  0.00  0.00    +0.000 C 
BRANCH  18  19
ATOM     19  C   UNL     1       5.052   4.205  15.837  0.00  0.00    +0.000 C 
BRANCH  19  20
ATOM     20  C   UNL     1       5.714   4.236  14.488  0.00  0.00    +0.000 A 
ATOM     21  C   UNL     1       5.254   3.436  13.436  0.00  0.00    +0.000 A 
ATOM     22  C   UNL     1       5.936   3.421  12.220  0.00  0.00    +0.000 A 
ATOM     23  C   UNL     1       7.077   4.202  12.042  0.00  0.00    +0.000 A 
ATOM     24  C   UNL     1       7.539   5.002  13.087  0.00  0.00    +0.000 A 
ATOM     25 CL   UNL     1       8.964   5.942  12.888  0.00  0.00    +0.000 Cl
ATOM     26  C   UNL     1       6.861   5.024  14.303  0.00  0.00    +0.000 A 
ENDBRANCH  19  20
ENDBRANCH  18  19
ENDBRANCH   7  18
TORSDOF 6
ENDMDL
MODEL 3
REMARK VINA RESULT:      -7.2      5.795      8.409
REMARK  Name = 
REMARK  6 active torsions:
REMARK  status: ('A' for Active; 'I' for Inactive)
REMARK    1  A    between atoms: O_1  and  C_2
REMARK    2  A    between atoms: C_4  and  S_5
REMARK    3  A    between atoms: C_9  and  C_10
REMARK    4  A    between atoms: C_10  and  C_11
REMARK    5  A    between atoms: C_11  and  C_12
REMARK    6  A    between atoms: C_20  and  C_21
REMARK                            x       y       z     vdW  Elec       q    Type
REMARK                         _______ _______ _______ _____ _____    ______ ____
ROOT
ATOM      1  C   UNL     1      -2.314  11.636  17.726  0.00  0.00    +0.000 A 
ATOM      2  N   UNL     1      -3.633  11.836  17.814  0.00  0.00    +0.000 NA
ATOM      3  C   UNL     1      -4.083  12.073  19.047  0.00  0.00    +0.000 A 
ATOM      4  N   UNL     1      -3.312  12.185  20.135  0.00  0.00    +0.000 NA
ATOM      5  C   UNL     1      -1.990  11.947  19.973  0.00  0.00    +0.000 A 
ATOM      6  C   UNL     1      -1.421  11.571  18.776  0.00  0.00    +0.000 A 
ATOM      7  C   UNL     1       0.039  11.216  18.666  0.00  0.00    +0.000 C 
ATOM      8  O   UNL     1       0.809  11.397  19.882  0.00  0.00    +0.000 OA
ATOM      9  C   UNL     1       0.132  11.406  21.149  0.00  0.00    +0.000 C 
ATOM     10  C   UNL     1      -1.102  12.292  21.126  0.00  0.00    +0.000 C 
ENDROOT
BRANCH   9  11
ATOM     11  C   UNL     1      -0.133  10.018  21.682  0.00  0.00    +0.000 C 
ATOM     12  C   UNL     1      -0.445   9.830  23.152  0.00  0.00    +0.000 C 
ATOM     13  C   UNL     1       0.854   9.328  22.601  0.00  0.00    +0.000 C 
ENDBRANCH   9  11
BRANCH   1  14
ATOM     14  O   UNL     1      -1.906  11.567  16.437  0.00  0.00    +0.000 OA
ATOM     15  H   UNL     1      -2.646  11.075  16.035  0.00  0.00    +0.000 HD
ENDBRANCH   1  14
BRANCH   3  16
ATOM     16  S   UNL     1      -5.826  12.281  19.229  0.00  0.00    +0.000 S 
ATOM     17  H   UNL     1      -5.909  11.401  20.234  0.00  0.00    +0.000 HD
ENDBRANCH   3  16
BRANCH   7  18
ATOM     18  C   UNL     1       0.371   9.782  18.163  0.00  0.00    +0.000 C 
BRANCH  18  19
ATOM     19  C   UNL     1       1.848   9.517  17.868  0.00  0.00    +0.000 C 
BRANCH  19  20
ATOM     20  C   UNL     1       2.355   8.176  18.318  0.00  0.00    +0.000 A 
ATOM     21  C   UNL     1       1.949   7.619  19.536  0.00  0.00    +0.000 A 
ATOM     22  C   UNL     1       2.498   6.413  19.969  0.00  0.00    +0.000 A 
ATOM     23  C   UNL     1       3.452   5.754  19.195  0.00  0.00    +0.000 A 
ATOM     24  C   UNL     1       3.859   6.305  17.980  0.00  0.00    +0.000 A 
ATOM     25 CL   UNL     1       5.058   5.516  17.035  0.00  0.00    +0.000 Cl
ATOM     26  C   UNL     1       3.313   7.506  17.539  0.00  0.00    +0.000 A 
ENDBRANCH  19  20
ENDBRANCH  18  19
ENDBRANCH   7  18
TORSDOF 6
ENDMDL
MODEL 4
REMARK VINA RESULT:      -7.2      5.577      8.225
REMARK  Name = 
REMARK  6 active torsions:
REMARK  status: ('A' for Active; 'I' for Inactive)
REMARK    1  A    between atoms: O_1  and  C_2
REMARK    2  A    between atoms: C_4  and  S_5
REMARK    3  A    between atoms: C_9  and  C_10
REMARK    4  A    between atoms: C_10  and  C_11
REMARK    5  A    between atoms: C_11  and  C_12
REMARK    6  A    between atoms: C_20  and  C_21
REMARK                            x       y       z     vdW  Elec       q    Type
REMARK                         _______ _______ _______ _____ _____    ______ ____
ROOT
ATOM      1  C   UNL     1      -2.292  11.557  17.622  0.00  0.00    +0.000 A 
ATOM      2  N   UNL     1      -3.619  11.720  17.654  0.00  0.00    +0.000 NA
ATOM      3  C   UNL     1      -4.127  11.949  18.865  0.00  0.00    +0.000 A 
ATOM      4  N   UNL     1      -3.405  12.088  19.984  0.00  0.00    +0.000 NA
ATOM      5  C   UNL     1      -2.071  11.887  19.879  0.00  0.00    +0.000 A 
ATOM      6  C   UNL     1      -1.443  11.522  18.708  0.00  0.00    +0.000 A 
ATOM      7  C   UNL     1       0.030  11.207  18.661  0.00  0.00    +0.000 C 
ATOM      8  O   UNL     1       0.743  11.416  19.907  0.00  0.00    +0.000 OA
ATOM      9  C   UNL     1       0.015  11.411  21.144  0.00  0.00    +0.000 C 
ATOM     10  C   UNL     1      -1.243  12.262  21.066  0.00  0.00    +0.000 C 
ENDROOT
BRANCH   9  11
ATOM     11  C   UNL     1      -0.234  10.019  21.675  0.00  0.00    +0.000 C 
ATOM     12  C   UNL     1      -0.367   9.800  23.167  0.00  0.00    +0.000 C 
ATOM     13  C   UNL     1       0.834   9.270  22.445  0.00  0.00    +0.000 C 
ENDBRANCH   9  11
BRANCH   1  14
ATOM     14  O   UNL     1      -1.829  11.494  16.351  0.00  0.00    +0.000 OA
ATOM     15  H   UNL     1      -2.018  12.400  16.040  0.00  0.00    +0.000 HD
ENDBRANCH   1  14
BRANCH   3  16
ATOM     16  S   UNL     1      -5.880  12.109  18.974  0.00  0.00    +0.000 S 
ATOM     17  H   UNL     1      -5.970  11.301  20.037  0.00  0.00    +0.000 HD
ENDBRANCH   3  16
BRANCH   7  18
ATOM     18  C   UNL     1       0.424   9.781  18.181  0.00  0.00    +0.000 C 
BRANCH  18  19
ATOM     19  C   UNL     1       1.896   9.597  17.813  0.00  0.00    +0.000 C 
BRANCH  19  20
ATOM     20  C   UNL     1       2.482   8.265  18.186  0.00  0.00    +0.000 A 
ATOM     21  C   UNL     1       3.480   7.668  17.407  0.00  0.00    +0.000 A 
ATOM     22  C   UNL     1       3.949   6.395  17.729  0.00  0.00    +0.000 A 
ATOM     23  C   UNL     1       3.429   5.708  18.825  0.00  0.00    +0.000 A 
ATOM     24  C   UNL     1       2.435   6.300  19.605  0.00  0.00    +0.000 A 
ATOM     25 CL   UNL     1       1.766   5.447  20.939  0.00  0.00    +0.000 Cl
ATOM     26  C   UNL     1       1.965   7.572  19.293  0.00  0.00    +0.000 A 
ENDBRANCH  19  20
ENDBRANCH  18  19
ENDBRANCH   7  18
TORSDOF 6
ENDMDL
MODEL 5
REMARK VINA RESULT:      -7.0      4.626      6.936
REMARK  Name = 
REMARK  6 active torsions:
REMARK  status: ('A' for Active; 'I' for Inactive)
REMARK    1  A    between atoms: O_1  and  C_2
REMARK    2  A    between atoms: C_4  and  S_5
REMARK    3  A    between atoms: C_9  and  C_10
REMARK    4  A    between atoms: C_10  and  C_11
REMARK    5  A    between atoms: C_11  and  C_12
REMARK    6  A    between atoms: C_20  and  C_21
REMARK                            x       y       z     vdW  Elec       q    Type
REMARK                         _______ _______ _______ _____ _____    ______ ____
ROOT
ATOM      1  C   UNL     1       4.604   7.152  17.457  0.00  0.00    +0.000 A 
ATOM      2  N   UNL     1       3.751   8.179  17.389  0.00  0.00    +0.000 NA
ATOM      3  C   UNL     1       2.624   8.019  18.084  0.00  0.00    +0.000 A 
ATOM      4  N   UNL     1       2.349   6.967  18.865  0.00  0.00    +0.000 NA
ATOM      5  C   UNL     1       3.249   5.956  18.866  0.00  0.00    +0.000 A 
ATOM      6  C   UNL     1       4.390   5.947  18.094  0.00  0.00    +0.000 A 
ATOM      7  C   UNL     1       5.311   4.755  18.049  0.00  0.00    +0.000 C 
ATOM      8  O   UNL     1       4.959   3.673  18.949  0.00  0.00    +0.000 OA
ATOM      9  C   UNL     1       3.607   3.559  19.419  0.00  0.00    +0.000 C 
ATOM     10  C   UNL     1       3.059   4.893  19.900  0.00  0.00    +0.000 C 
ENDROOT
BRANCH   9  11
ATOM     11  C   UNL     1       2.700   2.857  18.435  0.00  0.00    +0.000 C 
ATOM     12  C   UNL     1       1.221   3.180  18.420  0.00  0.00    +0.000 C 
ATOM     13  C   UNL     1       1.681   1.836  18.897  0.00  0.00    +0.000 C 
ENDBRANCH   9  11
BRANCH   1  14
ATOM     14  O   UNL     1       5.787   7.449  16.869  0.00  0.00    +0.000 OA
ATOM     15  H   UNL     1       6.382   6.823  17.323  0.00  0.00    +0.000 HD
ENDBRANCH   1  14
BRANCH   3  16
ATOM     16  S   UNL     1       1.435   9.317  17.979  0.00  0.00    +0.000 S 
ATOM     17  H   UNL     1       0.702   8.839  18.991  0.00  0.00    +0.000 HD
ENDBRANCH   3  16
BRANCH   7  18
ATOM     18  C   UNL     1       5.530   4.095  16.658  0.00  0.00    +0.000 C 
BRANCH  18  19
ATOM     19  C   UNL     1       6.903   4.331  16.030  0.00  0.00    +0.000 C 
BRANCH  19  20
ATOM     20  C   UNL     1       6.921   4.342  14.527  0.00  0.00    +0.000 A 
ATOM     21  C   UNL     1       7.825   5.141  13.818  0.00  0.00    +0.000 A 
ATOM     22  C   UNL     1       7.767   5.196  12.426  0.00  0.00    +0.000 A 
ATOM     23  C   UNL     1       6.810   4.457  11.731  0.00  0.00    +0.000 A 
ATOM     24  C   UNL     1       5.908   3.658  12.433  0.00  0.00    +0.000 A 
ATOM     25 CL   UNL     1       4.706   2.768  11.586  0.00  0.00    +0.000 Cl
ATOM     26  C   UNL     1       5.963   3.595  13.822  0.00  0.00    +0.000 A 
ENDBRANCH  19  20
ENDBRANCH  18  19
ENDBRANCH   7  18
TORSDOF 6
ENDMDL
MODEL 6
REMARK VINA RESULT:      -7.0      2.705      4.338
REMARK  Name = 
REMARK  6 active torsions:
REMARK  status: ('A' for Active; 'I' for Inactive)
REMARK    1  A    between atoms: O_1  and  C_2
REMARK    2  A    between atoms: C_4  and  S_5
REMARK    3  A    between atoms: C_9  and  C_10
REMARK    4  A    between atoms: C_10  and  C_11
REMARK    5  A    between atoms: C_11  and  C_12
REMARK    6  A    between atoms: C_20  and  C_21
REMARK                            x       y       z     vdW  Elec       q    Type
REMARK                         _______ _______ _______ _____ _____    ______ ____
ROOT
ATOM      1  C   UNL     1       4.525   3.705  16.730  0.00  0.00    +0.000 A 
ATOM      2  N   UNL     1       4.640   3.520  15.410  0.00  0.00    +0.000 NA
ATOM      3  C   UNL     1       5.810   3.896  14.892  0.00  0.00    +0.000 A 
ATOM      4  N   UNL     1       6.848   4.359  15.599  0.00  0.00    +0.000 NA
ATOM      5  C   UNL     1       6.650   4.540  16.926  0.00  0.00    +0.000 A 
ATOM      6  C   UNL     1       5.448   4.308  17.558  0.00  0.00    +0.000 A 
ATOM      7  C   UNL     1       5.243   4.624  19.017  0.00  0.00    +0.000 C 
ATOM      8  O   UNL     1       6.427   5.088  19.717  0.00  0.00    +0.000 OA
ATOM      9  C   UNL     1       7.504   5.670  18.968  0.00  0.00    +0.000 C 
ATOM     10  C   UNL     1       7.862   4.837  17.749  0.00  0.00    +0.000 C 
ENDROOT
BRANCH   9  11
ATOM     11  C   UNL     1       7.280   7.130  18.653  0.00  0.00    +0.000 C 
ATOM     12  C   UNL     1       7.685   7.674  17.299  0.00  0.00    +0.000 C 
ATOM     13  C   UNL     1       8.443   8.093  18.522  0.00  0.00    +0.000 C 
ENDBRANCH   9  11
BRANCH   1  14
ATOM     14  O   UNL     1       3.385   3.153  17.212  0.00  0.00    +0.000 OA
ATOM     15  H   UNL     1       3.724   2.309  17.564  0.00  0.00    +0.000 HD
ENDBRANCH   1  14
BRANCH   3  16
ATOM     16  S   UNL     1       5.993   3.732  13.145  0.00  0.00    +0.000 S 
ATOM     17  H   UNL     1       5.997   5.055  12.939  0.00  0.00    +0.000 HD
ENDBRANCH   3  16
BRANCH   7  18
ATOM     18  C   UNL     1       4.120   5.644  19.360  0.00  0.00    +0.000 C 
BRANCH  18  19
ATOM     19  C   UNL     1       3.648   6.514  18.195  0.00  0.00    +0.000 C 
BRANCH  19  20
ATOM     20  C   UNL     1       2.646   7.573  18.559  0.00  0.00    +0.000 A 
ATOM     21  C   UNL     1       2.297   8.582  17.654  0.00  0.00    +0.000 A 
ATOM     22  C   UNL     1       1.428   9.600  18.044  0.00  0.00    +0.000 A 
ATOM     23  C   UNL     1       0.901   9.621  19.335  0.00  0.00    +0.000 A 
ATOM     24  C   UNL     1       1.245   8.617  20.240  0.00  0.00    +0.000 A 
ATOM     25 CL   UNL     1       0.627   8.653  21.843  0.00  0.00    +0.000 Cl
ATOM     26  C   UNL     1       2.109   7.596  19.856  0.00  0.00    +0.000 A 
ENDBRANCH  19  20
ENDBRANCH  18  19
ENDBRANCH   7  18
TORSDOF 6
ENDMDL
MODEL 7
REMARK VINA RESULT:      -7.0      0.865      1.060
REMARK  Name = 
REMARK  6 active torsions:
REMARK  status: ('A' for Active; 'I' for Inactive)
REMARK    1  A    between atoms: O_1  and  C_2
REMARK    2  A    between atoms: C_4  and  S_5
REMARK    3  A    between atoms: C_9  and  C_10
REMARK    4  A    between atoms: C_10  and  C_11
REMARK    5  A    between atoms: C_11  and  C_12
REMARK    6  A    between atoms: C_20  and  C_21
REMARK                            x       y       z     vdW  Elec       q    Type
REMARK                         _______ _______ _______ _____ _____    ______ ____
ROOT
ATOM      1  C   UNL     1       5.042   5.993  17.509  0.00  0.00    +0.000 A 
ATOM      2  N   UNL     1       6.275   6.309  17.920  0.00  0.00    +0.000 NA
ATOM      3  C   UNL     1       6.795   5.479  18.824  0.00  0.00    +0.000 A 
ATOM      4  N   UNL     1       6.206   4.362  19.267  0.00  0.00    +0.000 NA
ATOM      5  C   UNL     1       4.950   4.118  18.825  0.00  0.00    +0.000 A 
ATOM      6  C   UNL     1       4.256   4.964  17.988  0.00  0.00    +0.000 A 
ATOM      7  C   UNL     1       2.822   4.705  17.605  0.00  0.00    +0.000 C 
ATOM      8  O   UNL     1       2.271   3.457  18.099  0.00  0.00    +0.000 OA
ATOM      9  C   UNL     1       2.867   2.828  19.243  0.00  0.00    +0.000 C 
ATOM     10  C   UNL     1       4.382   2.770  19.134  0.00  0.00    +0.000 C 
ENDROOT
BRANCH   9  11
ATOM     11  C   UNL     1       2.380   3.406  20.551  0.00  0.00    +0.000 C 
ATOM     12  C   UNL     1       1.778   2.489  21.595  0.00  0.00    +0.000 C 
ATOM     13  C   UNL     1       0.903   3.472  20.879  0.00  0.00    +0.000 C 
ENDBRANCH   9  11
BRANCH   1  14
ATOM     14  O   UNL     1       4.644   6.776  16.479  0.00  0.00    +0.000 OA
ATOM     15  H   UNL     1       3.695   6.877  16.681  0.00  0.00    +0.000 HD
ENDBRANCH   1  14
BRANCH   3  16
ATOM     16  S   UNL     1       8.395   5.885  19.446  0.00  0.00    +0.000 S 
ATOM     17  H   UNL     1       8.083   5.545  20.702  0.00  0.00    +0.000 HD
ENDBRANCH   3  16
BRANCH   7  18
ATOM     18  C   UNL     1       1.789   5.805  17.984  0.00  0.00    +0.000 C 
BRANCH  18  19
ATOM     19  C   UNL     1       2.162   6.665  19.191  0.00  0.00    +0.000 C 
BRANCH  19  20
ATOM     20  C   UNL     1       1.798   8.119  19.071  0.00  0.00    +0.000 A 
ATOM     21  C   UNL     1       2.142   8.862  17.937  0.00  0.00    +0.000 A 
ATOM     22  C   UNL     1       1.866  10.227  17.885  0.00  0.00    +0.000 A 
ATOM     23  C   UNL     1       1.246  10.862  18.961  0.00  0.00    +0.000 A 
ATOM     24  C   UNL     1       0.900  10.125  20.094  0.00  0.00    +0.000 A 
ATOM     25 CL   UNL     1       0.165  10.905  21.437  0.00  0.00    +0.000 Cl
ATOM     26  C   UNL     1       1.169   8.761  20.150  0.00  0.00    +0.000 A 
ENDBRANCH  19  20
ENDBRANCH  18  19
ENDBRANCH   7  18
TORSDOF 6
ENDMDL
MODEL 8
REMARK VINA RESULT:      -6.9      1.079      1.460
REMARK  Name = 
REMARK  6 active torsions:
REMARK  status: ('A' for Active; 'I' for Inactive)
REMARK    1  A    between atoms: O_1  and  C_2
REMARK    2  A    between atoms: C_4  and  S_5
REMARK    3  A    between atoms: C_9  and  C_10
REMARK    4  A    between atoms: C_10  and  C_11
REMARK    5  A    between atoms: C_11  and  C_12
REMARK    6  A    between atoms: C_20  and  C_21
REMARK                            x       y       z     vdW  Elec       q    Type
REMARK                         _______ _______ _______ _____ _____    ______ ____
ROOT
ATOM      1  C   UNL     1       4.973   6.169  17.650  0.00  0.00    +0.000 A 
ATOM      2  N   UNL     1       6.251   6.272  18.029  0.00  0.00    +0.000 NA
ATOM      3  C   UNL     1       6.688   5.277  18.800  0.00  0.00    +0.000 A 
ATOM      4  N   UNL     1       5.971   4.199  19.140  0.00  0.00    +0.000 NA
ATOM      5  C   UNL     1       4.679   4.175  18.739  0.00  0.00    +0.000 A 
ATOM      6  C   UNL     1       4.074   5.199  18.045  0.00  0.00    +0.000 A 
ATOM      7  C   UNL     1       2.605   5.176  17.711  0.00  0.00    +0.000 C 
ATOM      8  O   UNL     1       1.910   3.958  18.083  0.00  0.00    +0.000 OA
ATOM      9  C   UNL     1       2.459   3.121  19.113  0.00  0.00    +0.000 C 
ATOM     10  C   UNL     1       3.947   2.883  18.918  0.00  0.00    +0.000 C 
ENDROOT
BRANCH   9  11
ATOM     11  C   UNL     1       2.102   3.591  20.504  0.00  0.00    +0.000 C 
ATOM     12  C   UNL     1       2.575   2.799  21.704  0.00  0.00    +0.000 C 
ATOM     13  C   UNL     1       1.117   2.826  21.363  0.00  0.00    +0.000 C 
ENDBRANCH   9  11
BRANCH   1  14
ATOM     14  O   UNL     1       4.645   7.118  16.741  0.00  0.00    +0.000 OA
ATOM     15  H   UNL     1       3.678   7.000  16.691  0.00  0.00    +0.000 HD
ENDBRANCH   1  14
BRANCH   3  16
ATOM     16  S   UNL     1       8.350   5.394  19.381  0.00  0.00    +0.000 S 
ATOM     17  H   UNL     1       8.573   4.080  19.257  0.00  0.00    +0.000 HD
ENDBRANCH   3  16
BRANCH   7  18
ATOM     18  C   UNL     1       1.743   6.344  18.270  0.00  0.00    +0.000 C 
BRANCH  18  19
ATOM     19  C   UNL     1       2.355   7.104  19.447  0.00  0.00    +0.000 C 
BRANCH  19  20
ATOM     20  C   UNL     1       1.498   8.205  20.006  0.00  0.00    +0.000 A 
ATOM     21  C   UNL     1       0.938   8.110  21.285  0.00  0.00    +0.000 A 
ATOM     22  C   UNL     1       0.080   9.106  21.748  0.00  0.00    +0.000 A 
ATOM     23  C   UNL     1      -0.225  10.203  20.943  0.00  0.00    +0.000 A 
ATOM     24  C   UNL     1       0.331  10.303  19.668  0.00  0.00    +0.000 A 
ATOM     25 CL   UNL     1      -0.065  11.635  18.657  0.00  0.00    +0.000 Cl
ATOM     26  C   UNL     1       1.191   9.314  19.201  0.00  0.00    +0.000 A 
ENDBRANCH  19  20
ENDBRANCH  18  19
ENDBRANCH   7  18
TORSDOF 6
ENDMDL
MODEL 9
REMARK VINA RESULT:      -6.8      3.201      5.364
REMARK  Name = 
REMARK  6 active torsions:
REMARK  status: ('A' for Active; 'I' for Inactive)
REMARK    1  A    between atoms: O_1  and  C_2
REMARK    2  A    between atoms: C_4  and  S_5
REMARK    3  A    between atoms: C_9  and  C_10
REMARK    4  A    between atoms: C_10  and  C_11
REMARK    5  A    between atoms: C_11  and  C_12
REMARK    6  A    between atoms: C_20  and  C_21
REMARK                            x       y       z     vdW  Elec       q    Type
REMARK                         _______ _______ _______ _____ _____    ______ ____
ROOT
ATOM      1  C   UNL     1       7.060   4.464  16.326  0.00  0.00    +0.000 A 
ATOM      2  N   UNL     1       7.008   3.839  15.145  0.00  0.00    +0.000 NA
ATOM      3  C   UNL     1       6.087   4.307  14.302  0.00  0.00    +0.000 A 
ATOM      4  N   UNL     1       5.300   5.364  14.538  0.00  0.00    +0.000 NA
ATOM      5  C   UNL     1       5.393   5.933  15.763  0.00  0.00    +0.000 A 
ATOM      6  C   UNL     1       6.215   5.463  16.764  0.00  0.00    +0.000 A 
ATOM      7  C   UNL     1       6.208   6.063  18.146  0.00  0.00    +0.000 C 
ATOM      8  O   UNL     1       5.354   7.225  18.307  0.00  0.00    +0.000 OA
ATOM      9  C   UNL     1       4.263   7.429  17.395  0.00  0.00    +0.000 C 
ATOM     10  C   UNL     1       4.690   7.239  15.949  0.00  0.00    +0.000 C 
ENDROOT
BRANCH   9  11
ATOM     11  C   UNL     1       3.031   6.638  17.767  0.00  0.00    +0.000 C 
ATOM     12  C   UNL     1       1.737   7.365  18.061  0.00  0.00    +0.000 C 
ATOM     13  C   UNL     1       2.468   6.677  19.173  0.00  0.00    +0.000 C 
ENDBRANCH   9  11
BRANCH   1  14
ATOM     14  O   UNL     1       8.118   4.050  17.063  0.00  0.00    +0.000 OA
ATOM     15  H   UNL     1       8.859   4.316  16.488  0.00  0.00    +0.000 HD
ENDBRANCH   1  14
BRANCH   3  16
ATOM     16  S   UNL     1       5.933   3.477  12.753  0.00  0.00    +0.000 S 
ATOM     17  H   UNL     1       5.461   2.355  13.309  0.00  0.00    +0.000 HD
ENDBRANCH   3  16
BRANCH   7  18
ATOM     18  C   UNL     1       5.850   5.108  19.320  0.00  0.00    +0.000 C 
BRANCH  18  19
ATOM     19  C   UNL     1       5.513   3.673  18.917  0.00  0.00    +0.000 C 
BRANCH  19  20
ATOM     20  C   UNL     1       4.048   3.337  18.926  0.00  0.00    +0.000 A 
ATOM     21  C   UNL     1       3.310   3.280  17.739  0.00  0.00    +0.000 A 
ATOM     22  C   UNL     1       1.936   3.049  17.781  0.00  0.00    +0.000 A 
ATOM     23  C   UNL     1       1.288   2.872  19.003  0.00  0.00    +0.000 A 
ATOM     24  C   UNL     1       2.020   2.927  20.189  0.00  0.00    +0.000 A 
ATOM     25 CL   UNL     1       1.224   2.743  21.701  0.00  0.00    +0.000 Cl
ATOM     26  C   UNL     1       3.392   3.154  20.154  0.00  0.00    +0.000 A 
ENDBRANCH  19  20
ENDBRANCH  18  19
ENDBRANCH   7  18
TORSDOF 6
ENDMDL
