MODEL 1
REMARK VINA RESULT:      -6.4      0.000      0.000
REMARK  Name = 
REMARK  7 active torsions:
REMARK  status: ('A' for Active; 'I' for Inactive)
REMARK    1  A    between atoms: C_1  and  C_2
REMARK    2  A    between atoms: C_2  and  O_3
REMARK    3  A    between atoms: O_3  and  C_4
REMARK    4  A    between atoms: C_9  and  N_10
REMARK    5  A    between atoms: C_11  and  C_13
REMARK    6  A    between atoms: N_17  and  S_18
REMARK    7  A    between atoms: S_18  and  C_19
REMARK                            x       y       z     vdW  Elec       q    Type
REMARK                         _______ _______ _______ _____ _____    ______ ____
ROOT
ATOM      1  N   UNL     1       1.625   8.058  19.052  0.00  0.00    +0.000 N 
ATOM      2  C   UNL     1       1.558   9.202  18.296  0.00  0.00    +0.000 C 
ATOM      3  O   UNL     1       2.426   9.537  17.495  0.00  0.00    +0.000 OA
ATOM      4  H   UNL     1       0.737   7.709  19.406  0.00  0.00    +0.000 HD
ENDROOT
BRANCH   1  10
ATOM      5  C   UNL     1       1.622   3.071  19.086  0.00  0.00    +0.000 C 
ATOM      6  O   UNL     1       1.472   2.426  18.050  0.00  0.00    +0.000 OA
ATOM      7  N   UNL     1       1.726   4.445  19.127  0.00  0.00    +0.000 N 
ATOM      8  C   UNL     1       1.529   5.207  17.902  0.00  0.00    +0.000 C 
ATOM      9  C   UNL     1       2.636   6.235  17.742  0.00  0.00    +0.000 C 
ATOM     10  C   UNL     1       2.746   7.128  18.981  0.00  0.00    +0.000 C 
ATOM     11  C   UNL     1       2.848   6.298  20.270  0.00  0.00    +0.000 C 
ATOM     12  C   UNL     1       1.773   5.219  20.360  0.00  0.00    +0.000 C 
BRANCH   5  13
ATOM     13  O   UNL     1       1.654   2.507  20.321  0.00  0.00    +0.000 OA
BRANCH  13  15
ATOM     14  C   UNL     1       3.997   2.178  20.004  0.00  0.00    +0.000 C 
ATOM     15  C   UNL     1       2.919   2.595  20.989  0.00  0.00    +0.000 C 
ENDBRANCH  13  15
ENDBRANCH   5  13
ENDBRANCH   1  10
BRANCH   2  16
ATOM     16  C   UNL     1       0.344  10.086  18.570  0.00  0.00    +0.000 C 
ATOM     17  C   UNL     1       0.676  11.580  18.487  0.00  0.00    +0.000 C 
ATOM     18  C   UNL     1       1.371  12.120  19.735  0.00  0.00    +0.000 C 
ATOM     19  C   UNL     1       0.659  11.716  21.019  0.00  0.00    +0.000 C 
ATOM     20  N   UNL     1       0.407  10.248  21.057  0.00  0.00    +0.000 NA
ATOM     21  C   UNL     1      -0.352   9.733  19.878  0.00  0.00    +0.000 C 
BRANCH  20  22
ATOM     22  S   UNL     1      -0.126   9.642  22.571  0.00  0.00    +0.000 S 
ATOM     23  C   UNL     1      -1.266  10.903  23.131  0.00  0.00    +0.000 C 
ATOM     24  O   UNL     1      -0.872   8.432  22.318  0.00  0.00    +0.000 OA
ATOM     25  O   UNL     1       1.018   9.647  23.457  0.00  0.00    +0.000 OA
ENDBRANCH  20  22
ENDBRANCH   2  16
TORSDOF 5
ENDMDL
MODEL 2
REMARK VINA RESULT:      -6.3      2.853      7.653
REMARK  Name = 
REMARK  7 active torsions:
REMARK  status: ('A' for Active; 'I' for Inactive)
REMARK    1  A    between atoms: C_1  and  C_2
REMARK    2  A    between atoms: C_2  and  O_3
REMARK    3  A    between atoms: O_3  and  C_4
REMARK    4  A    between atoms: C_9  and  N_10
REMARK    5  A    between atoms: C_11  and  C_13
REMARK    6  A    between atoms: N_17  and  S_18
REMARK    7  A    between atoms: S_18  and  C_19
REMARK                            x       y       z     vdW  Elec       q    Type
REMARK                         _______ _______ _______ _____ _____    ______ ____
ROOT
ATOM      1  N   UNL     1       2.335   7.961  19.248  0.00  0.00    +0.000 N 
ATOM      2  C   UNL     1       2.688   6.822  18.566  0.00  0.00    +0.000 C 
ATOM      3  O   UNL     1       1.896   6.147  17.917  0.00  0.00    +0.000 OA
ATOM      4  H   UNL     1       3.093   8.608  19.451  0.00  0.00    +0.000 HD
ENDROOT
BRANCH   1  10
ATOM      5  C   UNL     1       0.663  12.468  20.576  0.00  0.00    +0.000 C 
ATOM      6  O   UNL     1       0.628  13.397  19.772  0.00  0.00    +0.000 OA
ATOM      7  N   UNL     1       1.024  11.179  20.244  0.00  0.00    +0.000 N 
ATOM      8  C   UNL     1       1.513  10.904  18.901  0.00  0.00    +0.000 C 
ATOM      9  C   UNL     1       0.822   9.675  18.335  0.00  0.00    +0.000 C 
ATOM     10  C   UNL     1       0.970   8.475  19.273  0.00  0.00    +0.000 C 
ATOM     11  C   UNL     1       0.545   8.823  20.709  0.00  0.00    +0.000 C 
ATOM     12  C   UNL     1       1.192  10.107  21.216  0.00  0.00    +0.000 C 
BRANCH   5  13
ATOM     13  O   UNL     1       0.395  12.611  21.900  0.00  0.00    +0.000 OA
BRANCH  13  15
ATOM     14  C   UNL     1      -1.597  11.805  22.938  0.00  0.00    +0.000 C 
ATOM     15  C   UNL     1      -0.958  12.971  22.204  0.00  0.00    +0.000 C 
ENDBRANCH  13  15
ENDBRANCH   5  13
ENDBRANCH   1  10
BRANCH   2  16
ATOM     16  C   UNL     1       4.147   6.403  18.725  0.00  0.00    +0.000 C 
ATOM     17  C   UNL     1       4.912   6.428  17.397  0.00  0.00    +0.000 C 
ATOM     18  C   UNL     1       4.642   5.212  16.514  0.00  0.00    +0.000 C 
ATOM     19  C   UNL     1       4.771   3.899  17.276  0.00  0.00    +0.000 C 
ATOM     20  N   UNL     1       3.969   3.924  18.531  0.00  0.00    +0.000 NA
ATOM     21  C   UNL     1       4.297   5.065  19.437  0.00  0.00    +0.000 C 
BRANCH  20  22
ATOM     22  S   UNL     1       3.809   2.408  19.319  0.00  0.00    +0.000 S 
ATOM     23  C   UNL     1       2.370   2.644  20.357  0.00  0.00    +0.000 C 
ATOM     24  O   UNL     1       3.490   1.424  18.312  0.00  0.00    +0.000 OA
ATOM     25  O   UNL     1       4.961   2.254  20.180  0.00  0.00    +0.000 OA
ENDBRANCH  20  22
ENDBRANCH   2  16
TORSDOF 5
ENDMDL
MODEL 3
REMARK VINA RESULT:      -6.3      5.077      7.178
REMARK  Name = 
REMARK  7 active torsions:
REMARK  status: ('A' for Active; 'I' for Inactive)
REMARK    1  A    between atoms: C_1  and  C_2
REMARK    2  A    between atoms: C_2  and  O_3
REMARK    3  A    between atoms: O_3  and  C_4
REMARK    4  A    between atoms: C_9  and  N_10
REMARK    5  A    between atoms: C_11  and  C_13
REMARK    6  A    between atoms: N_17  and  S_18
REMARK    7  A    between atoms: S_18  and  C_19
REMARK                            x       y       z     vdW  Elec       q    Type
REMARK                         _______ _______ _______ _____ _____    ______ ____
ROOT
ATOM      1  N   UNL     1      -3.760  11.994  18.883  0.00  0.00    +0.000 N 
ATOM      2  C   UNL     1      -4.694  11.751  17.906  0.00  0.00    +0.000 C 
ATOM      3  O   UNL     1      -4.464  11.863  16.706  0.00  0.00    +0.000 OA
ATOM      4  H   UNL     1      -3.937  11.554  19.784  0.00  0.00    +0.000 HD
ENDROOT
BRANCH   1  10
ATOM      5  C   UNL     1       0.576   9.979  20.303  0.00  0.00    +0.000 C 
ATOM      6  O   UNL     1       1.093   9.064  19.666  0.00  0.00    +0.000 OA
ATOM      7  N   UNL     1      -0.569  10.638  19.909  0.00  0.00    +0.000 N 
ATOM      8  C   UNL     1      -1.294  10.161  18.740  0.00  0.00    +0.000 C 
ATOM      9  C   UNL     1      -1.638  11.326  17.827  0.00  0.00    +0.000 C 
ATOM     10  C   UNL     1      -2.397  12.419  18.586  0.00  0.00    +0.000 C 
ATOM     11  C   UNL     1      -1.661  12.830  19.870  0.00  0.00    +0.000 C 
ATOM     12  C   UNL     1      -1.255  11.633  20.723  0.00  0.00    +0.000 C 
BRANCH   5  13
ATOM     13  O   UNL     1       1.047  10.420  21.499  0.00  0.00    +0.000 OA
BRANCH  13  15
ATOM     14  C   UNL     1      -0.075   9.488  23.387  0.00  0.00    +0.000 C 
ATOM     15  C   UNL     1       1.161   9.411  22.509  0.00  0.00    +0.000 C 
ENDBRANCH  13  15
ENDBRANCH   5  13
ENDBRANCH   1  10
BRANCH   2  16
ATOM     16  C   UNL     1      -6.086  11.393  18.420  0.00  0.00    +0.000 C 
ATOM     17  C   UNL     1      -7.176  12.301  17.840  0.00  0.00    +0.000 C 
ATOM     18  C   UNL     1      -7.258  13.666  18.519  0.00  0.00    +0.000 C 
ATOM     19  C   UNL     1      -7.287  13.560  20.038  0.00  0.00    +0.000 C 
ATOM     20  N   UNL     1      -6.177  12.703  20.540  0.00  0.00    +0.000 NA
ATOM     21  C   UNL     1      -6.150  11.334  19.940  0.00  0.00    +0.000 C 
BRANCH  20  22
ATOM     22  S   UNL     1      -5.939  12.744  22.239  0.00  0.00    +0.000 S 
ATOM     23  C   UNL     1      -6.146  14.477  22.632  0.00  0.00    +0.000 C 
ATOM     24  O   UNL     1      -7.019  12.004  22.848  0.00  0.00    +0.000 OA
ATOM     25  O   UNL     1      -4.557  12.391  22.482  0.00  0.00    +0.000 OA
ENDBRANCH  20  22
ENDBRANCH   2  16
TORSDOF 5
ENDMDL
MODEL 4
REMARK VINA RESULT:      -6.2      9.050     11.399
REMARK  Name = 
REMARK  7 active torsions:
REMARK  status: ('A' for Active; 'I' for Inactive)
REMARK    1  A    between atoms: C_1  and  C_2
REMARK    2  A    between atoms: C_2  and  O_3
REMARK    3  A    between atoms: O_3  and  C_4
REMARK    4  A    between atoms: C_9  and  N_10
REMARK    5  A    between atoms: C_11  and  C_13
REMARK    6  A    between atoms: N_17  and  S_18
REMARK    7  A    between atoms: S_18  and  C_19
REMARK                            x       y       z     vdW  Elec       q    Type
REMARK                         _______ _______ _______ _____ _____    ______ ____
ROOT
ATOM      1  N   UNL     1       9.185  14.791  18.930  0.00  0.00    +0.000 N 
ATOM      2  C   UNL     1      10.309  14.090  18.566  0.00  0.00    +0.000 C 
ATOM      3  O   UNL     1      10.724  14.026  17.413  0.00  0.00    +0.000 OA
ATOM      4  H   UNL     1       9.129  15.059  19.910  0.00  0.00    +0.000 HD
ENDROOT
BRANCH   1  10
ATOM      5  C   UNL     1       4.779  17.035  19.578  0.00  0.00    +0.000 C 
ATOM      6  O   UNL     1       4.706  18.188  19.996  0.00  0.00    +0.000 OA
ATOM      7  N   UNL     1       5.966  16.397  19.290  0.00  0.00    +0.000 N 
ATOM      8  C   UNL     1       7.223  17.061  19.605  0.00  0.00    +0.000 C 
ATOM      9  C   UNL     1       8.170  16.976  18.420  0.00  0.00    +0.000 C 
ATOM     10  C   UNL     1       8.367  15.525  17.971  0.00  0.00    +0.000 C 
ATOM     11  C   UNL     1       7.023  14.815  17.746  0.00  0.00    +0.000 C 
ATOM     12  C   UNL     1       6.063  14.991  18.918  0.00  0.00    +0.000 C 
BRANCH   5  13
ATOM     13  O   UNL     1       3.697  16.235  19.395  0.00  0.00    +0.000 OA
BRANCH  13  15
ATOM     14  C   UNL     1       2.976  16.787  17.188  0.00  0.00    +0.000 C 
ATOM     15  C   UNL     1       2.621  16.835  18.663  0.00  0.00    +0.000 C 
ENDBRANCH  13  15
ENDBRANCH   5  13
ENDBRANCH   1  10
BRANCH   2  16
ATOM     16  C   UNL     1      10.985  13.323  19.699  0.00  0.00    +0.000 C 
ATOM     17  C   UNL     1      11.106  11.825  19.402  0.00  0.00    +0.000 C 
ATOM     18  C   UNL     1       9.810  11.050  19.629  0.00  0.00    +0.000 C 
ATOM     19  C   UNL     1       9.174  11.362  20.977  0.00  0.00    +0.000 C 
ATOM     20  N   UNL     1       9.043  12.832  21.184  0.00  0.00    +0.000 NA
ATOM     21  C   UNL     1      10.329  13.579  21.050  0.00  0.00    +0.000 C 
BRANCH  20  22
ATOM     22  S   UNL     1       8.085  13.292  22.531  0.00  0.00    +0.000 S 
ATOM     23  C   UNL     1       7.718  11.727  23.319  0.00  0.00    +0.000 C 
ATOM     24  O   UNL     1       8.923  14.064  23.418  0.00  0.00    +0.000 OA
ATOM     25  O   UNL     1       6.849  13.831  22.008  0.00  0.00    +0.000 OA
ENDBRANCH  20  22
ENDBRANCH   2  16
TORSDOF 5
ENDMDL
MODEL 5
REMARK VINA RESULT:      -6.2      3.175      4.270
REMARK  Name = 
REMARK  7 active torsions:
REMARK  status: ('A' for Active; 'I' for Inactive)
REMARK    1  A    between atoms: C_1  and  C_2
REMARK    2  A    between atoms: C_2  and  O_3
REMARK    3  A    between atoms: O_3  and  C_4
REMARK    4  A    between atoms: C_9  and  N_10
REMARK    5  A    between atoms: C_11  and  C_13
REMARK    6  A    between atoms: N_17  and  S_18
REMARK    7  A    between atoms: S_18  and  C_19
REMARK                            x       y       z     vdW  Elec       q    Type
REMARK                         _______ _______ _______ _____ _____    ______ ____
ROOT
ATOM      1  N   UNL     1       2.425   7.168  20.183  0.00  0.00    +0.000 N 
ATOM      2  C   UNL     1       1.382   7.701  20.900  0.00  0.00    +0.000 C 
ATOM      3  O   UNL     1       0.316   7.121  21.079  0.00  0.00    +0.000 OA
ATOM      4  H   UNL     1       3.343   7.559  20.381  0.00  0.00    +0.000 HD
ENDROOT
BRANCH   1  10
ATOM      5  C   UNL     1       5.759   4.883  17.262  0.00  0.00    +0.000 C 
ATOM      6  O   UNL     1       6.679   4.223  17.740  0.00  0.00    +0.000 OA
ATOM      7  N   UNL     1       4.755   5.457  18.012  0.00  0.00    +0.000 N 
ATOM      8  C   UNL     1       4.834   5.397  19.465  0.00  0.00    +0.000 C 
ATOM      9  C   UNL     1       3.499   4.958  20.043  0.00  0.00    +0.000 C 
ATOM     10  C   UNL     1       2.360   5.855  19.551  0.00  0.00    +0.000 C 
ATOM     11  C   UNL     1       2.364   5.986  18.020  0.00  0.00    +0.000 C 
ATOM     12  C   UNL     1       3.738   6.345  17.465  0.00  0.00    +0.000 C 
BRANCH   5  13
ATOM     13  O   UNL     1       5.648   5.164  15.938  0.00  0.00    +0.000 OA
BRANCH  13  15
ATOM     14  C   UNL     1       6.975   4.773  13.994  0.00  0.00    +0.000 C 
ATOM     15  C   UNL     1       6.110   4.129  15.062  0.00  0.00    +0.000 C 
ENDBRANCH  13  15
ENDBRANCH   5  13
ENDBRANCH   1  10
BRANCH   2  16
ATOM     16  C   UNL     1       1.612   9.119  21.416  0.00  0.00    +0.000 C 
ATOM     17  C   UNL     1       0.992   9.348  22.798  0.00  0.00    +0.000 C 
ATOM     18  C   UNL     1      -0.515   9.589  22.759  0.00  0.00    +0.000 C 
ATOM     19  C   UNL     1      -0.910  10.635  21.725  0.00  0.00    +0.000 C 
ATOM     20  N   UNL     1      -0.313  10.331  20.394  0.00  0.00    +0.000 NA
ATOM     21  C   UNL     1       1.174  10.182  20.418  0.00  0.00    +0.000 C 
BRANCH  20  22
ATOM     22  S   UNL     1      -0.917  11.273  19.094  0.00  0.00    +0.000 S 
ATOM     23  C   UNL     1      -2.190  12.263  19.872  0.00  0.00    +0.000 C 
ATOM     24  O   UNL     1       0.144  12.151  18.662  0.00  0.00    +0.000 OA
ATOM     25  O   UNL     1      -1.559  10.362  18.172  0.00  0.00    +0.000 OA
ENDBRANCH  20  22
ENDBRANCH   2  16
TORSDOF 5
ENDMDL
MODEL 6
REMARK VINA RESULT:      -6.2      2.826      3.882
REMARK  Name = 
REMARK  7 active torsions:
REMARK  status: ('A' for Active; 'I' for Inactive)
REMARK    1  A    between atoms: C_1  and  C_2
REMARK    2  A    between atoms: C_2  and  O_3
REMARK    3  A    between atoms: O_3  and  C_4
REMARK    4  A    between atoms: C_9  and  N_10
REMARK    5  A    between atoms: C_11  and  C_13
REMARK    6  A    between atoms: N_17  and  S_18
REMARK    7  A    between atoms: S_18  and  C_19
REMARK                            x       y       z     vdW  Elec       q    Type
REMARK                         _______ _______ _______ _____ _____    ______ ____
ROOT
ATOM      1  N   UNL     1       1.844   7.600  20.450  0.00  0.00    +0.000 N 
ATOM      2  C   UNL     1       0.832   8.172  21.181  0.00  0.00    +0.000 C 
ATOM      3  O   UNL     1      -0.331   7.780  21.151  0.00  0.00    +0.000 OA
ATOM      4  H   UNL     1       2.787   7.764  20.796  0.00  0.00    +0.000 HD
ENDROOT
BRANCH   1  10
ATOM      5  C   UNL     1       5.108   4.230  18.759  0.00  0.00    +0.000 C 
ATOM      6  O   UNL     1       5.375   3.220  19.406  0.00  0.00    +0.000 OA
ATOM      7  N   UNL     1       4.148   5.147  19.128  0.00  0.00    +0.000 N 
ATOM      8  C   UNL     1       3.484   4.998  20.416  0.00  0.00    +0.000 C 
ATOM      9  C   UNL     1       1.981   5.150  20.249  0.00  0.00    +0.000 C 
ATOM     10  C   UNL     1       1.631   6.469  19.555  0.00  0.00    +0.000 C 
ATOM     11  C   UNL     1       2.424   6.649  18.250  0.00  0.00    +0.000 C 
ATOM     12  C   UNL     1       3.918   6.407  18.434  0.00  0.00    +0.000 C 
BRANCH   5  13
ATOM     13  O   UNL     1       5.763   4.587  17.623  0.00  0.00    +0.000 OA
BRANCH  13  15
ATOM     14  C   UNL     1       7.601   5.893  18.404  0.00  0.00    +0.000 C 
ATOM     15  C   UNL     1       7.192   4.596  17.729  0.00  0.00    +0.000 C 
ENDBRANCH  13  15
ENDBRANCH   5  13
ENDBRANCH   1  10
BRANCH   2  16
ATOM     16  C   UNL     1       1.239   9.395  21.998  0.00  0.00    +0.000 C 
ATOM     17  C   UNL     1       0.472   9.496  23.321  0.00  0.00    +0.000 C 
ATOM     18  C   UNL     1      -0.943  10.050  23.167  0.00  0.00    +0.000 C 
ATOM     19  C   UNL     1      -0.981  11.323  22.332  0.00  0.00    +0.000 C 
ATOM     20  N   UNL     1      -0.259  11.144  21.041  0.00  0.00    +0.000 NA
ATOM     21  C   UNL     1       1.155  10.687  21.197  0.00  0.00    +0.000 C 
BRANCH  20  22
ATOM     22  S   UNL     1      -0.481  12.409  19.904  0.00  0.00    +0.000 S 
ATOM     23  C   UNL     1      -0.792  13.834  20.941  0.00  0.00    +0.000 C 
ATOM     24  O   UNL     1       0.776  12.607  19.221  0.00  0.00    +0.000 OA
ATOM     25  O   UNL     1      -1.693  12.113  19.172  0.00  0.00    +0.000 OA
ENDBRANCH  20  22
ENDBRANCH   2  16
TORSDOF 5
ENDMDL
MODEL 7
REMARK VINA RESULT:      -6.2      3.040      4.150
REMARK  Name = 
REMARK  7 active torsions:
REMARK  status: ('A' for Active; 'I' for Inactive)
REMARK    1  A    between atoms: C_1  and  C_2
REMARK    2  A    between atoms: C_2  and  O_3
REMARK    3  A    between atoms: O_3  and  C_4
REMARK    4  A    between atoms: C_9  and  N_10
REMARK    5  A    between atoms: C_11  and  C_13
REMARK    6  A    between atoms: N_17  and  S_18
REMARK    7  A    between atoms: S_18  and  C_19
REMARK                            x       y       z     vdW  Elec       q    Type
REMARK                         _______ _______ _______ _____ _____    ______ ____
ROOT
ATOM      1  N   UNL     1       2.143   7.539  20.304  0.00  0.00    +0.000 N 
ATOM      2  C   UNL     1       1.128   8.029  21.089  0.00  0.00    +0.000 C 
ATOM      3  O   UNL     1       0.022   7.504  21.173  0.00  0.00    +0.000 OA
ATOM      4  H   UNL     1       3.083   7.831  20.563  0.00  0.00    +0.000 HD
ENDROOT
BRANCH   1  10
ATOM      5  C   UNL     1       5.577   5.074  17.657  0.00  0.00    +0.000 C 
ATOM      6  O   UNL     1       6.282   4.211  18.175  0.00  0.00    +0.000 OA
ATOM      7  N   UNL     1       4.550   5.720  18.312  0.00  0.00    +0.000 N 
ATOM      8  C   UNL     1       4.348   5.473  19.732  0.00  0.00    +0.000 C 
ATOM      9  C   UNL     1       2.879   5.208  20.013  0.00  0.00    +0.000 C 
ATOM     10  C   UNL     1       1.999   6.343  19.482  0.00  0.00    +0.000 C 
ATOM     11  C   UNL     1       2.305   6.654  18.008  0.00  0.00    +0.000 C 
ATOM     12  C   UNL     1       3.797   6.831  17.744  0.00  0.00    +0.000 C 
BRANCH   5  13
ATOM     13  O   UNL     1       5.756   5.527  16.389  0.00  0.00    +0.000 OA
BRANCH  13  15
ATOM     14  C   UNL     1       6.691   4.415  14.497  0.00  0.00    +0.000 C 
ATOM     15  C   UNL     1       5.454   4.576  15.362  0.00  0.00    +0.000 C 
ENDBRANCH  13  15
ENDBRANCH   5  13
ENDBRANCH   1  10
BRANCH   2  16
ATOM     16  C   UNL     1       1.446   9.335  21.813  0.00  0.00    +0.000 C 
ATOM     17  C   UNL     1       0.786   9.415  23.193  0.00  0.00    +0.000 C 
ATOM     18  C   UNL     1      -0.695   9.785  23.141  0.00  0.00    +0.000 C 
ATOM     19  C   UNL     1      -0.961  10.998  22.259  0.00  0.00    +0.000 C 
ATOM     20  N   UNL     1      -0.332  10.837  20.918  0.00  0.00    +0.000 NA
ATOM     21  C   UNL     1       1.136  10.563  20.966  0.00  0.00    +0.000 C 
BRANCH  20  22
ATOM     22  S   UNL     1      -0.803  12.002  19.750  0.00  0.00    +0.000 S 
ATOM     23  C   UNL     1       0.740  12.406  18.938  0.00  0.00    +0.000 C 
ATOM     24  O   UNL     1      -1.662  11.341  18.797  0.00  0.00    +0.000 OA
ATOM     25  O   UNL     1      -1.248  13.173  20.475  0.00  0.00    +0.000 OA
ENDBRANCH  20  22
ENDBRANCH   2  16
TORSDOF 5
ENDMDL
MODEL 8
REMARK VINA RESULT:      -6.1      2.912      3.877
REMARK  Name = 
REMARK  7 active torsions:
REMARK  status: ('A' for Active; 'I' for Inactive)
REMARK    1  A    between atoms: C_1  and  C_2
REMARK    2  A    between atoms: C_2  and  O_3
REMARK    3  A    between atoms: O_3  and  C_4
REMARK    4  A    between atoms: C_9  and  N_10
REMARK    5  A    between atoms: C_11  and  C_13
REMARK    6  A    between atoms: N_17  and  S_18
REMARK    7  A    between atoms: S_18  and  C_19
REMARK                            x       y       z     vdW  Elec       q    Type
REMARK                         _______ _______ _______ _____ _____    ______ ____
ROOT
ATOM      1  N   UNL     1       1.948   7.727  20.147  0.00  0.00    +0.000 N 
ATOM      2  C   UNL     1       0.961   8.217  20.967  0.00  0.00    +0.000 C 
ATOM      3  O   UNL     1      -0.167   7.740  21.029  0.00  0.00    +0.000 OA
ATOM      4  H   UNL     1       2.902   7.958  20.415  0.00  0.00    +0.000 HD
ENDROOT
BRANCH   1  10
ATOM      5  C   UNL     1       5.211   4.298  18.577  0.00  0.00    +0.000 C 
ATOM      6  O   UNL     1       5.449   3.292  19.242  0.00  0.00    +0.000 OA
ATOM      7  N   UNL     1       4.253   5.231  18.911  0.00  0.00    +0.000 N 
ATOM      8  C   UNL     1       3.555   5.104  20.182  0.00  0.00    +0.000 C 
ATOM      9  C   UNL     1       2.059   5.273  19.975  0.00  0.00    +0.000 C 
ATOM     10  C   UNL     1       1.744   6.588  19.258  0.00  0.00    +0.000 C 
ATOM     11  C   UNL     1       2.572   6.745  17.973  0.00  0.00    +0.000 C 
ATOM     12  C   UNL     1       4.058   6.486  18.198  0.00  0.00    +0.000 C 
BRANCH   5  13
ATOM     13  O   UNL     1       5.899   4.634  17.454  0.00  0.00    +0.000 OA
BRANCH  13  15
ATOM     14  C   UNL     1       7.716   5.774  18.500  0.00  0.00    +0.000 C 
ATOM     15  C   UNL     1       7.325   4.619  17.596  0.00  0.00    +0.000 C 
ENDBRANCH  13  15
ENDBRANCH   5  13
ENDBRANCH   1  10
BRANCH   2  16
ATOM     16  C   UNL     1       1.345   9.462  21.762  0.00  0.00    +0.000 C 
ATOM     17  C   UNL     1       0.686   9.499  23.146  0.00  0.00    +0.000 C 
ATOM     18  C   UNL     1      -0.773   9.948  23.115  0.00  0.00    +0.000 C 
ATOM     19  C   UNL     1      -0.974  11.220  22.302  0.00  0.00    +0.000 C 
ATOM     20  N   UNL     1      -0.351  11.102  20.954  0.00  0.00    +0.000 NA
ATOM     21  C   UNL     1       1.101  10.750  20.986  0.00  0.00    +0.000 C 
BRANCH  20  22
ATOM     22  S   UNL     1      -0.758  12.354  19.854  0.00  0.00    +0.000 S 
ATOM     23  C   UNL     1      -2.012  11.595  18.827  0.00  0.00    +0.000 C 
ATOM     24  O   UNL     1      -1.372  13.418  20.613  0.00  0.00    +0.000 OA
ATOM     25  O   UNL     1       0.408  12.594  19.033  0.00  0.00    +0.000 OA
ENDBRANCH  20  22
ENDBRANCH   2  16
TORSDOF 5
ENDMDL
MODEL 9
REMARK VINA RESULT:      -6.0      5.415      7.669
REMARK  Name = 
REMARK  7 active torsions:
REMARK  status: ('A' for Active; 'I' for Inactive)
REMARK    1  A    between atoms: C_1  and  C_2
REMARK    2  A    between atoms: C_2  and  O_3
REMARK    3  A    between atoms: O_3  and  C_4
REMARK    4  A    between atoms: C_9  and  N_10
REMARK    5  A    between atoms: C_11  and  C_13
REMARK    6  A    between atoms: N_17  and  S_18
REMARK    7  A    between atoms: S_18  and  C_19
REMARK                            x       y       z     vdW  Elec       q    Type
REMARK                         _______ _______ _______ _____ _____    ______ ____
ROOT
ATOM      1  N   UNL     1      -3.363  11.256  18.221  0.00  0.00    +0.000 N 
ATOM      2  C   UNL     1      -4.400  11.347  17.325  0.00  0.00    +0.000 C 
ATOM      3  O   UNL     1      -4.240  11.495  16.117  0.00  0.00    +0.000 OA
ATOM      4  H   UNL     1      -3.582  10.804  19.106  0.00  0.00    +0.000 HD
ENDROOT
BRANCH   1  10
ATOM      5  C   UNL     1       0.726  11.689  21.044  0.00  0.00    +0.000 C 
ATOM      6  O   UNL     1       1.279  10.701  21.519  0.00  0.00    +0.000 OA
ATOM      7  N   UNL     1      -0.348  11.627  20.181  0.00  0.00    +0.000 N 
ATOM      8  C   UNL     1      -0.956  10.335  19.899  0.00  0.00    +0.000 C 
ATOM      9  C   UNL     1      -1.161  10.170  18.403  0.00  0.00    +0.000 C 
ATOM     10  C   UNL     1      -1.963  11.338  17.821  0.00  0.00    +0.000 C 
ATOM     11  C   UNL     1      -1.359  12.693  18.221  0.00  0.00    +0.000 C 
ATOM     12  C   UNL     1      -1.087  12.794  19.718  0.00  0.00    +0.000 C 
BRANCH   5  13
ATOM     13  O   UNL     1       1.078  12.965  21.349  0.00  0.00    +0.000 OA
BRANCH  13  15
ATOM     14  C   UNL     1       2.045  14.819  20.199  0.00  0.00    +0.000 C 
ATOM     15  C   UNL     1       2.289  13.419  20.734  0.00  0.00    +0.000 C 
ENDBRANCH  13  15
ENDBRANCH   5  13
ENDBRANCH   1  10
BRANCH   2  16
ATOM     16  C   UNL     1      -5.793  11.319  17.946  0.00  0.00    +0.000 C 
ATOM     17  C   UNL     1      -6.723  12.380  17.347  0.00  0.00    +0.000 C 
ATOM     18  C   UNL     1      -6.486  13.783  17.901  0.00  0.00    +0.000 C 
ATOM     19  C   UNL     1      -6.424  13.805  19.423  0.00  0.00    +0.000 C 
ATOM     20  N   UNL     1      -5.470  12.783  19.939  0.00  0.00    +0.000 NA
ATOM     21  C   UNL     1      -5.756  11.395  19.467  0.00  0.00    +0.000 C 
BRANCH  20  22
ATOM     22  S   UNL     1      -5.105  12.909  21.610  0.00  0.00    +0.000 S 
ATOM     23  C   UNL     1      -5.260  14.664  21.925  0.00  0.00    +0.000 C 
ATOM     24  O   UNL     1      -6.145  12.221  22.337  0.00  0.00    +0.000 OA
ATOM     25  O   UNL     1      -3.713  12.547  21.769  0.00  0.00    +0.000 OA
ENDBRANCH  20  22
ENDBRANCH   2  16
TORSDOF 5
ENDMDL
