MODEL 1
REMARK VINA RESULT:      -7.9      0.000      0.000
REMARK  Name = 
REMARK  3 active torsions:
REMARK  status: ('A' for Active; 'I' for Inactive)
REMARK    1  A    between atoms: O_1  and  C_2
REMARK    2  A    between atoms: C_6  and  C_7
REMARK    3  A    between atoms: C_11  and  C_12
REMARK                            x       y       z     vdW  Elec       q    Type
REMARK                         _______ _______ _______ _____ _____    ______ ____
ROOT
ATOM      1  C   UNL     1       6.540   4.662  16.048  0.00  0.00    +0.000 A 
ATOM      2  N   UNL     1       7.638   4.935  16.779  0.00  0.00    +0.000 NA
ATOM      3  C   UNL     1       7.457   5.056  18.103  0.00  0.00    +0.000 A 
ATOM      4  C   UNL     1       6.237   4.913  18.724  0.00  0.00    +0.000 A 
ATOM      5  C   UNL     1       5.160   4.604  17.917  0.00  0.00    +0.000 A 
ATOM      6  N   UNL     1       5.312   4.497  16.574  0.00  0.00    +0.000 NA
ENDROOT
BRANCH   5   7
ATOM      7  C   UNL     1       3.781   4.297  18.485  0.00  0.00    +0.000 C 
ATOM      8  C   UNL     1       3.743   3.245  19.577  0.00  0.00    +0.000 C 
ATOM      9  C   UNL     1       2.605   2.259  19.329  0.00  0.00    +0.000 C 
ATOM     10  O   UNL     1       1.370   2.971  19.284  0.00  0.00    +0.000 OA
ATOM     11  C   UNL     1       1.230   3.728  18.078  0.00  0.00    +0.000 C 
ATOM     12  C   UNL     1       2.479   4.476  17.710  0.00  0.00    +0.000 C 
ATOM     13  C   UNL     1       2.923   5.557  18.641  0.00  0.00    +0.000 C 
ENDBRANCH   5   7
BRANCH   1  18
ATOM     14  C   UNL     1       6.098   3.481  12.459  0.00  0.00    +0.000 A 
ATOM     15  C   UNL     1       7.025   4.256  11.775  0.00  0.00    +0.000 A 
ATOM     16  C   UNL     1       7.803   5.164  12.487  0.00  0.00    +0.000 A 
ATOM     17  C   UNL     1       7.640   5.292  13.871  0.00  0.00    +0.000 A 
ATOM     18  C   UNL     1       6.705   4.515  14.584  0.00  0.00    +0.000 A 
ATOM     19  C   UNL     1       5.936   3.598  13.840  0.00  0.00    +0.000 A 
BRANCH  14  20
ATOM     20  O   UNL     1       5.314   2.580  11.800  0.00  0.00    +0.000 OA
ATOM     21  H   UNL     1       5.784   2.283  11.003  0.00  0.00    +0.000 HD
ENDBRANCH  14  20
ENDBRANCH   1  18
TORSDOF 3
ENDMDL
MODEL 2
REMARK VINA RESULT:      -7.8      0.681      1.345
REMARK  Name = 
REMARK  3 active torsions:
REMARK  status: ('A' for Active; 'I' for Inactive)
REMARK    1  A    between atoms: O_1  and  C_2
REMARK    2  A    between atoms: C_6  and  C_7
REMARK    3  A    between atoms: C_11  and  C_12
REMARK                            x       y       z     vdW  Elec       q    Type
REMARK                         _______ _______ _______ _____ _____    ______ ____
ROOT
ATOM      1  C   UNL     1       6.445   4.596  16.026  0.00  0.00    +0.000 A 
ATOM      2  N   UNL     1       7.438   5.112  16.776  0.00  0.00    +0.000 NA
ATOM      3  C   UNL     1       7.204   5.200  18.095  0.00  0.00    +0.000 A 
ATOM      4  C   UNL     1       6.032   4.794  18.692  0.00  0.00    +0.000 A 
ATOM      5  C   UNL     1       5.070   4.246  17.868  0.00  0.00    +0.000 A 
ATOM      6  N   UNL     1       5.273   4.165  16.529  0.00  0.00    +0.000 NA
ENDROOT
BRANCH   5   7
ATOM      7  C   UNL     1       3.781   3.645  18.411  0.00  0.00    +0.000 C 
ATOM      8  C   UNL     1       2.642   3.531  17.415  0.00  0.00    +0.000 C 
ATOM      9  C   UNL     1       1.337   4.016  18.039  0.00  0.00    +0.000 C 
ATOM     10  O   UNL     1       1.057   3.239  19.202  0.00  0.00    +0.000 OA
ATOM     11  C   UNL     1       1.922   3.572  20.292  0.00  0.00    +0.000 C 
ATOM     12  C   UNL     1       3.358   3.712  19.875  0.00  0.00    +0.000 C 
ATOM     13  C   UNL     1       4.042   2.481  19.373  0.00  0.00    +0.000 C 
ENDBRANCH   5   7
BRANCH   1  18
ATOM     14  C   UNL     1       6.182   3.460  12.405  0.00  0.00    +0.000 A 
ATOM     15  C   UNL     1       7.110   4.275  11.770  0.00  0.00    +0.000 A 
ATOM     16  C   UNL     1       7.829   5.195  12.526  0.00  0.00    +0.000 A 
ATOM     17  C   UNL     1       7.608   5.296  13.904  0.00  0.00    +0.000 A 
ATOM     18  C   UNL     1       6.672   4.478  14.568  0.00  0.00    +0.000 A 
ATOM     19  C   UNL     1       5.963   3.548  13.781  0.00  0.00    +0.000 A 
BRANCH  14  20
ATOM     20  O   UNL     1       5.455   2.544  11.702  0.00  0.00    +0.000 OA
ATOM     21  H   UNL     1       6.022   2.159  11.014  0.00  0.00    +0.000 HD
ENDBRANCH  14  20
ENDBRANCH   1  18
TORSDOF 3
ENDMDL
MODEL 3
REMARK VINA RESULT:      -7.8      1.415      1.766
REMARK  Name = 
REMARK  3 active torsions:
REMARK  status: ('A' for Active; 'I' for Inactive)
REMARK    1  A    between atoms: O_1  and  C_2
REMARK    2  A    between atoms: C_6  and  C_7
REMARK    3  A    between atoms: C_11  and  C_12
REMARK                            x       y       z     vdW  Elec       q    Type
REMARK                         _______ _______ _______ _____ _____    ______ ____
ROOT
ATOM      1  C   UNL     1       5.360   5.159  15.579  0.00  0.00    +0.000 A 
ATOM      2  N   UNL     1       5.531   6.451  15.922  0.00  0.00    +0.000 NA
ATOM      3  C   UNL     1       4.974   6.838  17.080  0.00  0.00    +0.000 A 
ATOM      4  C   UNL     1       4.264   5.996  17.906  0.00  0.00    +0.000 A 
ATOM      5  C   UNL     1       4.155   4.679  17.508  0.00  0.00    +0.000 A 
ATOM      6  N   UNL     1       4.690   4.267  16.332  0.00  0.00    +0.000 NA
ENDROOT
BRANCH   5   7
ATOM      7  C   UNL     1       3.505   3.616  18.384  0.00  0.00    +0.000 C 
ATOM      8  C   UNL     1       2.513   2.709  17.682  0.00  0.00    +0.000 C 
ATOM      9  C   UNL     1       1.250   2.546  18.523  0.00  0.00    +0.000 C 
ATOM     10  O   UNL     1       1.601   2.006  19.795  0.00  0.00    +0.000 OA
ATOM     11  C   UNL     1       2.258   2.970  20.625  0.00  0.00    +0.000 C 
ATOM     12  C   UNL     1       3.303   3.757  19.889  0.00  0.00    +0.000 C 
ATOM     13  C   UNL     1       4.491   3.004  19.383  0.00  0.00    +0.000 C 
ENDBRANCH   5   7
BRANCH   1  18
ATOM     14  C   UNL     1       5.931   3.299  12.310  0.00  0.00    +0.000 A 
ATOM     15  C   UNL     1       7.137   3.831  11.873  0.00  0.00    +0.000 A 
ATOM     16  C   UNL     1       7.770   4.797  12.649  0.00  0.00    +0.000 A 
ATOM     17  C   UNL     1       7.189   5.224  13.848  0.00  0.00    +0.000 A 
ATOM     18  C   UNL     1       5.967   4.696  14.310  0.00  0.00    +0.000 A 
ATOM     19  C   UNL     1       5.350   3.714  13.509  0.00  0.00    +0.000 A 
BRANCH  14  20
ATOM     20  O   UNL     1       5.277   2.350  11.580  0.00  0.00    +0.000 OA
ATOM     21  H   UNL     1       5.801   1.533  11.590  0.00  0.00    +0.000 HD
ENDBRANCH  14  20
ENDBRANCH   1  18
TORSDOF 3
ENDMDL
MODEL 4
REMARK VINA RESULT:      -7.6      1.468      1.883
REMARK  Name = 
REMARK  3 active torsions:
REMARK  status: ('A' for Active; 'I' for Inactive)
REMARK    1  A    between atoms: O_1  and  C_2
REMARK    2  A    between atoms: C_6  and  C_7
REMARK    3  A    between atoms: C_11  and  C_12
REMARK                            x       y       z     vdW  Elec       q    Type
REMARK                         _______ _______ _______ _____ _____    ______ ____
ROOT
ATOM      1  C   UNL     1       5.954   4.821  16.729  0.00  0.00    +0.000 A 
ATOM      2  N   UNL     1       6.912   5.219  17.589  0.00  0.00    +0.000 NA
ATOM      3  C   UNL     1       6.542   5.350  18.873  0.00  0.00    +0.000 A 
ATOM      4  C   UNL     1       5.269   5.099  19.331  0.00  0.00    +0.000 A 
ATOM      5  C   UNL     1       4.346   4.665  18.401  0.00  0.00    +0.000 A 
ATOM      6  N   UNL     1       4.688   4.544  17.094  0.00  0.00    +0.000 NA
ENDROOT
BRANCH   5   7
ATOM      7  C   UNL     1       2.939   4.233  18.792  0.00  0.00    +0.000 C 
ATOM      8  C   UNL     1       2.644   4.242  20.280  0.00  0.00    +0.000 C 
ATOM      9  C   UNL     1       1.920   2.962  20.687  0.00  0.00    +0.000 C 
ATOM     10  O   UNL     1       0.708   2.851  19.943  0.00  0.00    +0.000 OA
ATOM     11  C   UNL     1       0.949   2.505  18.575  0.00  0.00    +0.000 C 
ATOM     12  C   UNL     1       2.075   3.289  17.964  0.00  0.00    +0.000 C 
ATOM     13  C   UNL     1       1.878   4.763  17.823  0.00  0.00    +0.000 C 
ENDBRANCH   5   7
BRANCH   1  18
ATOM     14  C   UNL     1       7.763   5.182  13.402  0.00  0.00    +0.000 A 
ATOM     15  C   UNL     1       7.043   4.325  12.579  0.00  0.00    +0.000 A 
ATOM     16  C   UNL     1       5.960   3.631  13.108  0.00  0.00    +0.000 A 
ATOM     17  C   UNL     1       5.613   3.794  14.454  0.00  0.00    +0.000 A 
ATOM     18  C   UNL     1       6.329   4.659  15.306  0.00  0.00    +0.000 A 
ATOM     19  C   UNL     1       7.417   5.357  14.743  0.00  0.00    +0.000 A 
BRANCH  14  20
ATOM     20  O   UNL     1       8.832   5.882  12.924  0.00  0.00    +0.000 OA
ATOM     21  H   UNL     1       8.537   6.777  12.689  0.00  0.00    +0.000 HD
ENDBRANCH  14  20
ENDBRANCH   1  18
TORSDOF 3
ENDMDL
MODEL 5
REMARK VINA RESULT:      -7.5      1.396      2.191
REMARK  Name = 
REMARK  3 active torsions:
REMARK  status: ('A' for Active; 'I' for Inactive)
REMARK    1  A    between atoms: O_1  and  C_2
REMARK    2  A    between atoms: C_6  and  C_7
REMARK    3  A    between atoms: C_11  and  C_12
REMARK                            x       y       z     vdW  Elec       q    Type
REMARK                         _______ _______ _______ _____ _____    ______ ____
ROOT
ATOM      1  C   UNL     1       6.176   4.494  16.217  0.00  0.00    +0.000 A 
ATOM      2  N   UNL     1       7.062   5.037  17.075  0.00  0.00    +0.000 NA
ATOM      3  C   UNL     1       6.722   5.020  18.373  0.00  0.00    +0.000 A 
ATOM      4  C   UNL     1       5.545   4.486  18.848  0.00  0.00    +0.000 A 
ATOM      5  C   UNL     1       4.698   3.919  17.917  0.00  0.00    +0.000 A 
ATOM      6  N   UNL     1       5.009   3.941  16.597  0.00  0.00    +0.000 NA
ENDROOT
BRANCH   5   7
ATOM      7  C   UNL     1       3.425   3.185  18.317  0.00  0.00    +0.000 C 
ATOM      8  C   UNL     1       2.188   3.539  17.515  0.00  0.00    +0.000 C 
ATOM      9  C   UNL     1       0.995   3.755  18.441  0.00  0.00    +0.000 C 
ATOM     10  O   UNL     1       0.770   2.569  19.201  0.00  0.00    +0.000 OA
ATOM     11  C   UNL     1       1.765   2.383  20.213  0.00  0.00    +0.000 C 
ATOM     12  C   UNL     1       3.158   2.640  19.716  0.00  0.00    +0.000 C 
ATOM     13  C   UNL     1       3.687   1.717  18.667  0.00  0.00    +0.000 C 
ENDBRANCH   5   7
BRANCH   1  18
ATOM     14  C   UNL     1       7.802   5.349  12.886  0.00  0.00    +0.000 A 
ATOM     15  C   UNL     1       7.188   4.456  12.018  0.00  0.00    +0.000 A 
ATOM     16  C   UNL     1       6.235   3.575  12.519  0.00  0.00    +0.000 A 
ATOM     17  C   UNL     1       5.913   3.591  13.881  0.00  0.00    +0.000 A 
ATOM     18  C   UNL     1       6.523   4.489  14.778  0.00  0.00    +0.000 A 
ATOM     19  C   UNL     1       7.479   5.377  14.244  0.00  0.00    +0.000 A 
BRANCH  14  20
ATOM     20  O   UNL     1       8.742   6.230  12.437  0.00  0.00    +0.000 OA
ATOM     21  H   UNL     1       9.468   5.730  12.029  0.00  0.00    +0.000 HD
ENDBRANCH  14  20
ENDBRANCH   1  18
TORSDOF 3
ENDMDL
MODEL 6
REMARK VINA RESULT:      -7.5      1.008      1.708
REMARK  Name = 
REMARK  3 active torsions:
REMARK  status: ('A' for Active; 'I' for Inactive)
REMARK    1  A    between atoms: O_1  and  C_2
REMARK    2  A    between atoms: C_6  and  C_7
REMARK    3  A    between atoms: C_11  and  C_12
REMARK                            x       y       z     vdW  Elec       q    Type
REMARK                         _______ _______ _______ _____ _____    ______ ____
ROOT
ATOM      1  C   UNL     1       6.679   4.662  15.986  0.00  0.00    +0.000 A 
ATOM      2  N   UNL     1       7.817   4.602  16.704  0.00  0.00    +0.000 NA
ATOM      3  C   UNL     1       7.689   4.730  18.034  0.00  0.00    +0.000 A 
ATOM      4  C   UNL     1       6.483   4.912  18.672  0.00  0.00    +0.000 A 
ATOM      5  C   UNL     1       5.355   4.933  17.877  0.00  0.00    +0.000 A 
ATOM      6  N   UNL     1       5.458   4.826  16.529  0.00  0.00    +0.000 NA
ENDROOT
BRANCH   5   7
ATOM      7  C   UNL     1       3.950   5.002  18.461  0.00  0.00    +0.000 C 
ATOM      8  C   UNL     1       3.199   6.295  18.205  0.00  0.00    +0.000 C 
ATOM      9  C   UNL     1       2.522   6.781  19.483  0.00  0.00    +0.000 C 
ATOM     10  O   UNL     1       1.629   5.774  19.953  0.00  0.00    +0.000 OA
ATOM     11  C   UNL     1       2.325   4.660  20.520  0.00  0.00    +0.000 C 
ATOM     12  C   UNL     1       3.497   4.221  19.691  0.00  0.00    +0.000 C 
ATOM     13  C   UNL     1       3.201   3.672  18.333  0.00  0.00    +0.000 C 
ENDBRANCH   5   7
BRANCH   1  18
ATOM     14  C   UNL     1       6.105   3.467  12.421  0.00  0.00    +0.000 A 
ATOM     15  C   UNL     1       6.985   4.261  11.696  0.00  0.00    +0.000 A 
ATOM     16  C   UNL     1       7.773   5.187  12.372  0.00  0.00    +0.000 A 
ATOM     17  C   UNL     1       7.668   5.314  13.762  0.00  0.00    +0.000 A 
ATOM     18  C   UNL     1       6.783   4.517  14.516  0.00  0.00    +0.000 A 
ATOM     19  C   UNL     1       6.002   3.581  13.808  0.00  0.00    +0.000 A 
BRANCH  14  20
ATOM     20  O   UNL     1       5.314   2.546  11.797  0.00  0.00    +0.000 OA
ATOM     21  H   UNL     1       5.861   1.783  11.548  0.00  0.00    +0.000 HD
ENDBRANCH  14  20
ENDBRANCH   1  18
TORSDOF 3
ENDMDL
MODEL 7
REMARK VINA RESULT:      -7.4      1.142      1.564
REMARK  Name = 
REMARK  3 active torsions:
REMARK  status: ('A' for Active; 'I' for Inactive)
REMARK    1  A    between atoms: O_1  and  C_2
REMARK    2  A    between atoms: C_6  and  C_7
REMARK    3  A    between atoms: C_11  and  C_12
REMARK                            x       y       z     vdW  Elec       q    Type
REMARK                         _______ _______ _______ _____ _____    ______ ____
ROOT
ATOM      1  C   UNL     1       6.466   4.729  16.310  0.00  0.00    +0.000 A 
ATOM      2  N   UNL     1       7.523   5.090  17.063  0.00  0.00    +0.000 NA
ATOM      3  C   UNL     1       7.309   5.183  18.385  0.00  0.00    +0.000 A 
ATOM      4  C   UNL     1       6.095   4.930  18.982  0.00  0.00    +0.000 A 
ATOM      5  C   UNL     1       5.064   4.535  18.154  0.00  0.00    +0.000 A 
ATOM      6  N   UNL     1       5.248   4.452  16.813  0.00  0.00    +0.000 NA
ENDROOT
BRANCH   5   7
ATOM      7  C   UNL     1       3.707   4.104  18.695  0.00  0.00    +0.000 C 
ATOM      8  C   UNL     1       3.707   2.834  19.523  0.00  0.00    +0.000 C 
ATOM      9  C   UNL     1       2.554   1.925  19.108  0.00  0.00    +0.000 C 
ATOM     10  O   UNL     1       1.322   2.625  19.274  0.00  0.00    +0.000 OA
ATOM     11  C   UNL     1       1.138   3.633  18.275  0.00  0.00    +0.000 C 
ATOM     12  C   UNL     1       2.376   4.448  18.033  0.00  0.00    +0.000 C 
ATOM     13  C   UNL     1       2.864   5.294  19.164  0.00  0.00    +0.000 C 
ENDBRANCH   5   7
BRANCH   1  18
ATOM     14  C   UNL     1       7.706   5.351  12.768  0.00  0.00    +0.000 A 
ATOM     15  C   UNL     1       7.058   4.357  12.048  0.00  0.00    +0.000 A 
ATOM     16  C   UNL     1       6.208   3.482  12.718  0.00  0.00    +0.000 A 
ATOM     17  C   UNL     1       6.022   3.606  14.099  0.00  0.00    +0.000 A 
ATOM     18  C   UNL     1       6.669   4.609  14.848  0.00  0.00    +0.000 A 
ATOM     19  C   UNL     1       7.518   5.487  14.145  0.00  0.00    +0.000 A 
BRANCH  14  20
ATOM     20  O   UNL     1       8.548   6.230  12.151  0.00  0.00    +0.000 OA
ATOM     21  H   UNL     1       8.089   6.617  11.388  0.00  0.00    +0.000 HD
ENDBRANCH  14  20
ENDBRANCH   1  18
TORSDOF 3
ENDMDL
MODEL 8
REMARK VINA RESULT:      -7.4      1.875      2.489
REMARK  Name = 
REMARK  3 active torsions:
REMARK  status: ('A' for Active; 'I' for Inactive)
REMARK    1  A    between atoms: O_1  and  C_2
REMARK    2  A    between atoms: C_6  and  C_7
REMARK    3  A    between atoms: C_11  and  C_12
REMARK                            x       y       z     vdW  Elec       q    Type
REMARK                         _______ _______ _______ _____ _____    ______ ____
ROOT
ATOM      1  C   UNL     1       5.079   5.348  15.969  0.00  0.00    +0.000 A 
ATOM      2  N   UNL     1       5.067   6.651  16.308  0.00  0.00    +0.000 NA
ATOM      3  C   UNL     1       4.371   6.973  17.410  0.00  0.00    +0.000 A 
ATOM      4  C   UNL     1       3.696   6.055  18.183  0.00  0.00    +0.000 A 
ATOM      5  C   UNL     1       3.777   4.733  17.794  0.00  0.00    +0.000 A 
ATOM      6  N   UNL     1       4.456   4.384  16.673  0.00  0.00    +0.000 NA
ENDROOT
BRANCH   5   7
ATOM      7  C   UNL     1       3.183   3.604  18.625  0.00  0.00    +0.000 C 
ATOM      8  C   UNL     1       2.241   2.675  17.884  0.00  0.00    +0.000 C 
ATOM      9  C   UNL     1       0.988   2.412  18.715  0.00  0.00    +0.000 C 
ATOM     10  O   UNL     1       1.366   1.840  19.965  0.00  0.00    +0.000 OA
ATOM     11  C   UNL     1       1.972   2.802  20.835  0.00  0.00    +0.000 C 
ATOM     12  C   UNL     1       2.975   3.672  20.134  0.00  0.00    +0.000 C 
ATOM     13  C   UNL     1       4.200   3.003  19.601  0.00  0.00    +0.000 C 
ENDBRANCH   5   7
BRANCH   1  18
ATOM     14  C   UNL     1       7.775   5.187  13.290  0.00  0.00    +0.000 A 
ATOM     15  C   UNL     1       7.302   4.185  12.452  0.00  0.00    +0.000 A 
ATOM     16  C   UNL     1       6.096   3.563  12.758  0.00  0.00    +0.000 A 
ATOM     17  C   UNL     1       5.381   3.942  13.900  0.00  0.00    +0.000 A 
ATOM     18  C   UNL     1       5.843   4.957  14.762  0.00  0.00    +0.000 A 
ATOM     19  C   UNL     1       7.063   5.577  14.425  0.00  0.00    +0.000 A 
BRANCH  14  20
ATOM     20  O   UNL     1       8.953   5.823  13.027  0.00  0.00    +0.000 OA
ATOM     21  H   UNL     1       8.897   6.733  13.363  0.00  0.00    +0.000 HD
ENDBRANCH  14  20
ENDBRANCH   1  18
TORSDOF 3
ENDMDL
MODEL 9
REMARK VINA RESULT:      -7.2      3.591      7.174
REMARK  Name = 
REMARK  3 active torsions:
REMARK  status: ('A' for Active; 'I' for Inactive)
REMARK    1  A    between atoms: O_1  and  C_2
REMARK    2  A    between atoms: C_6  and  C_7
REMARK    3  A    between atoms: C_11  and  C_12
REMARK                            x       y       z     vdW  Elec       q    Type
REMARK                         _______ _______ _______ _____ _____    ______ ____
ROOT
ATOM      1  C   UNL     1       2.405   6.372  19.796  0.00  0.00    +0.000 A 
ATOM      2  N   UNL     1       1.971   5.454  20.681  0.00  0.00    +0.000 NA
ATOM      3  C   UNL     1       2.522   4.234  20.592  0.00  0.00    +0.000 A 
ATOM      4  C   UNL     1       3.483   3.894  19.667  0.00  0.00    +0.000 A 
ATOM      5  C   UNL     1       3.903   4.892  18.811  0.00  0.00    +0.000 A 
ATOM      6  N   UNL     1       3.348   6.128  18.866  0.00  0.00    +0.000 NA
ENDROOT
BRANCH   5   7
ATOM      7  C   UNL     1       5.045   4.689  17.824  0.00  0.00    +0.000 C 
ATOM      8  C   UNL     1       6.429   4.593  18.438  0.00  0.00    +0.000 C 
ATOM      9  C   UNL     1       7.420   5.448  17.655  0.00  0.00    +0.000 C 
ATOM     10  O   UNL     1       7.449   5.011  16.298  0.00  0.00    +0.000 OA
ATOM     11  C   UNL     1       6.267   5.392  15.586  0.00  0.00    +0.000 C 
ATOM     12  C   UNL     1       5.010   5.151  16.371  0.00  0.00    +0.000 C 
ATOM     13  C   UNL     1       4.669   3.731  16.689  0.00  0.00    +0.000 C 
ENDBRANCH   5   7
BRANCH   1  18
ATOM     14  C   UNL     1       1.271   9.878  18.849  0.00  0.00    +0.000 A 
ATOM     15  C   UNL     1       0.689  10.329  20.027  0.00  0.00    +0.000 A 
ATOM     16  C   UNL     1       0.671   9.491  21.136  0.00  0.00    +0.000 A 
ATOM     17  C   UNL     1       1.227   8.209  21.055  0.00  0.00    +0.000 A 
ATOM     18  C   UNL     1       1.823   7.731  19.870  0.00  0.00    +0.000 A 
ATOM     19  C   UNL     1       1.836   8.604  18.763  0.00  0.00    +0.000 A 
BRANCH  14  20
ATOM     20  O   UNL     1       1.311  10.667  17.737  0.00  0.00    +0.000 OA
ATOM     21  H   UNL     1       1.123  10.118  16.959  0.00  0.00    +0.000 HD
ENDBRANCH  14  20
ENDBRANCH   1  18
TORSDOF 3
ENDMDL
