MODEL 1
REMARK VINA RESULT:      -6.6      0.000      0.000
REMARK  Name = 
REMARK  9 active torsions:
REMARK  status: ('A' for Active; 'I' for Inactive)
REMARK    1  A    between atoms: N_1  and  C_2
REMARK    2  A    between atoms: N_6  and  C_7
REMARK    3  A    between atoms: C_9  and  C_10
REMARK    4  A    between atoms: C_10  and  O_11
REMARK    5  A    between atoms: O_11  and  P_12
REMARK    6  A    between atoms: P_12  and  O_14
REMARK    7  A    between atoms: P_12  and  O_15
REMARK    8  A    between atoms: C_16  and  O_17
REMARK    9  A    between atoms: C_18  and  O_19
REMARK                            x       y       z     vdW  Elec       q    Type
REMARK                         _______ _______ _______ _____ _____    ______ ____
ROOT
ATOM      1  C   UNL     1       2.080   5.213  19.094  0.00  0.00    +0.000 C 
ATOM      2  O   UNL     1       2.663   4.623  17.905  0.00  0.00    +0.000 OA
ATOM      3  C   UNL     1       3.714   5.479  17.404  0.00  0.00    +0.000 C 
ATOM      4  C   UNL     1       3.579   6.795  18.170  0.00  0.00    +0.000 C 
ATOM      5  C   UNL     1       2.996   6.365  19.511  0.00  0.00    +0.000 C 
ENDROOT
BRANCH   1  10
ATOM      6  C   UNL     1       1.326   2.961  19.959  0.00  0.00    +0.000 A 
ATOM      7  C   UNL     1       1.519   2.323  21.166  0.00  0.00    +0.000 A 
ATOM      8  N   UNL     1       2.142   3.147  22.066  0.00  0.00    +0.000 NA
ATOM      9  C   UNL     1       2.359   4.266  21.411  0.00  0.00    +0.000 A 
ATOM     10  N   UNL     1       1.896   4.204  20.124  0.00  0.00    +0.000 N 
BRANCH   6  11
ATOM     11  N   UNL     1       0.743   2.556  18.812  0.00  0.00    +0.000 N 
ATOM     12  H   UNL     1       0.589   3.237  18.070  0.00  0.00    +0.000 HD
ATOM     13  H   UNL     1       0.932   1.624  18.427  0.00  0.00    +0.000 HD
ENDBRANCH   6  11
ENDBRANCH   1  10
BRANCH   4  14
ATOM     14  O   UNL     1       2.634   7.686  17.547  0.00  0.00    +0.000 OA
ATOM     15  H   UNL     1       2.025   8.030  18.222  0.00  0.00    +0.000 HD
ENDBRANCH   4  14
BRANCH   5  16
ATOM     16  O   UNL     1       2.298   7.447  20.138  0.00  0.00    +0.000 OA
ATOM     17  H   UNL     1       2.129   8.103  19.427  0.00  0.00    +0.000 HD
ENDBRANCH   5  16
BRANCH   3  18
ATOM     18  C   UNL     1       5.085   4.827  17.615  0.00  0.00    +0.000 C 
BRANCH  18  19
ATOM     19  O   UNL     1       6.138   5.797  17.548  0.00  0.00    +0.000 OA
BRANCH  19  20
ATOM     20  P   UNL     1       7.322   5.606  18.795  0.00  0.00    +0.000 P 
ATOM     21  O   UNL     1       6.298   5.055  19.785  0.00  0.00    +0.000 OA
BRANCH  20  22
ATOM     22  O   UNL     1       7.896   4.277  18.054  0.00  0.00    +0.000 OA
ATOM     23  H   UNL     1       8.113   3.615  18.737  0.00  0.00    +0.000 HD
ENDBRANCH  20  22
BRANCH  20  24
ATOM     24  O   UNL     1       8.507   5.414  20.040  0.00  0.00    +0.000 OA
ATOM     25  H   UNL     1       9.044   4.652  19.751  0.00  0.00    +0.000 HD
ENDBRANCH  20  24
ENDBRANCH  19  20
ENDBRANCH  18  19
ENDBRANCH   3  18
TORSDOF 9
ENDMDL
MODEL 2
REMARK VINA RESULT:      -6.5      0.949      1.110
REMARK  Name = 
REMARK  9 active torsions:
REMARK  status: ('A' for Active; 'I' for Inactive)
REMARK    1  A    between atoms: N_1  and  C_2
REMARK    2  A    between atoms: N_6  and  C_7
REMARK    3  A    between atoms: C_9  and  C_10
REMARK    4  A    between atoms: C_10  and  O_11
REMARK    5  A    between atoms: O_11  and  P_12
REMARK    6  A    between atoms: P_12  and  O_14
REMARK    7  A    between atoms: P_12  and  O_15
REMARK    8  A    between atoms: C_16  and  O_17
REMARK    9  A    between atoms: C_18  and  O_19
REMARK                            x       y       z     vdW  Elec       q    Type
REMARK                         _______ _______ _______ _____ _____    ______ ____
ROOT
ATOM      1  C   UNL     1       2.286   4.865  19.116  0.00  0.00    +0.000 C 
ATOM      2  O   UNL     1       2.864   4.383  17.878  0.00  0.00    +0.000 OA
ATOM      3  C   UNL     1       3.800   5.360  17.367  0.00  0.00    +0.000 C 
ATOM      4  C   UNL     1       3.573   6.625  18.194  0.00  0.00    +0.000 C 
ATOM      5  C   UNL     1       3.103   6.087  19.541  0.00  0.00    +0.000 C 
ENDROOT
BRANCH   1  10
ATOM      6  C   UNL     1       3.262   2.907  20.381  0.00  0.00    +0.000 A 
ATOM      7  C   UNL     1       2.825   2.212  21.488  0.00  0.00    +0.000 A 
ATOM      8  N   UNL     1       1.574   2.622  21.867  0.00  0.00    +0.000 NA
ATOM      9  C   UNL     1       1.259   3.580  21.023  0.00  0.00    +0.000 A 
ATOM     10  N   UNL     1       2.254   3.803  20.108  0.00  0.00    +0.000 N 
BRANCH   6  11
ATOM     11  N   UNL     1       4.400   2.823  19.659  0.00  0.00    +0.000 N 
ATOM     12  H   UNL     1       4.628   1.943  19.199  0.00  0.00    +0.000 HD
ATOM     13  H   UNL     1       4.736   3.625  19.115  0.00  0.00    +0.000 HD
ENDBRANCH   6  11
ENDBRANCH   1  10
BRANCH   4  14
ATOM     14  O   UNL     1       2.515   7.439  17.654  0.00  0.00    +0.000 OA
ATOM     15  H   UNL     1       2.378   7.207  16.720  0.00  0.00    +0.000 HD
ENDBRANCH   4  14
BRANCH   5  16
ATOM     16  O   UNL     1       2.333   7.067  20.245  0.00  0.00    +0.000 OA
ATOM     17  H   UNL     1       1.928   7.636  19.554  0.00  0.00    +0.000 HD
ENDBRANCH   5  16
BRANCH   3  18
ATOM     18  C   UNL     1       5.237   4.841  17.486  0.00  0.00    +0.000 C 
BRANCH  18  19
ATOM     19  O   UNL     1       6.168   5.921  17.637  0.00  0.00    +0.000 OA
BRANCH  19  20
ATOM     20  P   UNL     1       7.373   5.621  18.841  0.00  0.00    +0.000 P 
ATOM     21  O   UNL     1       6.348   5.082  19.837  0.00  0.00    +0.000 OA
BRANCH  20  22
ATOM     22  O   UNL     1       7.859   4.296  18.033  0.00  0.00    +0.000 OA
ATOM     23  H   UNL     1       8.323   4.584  17.224  0.00  0.00    +0.000 HD
ENDBRANCH  20  22
BRANCH  20  24
ATOM     24  O   UNL     1       8.578   5.320  20.045  0.00  0.00    +0.000 OA
ATOM     25  H   UNL     1       8.643   4.347  20.087  0.00  0.00    +0.000 HD
ENDBRANCH  20  24
ENDBRANCH  19  20
ENDBRANCH  18  19
ENDBRANCH   3  18
TORSDOF 9
ENDMDL
MODEL 3
REMARK VINA RESULT:      -6.3      2.264      3.655
REMARK  Name = 
REMARK  9 active torsions:
REMARK  status: ('A' for Active; 'I' for Inactive)
REMARK    1  A    between atoms: N_1  and  C_2
REMARK    2  A    between atoms: N_6  and  C_7
REMARK    3  A    between atoms: C_9  and  C_10
REMARK    4  A    between atoms: C_10  and  O_11
REMARK    5  A    between atoms: O_11  and  P_12
REMARK    6  A    between atoms: P_12  and  O_14
REMARK    7  A    between atoms: P_12  and  O_15
REMARK    8  A    between atoms: C_16  and  O_17
REMARK    9  A    between atoms: C_18  and  O_19
REMARK                            x       y       z     vdW  Elec       q    Type
REMARK                         _______ _______ _______ _____ _____    ______ ____
ROOT
ATOM      1  C   UNL     1       3.803   4.665  19.197  0.00  0.00    +0.000 C 
ATOM      2  O   UNL     1       3.861   5.976  18.581  0.00  0.00    +0.000 OA
ATOM      3  C   UNL     1       5.172   6.185  18.008  0.00  0.00    +0.000 C 
ATOM      4  C   UNL     1       6.046   5.052  18.546  0.00  0.00    +0.000 C 
ATOM      5  C   UNL     1       5.057   3.911  18.751  0.00  0.00    +0.000 C 
ENDROOT
BRANCH   1  10
ATOM      6  C   UNL     1       1.900   3.055  19.609  0.00  0.00    +0.000 A 
ATOM      7  C   UNL     1       0.710   2.843  18.948  0.00  0.00    +0.000 A 
ATOM      8  N   UNL     1       0.643   3.586  17.799  0.00  0.00    +0.000 NA
ATOM      9  C   UNL     1       1.765   4.272  17.771  0.00  0.00    +0.000 A 
ATOM     10  N   UNL     1       2.559   3.997  18.853  0.00  0.00    +0.000 N 
BRANCH   6  11
ATOM     11  N   UNL     1       2.402   2.529  20.747  0.00  0.00    +0.000 N 
ATOM     12  H   UNL     1       1.808   1.926  21.314  0.00  0.00    +0.000 HD
ATOM     13  H   UNL     1       3.385   2.243  20.804  0.00  0.00    +0.000 HD
ENDBRANCH   6  11
ENDBRANCH   1  10
BRANCH   4  14
ATOM     14  O   UNL     1       6.617   5.374  19.828  0.00  0.00    +0.000 OA
ATOM     15  H   UNL     1       5.915   5.367  20.501  0.00  0.00    +0.000 HD
ENDBRANCH   4  14
BRANCH   5  16
ATOM     16  O   UNL     1       5.539   2.983  19.730  0.00  0.00    +0.000 OA
ATOM     17  H   UNL     1       5.175   2.108  19.470  0.00  0.00    +0.000 HD
ENDBRANCH   5  16
BRANCH   3  18
ATOM     18  C   UNL     1       5.097   6.181  16.477  0.00  0.00    +0.000 C 
BRANCH  18  19
ATOM     19  O   UNL     1       6.390   5.973  15.894  0.00  0.00    +0.000 OA
BRANCH  19  20
ATOM     20  P   UNL     1       6.396   4.759  14.662  0.00  0.00    +0.000 P 
ATOM     21  O   UNL     1       7.721   5.250  14.082  0.00  0.00    +0.000 OA
BRANCH  20  22
ATOM     22  O   UNL     1       6.844   3.643  15.756  0.00  0.00    +0.000 OA
ATOM     23  H   UNL     1       7.655   3.958  16.200  0.00  0.00    +0.000 HD
ENDBRANCH  20  22
BRANCH  20  24
ATOM     24  O   UNL     1       6.402   3.544  13.431  0.00  0.00    +0.000 OA
ATOM     25  H   UNL     1       6.685   4.016  12.624  0.00  0.00    +0.000 HD
ENDBRANCH  20  24
ENDBRANCH  19  20
ENDBRANCH  18  19
ENDBRANCH   3  18
TORSDOF 9
ENDMDL
MODEL 4
REMARK VINA RESULT:      -6.2      3.133      4.818
REMARK  Name = 
REMARK  9 active torsions:
REMARK  status: ('A' for Active; 'I' for Inactive)
REMARK    1  A    between atoms: N_1  and  C_2
REMARK    2  A    between atoms: N_6  and  C_7
REMARK    3  A    between atoms: C_9  and  C_10
REMARK    4  A    between atoms: C_10  and  O_11
REMARK    5  A    between atoms: O_11  and  P_12
REMARK    6  A    between atoms: P_12  and  O_14
REMARK    7  A    between atoms: P_12  and  O_15
REMARK    8  A    between atoms: C_16  and  O_17
REMARK    9  A    between atoms: C_18  and  O_19
REMARK                            x       y       z     vdW  Elec       q    Type
REMARK                         _______ _______ _______ _____ _____    ______ ____
ROOT
ATOM      1  C   UNL     1       4.370   6.358  18.509  0.00  0.00    +0.000 C 
ATOM      2  O   UNL     1       4.213   5.271  19.455  0.00  0.00    +0.000 OA
ATOM      3  C   UNL     1       2.841   5.217  19.908  0.00  0.00    +0.000 C 
ATOM      4  C   UNL     1       2.192   6.512  19.421  0.00  0.00    +0.000 C 
ATOM      5  C   UNL     1       2.963   6.838  18.148  0.00  0.00    +0.000 C 
ENDROOT
BRANCH   1  10
ATOM      6  C   UNL     1       5.997   4.836  17.315  0.00  0.00    +0.000 A 
ATOM      7  C   UNL     1       6.386   4.753  15.995  0.00  0.00    +0.000 A 
ATOM      8  N   UNL     1       5.851   5.777  15.257  0.00  0.00    +0.000 NA
ATOM      9  C   UNL     1       5.116   6.461  16.106  0.00  0.00    +0.000 A 
ATOM     10  N   UNL     1       5.158   5.926  17.366  0.00  0.00    +0.000 N 
BRANCH   6  11
ATOM     11  N   UNL     1       6.294   4.074  18.388  0.00  0.00    +0.000 N 
ATOM     12  H   UNL     1       6.366   4.518  19.303  0.00  0.00    +0.000 HD
ATOM     13  H   UNL     1       5.935   3.116  18.468  0.00  0.00    +0.000 HD
ENDBRANCH   6  11
ENDBRANCH   1  10
BRANCH   4  14
ATOM     14  O   UNL     1       2.395   7.596  20.347  0.00  0.00    +0.000 OA
ATOM     15  H   UNL     1       3.185   7.415  20.884  0.00  0.00    +0.000 HD
ENDBRANCH   4  14
BRANCH   5  16
ATOM     16  O   UNL     1       2.899   8.238  17.853  0.00  0.00    +0.000 OA
ATOM     17  H   UNL     1       3.418   8.683  18.559  0.00  0.00    +0.000 HD
ENDBRANCH   5  16
BRANCH   3  18
ATOM     18  C   UNL     1       2.140   3.973  19.350  0.00  0.00    +0.000 C 
BRANCH  18  19
ATOM     19  O   UNL     1       2.531   2.793  20.062  0.00  0.00    +0.000 OA
BRANCH  19  20
ATOM     20  P   UNL     1       3.440   1.682  19.097  0.00  0.00    +0.000 P 
ATOM     21  O   UNL     1       3.350   2.571  17.858  0.00  0.00    +0.000 OA
BRANCH  20  22
ATOM     22  O   UNL     1       4.811   2.167  19.822  0.00  0.00    +0.000 OA
ATOM     23  H   UNL     1       5.099   1.464  20.435  0.00  0.00    +0.000 HD
ENDBRANCH  20  22
BRANCH  20  24
ATOM     24  O   UNL     1       4.349   0.571  18.133  0.00  0.00    +0.000 OA
ATOM     25  H   UNL     1       4.937   0.120  18.769  0.00  0.00    +0.000 HD
ENDBRANCH  20  24
ENDBRANCH  19  20
ENDBRANCH  18  19
ENDBRANCH   3  18
TORSDOF 9
ENDMDL
MODEL 5
REMARK VINA RESULT:      -6.2      2.258      3.375
REMARK  Name = 
REMARK  9 active torsions:
REMARK  status: ('A' for Active; 'I' for Inactive)
REMARK    1  A    between atoms: N_1  and  C_2
REMARK    2  A    between atoms: N_6  and  C_7
REMARK    3  A    between atoms: C_9  and  C_10
REMARK    4  A    between atoms: C_10  and  O_11
REMARK    5  A    between atoms: O_11  and  P_12
REMARK    6  A    between atoms: P_12  and  O_14
REMARK    7  A    between atoms: P_12  and  O_15
REMARK    8  A    between atoms: C_16  and  O_17
REMARK    9  A    between atoms: C_18  and  O_19
REMARK                            x       y       z     vdW  Elec       q    Type
REMARK                         _______ _______ _______ _____ _____    ______ ____
ROOT
ATOM      1  C   UNL     1       3.707   4.469  19.568  0.00  0.00    +0.000 C 
ATOM      2  O   UNL     1       3.778   5.724  18.847  0.00  0.00    +0.000 OA
ATOM      3  C   UNL     1       5.026   5.794  18.119  0.00  0.00    +0.000 C 
ATOM      4  C   UNL     1       5.880   4.642  18.648  0.00  0.00    +0.000 C 
ATOM      5  C   UNL     1       4.850   3.594  19.050  0.00  0.00    +0.000 C 
ENDROOT
BRANCH   1  10
ATOM      6  C   UNL     1       1.884   3.285  18.280  0.00  0.00    +0.000 A 
ATOM      7  C   UNL     1       0.683   2.735  18.673  0.00  0.00    +0.000 A 
ATOM      8  N   UNL     1       0.423   3.004  19.991  0.00  0.00    +0.000 NA
ATOM      9  C   UNL     1       1.468   3.684  20.412  0.00  0.00    +0.000 A 
ATOM     10  N   UNL     1       2.391   3.871  19.417  0.00  0.00    +0.000 N 
BRANCH   6  11
ATOM     11  N   UNL     1       2.521   3.295  17.090  0.00  0.00    +0.000 N 
ATOM     12  H   UNL     1       3.155   4.064  16.877  0.00  0.00    +0.000 HD
ATOM     13  H   UNL     1       2.837   2.421  16.656  0.00  0.00    +0.000 HD
ENDBRANCH   6  11
ENDBRANCH   1  10
BRANCH   4  14
ATOM     14  O   UNL     1       6.614   5.013  19.830  0.00  0.00    +0.000 OA
ATOM     15  H   UNL     1       6.015   5.465  20.449  0.00  0.00    +0.000 HD
ENDBRANCH   4  14
BRANCH   5  16
ATOM     16  O   UNL     1       5.380   2.707  20.042  0.00  0.00    +0.000 OA
ATOM     17  H   UNL     1       6.218   3.119  20.348  0.00  0.00    +0.000 HD
ENDBRANCH   5  16
BRANCH   3  18
ATOM     18  C   UNL     1       4.776   5.685  16.611  0.00  0.00    +0.000 C 
BRANCH  18  19
ATOM     19  O   UNL     1       5.442   4.544  16.056  0.00  0.00    +0.000 OA
BRANCH  19  20
ATOM     20  P   UNL     1       6.656   4.959  14.896  0.00  0.00    +0.000 P 
ATOM     21  O   UNL     1       7.794   4.639  15.863  0.00  0.00    +0.000 OA
BRANCH  20  22
ATOM     22  O   UNL     1       6.403   3.554  14.119  0.00  0.00    +0.000 OA
ATOM     23  H   UNL     1       5.486   3.268  14.294  0.00  0.00    +0.000 HD
ENDBRANCH  20  22
BRANCH  20  24
ATOM     24  O   UNL     1       7.870   5.374  13.735  0.00  0.00    +0.000 OA
ATOM     25  H   UNL     1       7.594   6.246  13.394  0.00  0.00    +0.000 HD
ENDBRANCH  20  24
ENDBRANCH  19  20
ENDBRANCH  18  19
ENDBRANCH   3  18
TORSDOF 9
ENDMDL
MODEL 6
REMARK VINA RESULT:      -6.2      3.470      5.534
REMARK  Name = 
REMARK  9 active torsions:
REMARK  status: ('A' for Active; 'I' for Inactive)
REMARK    1  A    between atoms: N_1  and  C_2
REMARK    2  A    between atoms: N_6  and  C_7
REMARK    3  A    between atoms: C_9  and  C_10
REMARK    4  A    between atoms: C_10  and  O_11
REMARK    5  A    between atoms: O_11  and  P_12
REMARK    6  A    between atoms: P_12  and  O_14
REMARK    7  A    between atoms: P_12  and  O_15
REMARK    8  A    between atoms: C_16  and  O_17
REMARK    9  A    between atoms: C_18  and  O_19
REMARK                            x       y       z     vdW  Elec       q    Type
REMARK                         _______ _______ _______ _____ _____    ______ ____
ROOT
ATOM      1  C   UNL     1       4.860   3.736  17.446  0.00  0.00    +0.000 C 
ATOM      2  O   UNL     1       3.629   3.792  16.683  0.00  0.00    +0.000 OA
ATOM      3  C   UNL     1       2.549   3.231  17.463  0.00  0.00    +0.000 C 
ATOM      4  C   UNL     1       3.213   2.545  18.657  0.00  0.00    +0.000 C 
ATOM      5  C   UNL     1       4.476   3.367  18.880  0.00  0.00    +0.000 C 
ENDROOT
BRANCH   1  10
ATOM      6  C   UNL     1       6.926   5.187  17.573  0.00  0.00    +0.000 A 
ATOM      7  C   UNL     1       7.167   6.487  17.184  0.00  0.00    +0.000 A 
ATOM      8  N   UNL     1       6.015   7.099  16.763  0.00  0.00    +0.000 NA
ATOM      9  C   UNL     1       5.084   6.176  16.859  0.00  0.00    +0.000 A 
ATOM     10  N   UNL     1       5.584   4.992  17.333  0.00  0.00    +0.000 N 
BRANCH   6  11
ATOM     11  N   UNL     1       7.740   4.233  18.070  0.00  0.00    +0.000 N 
ATOM     12  H   UNL     1       7.904   3.390  17.521  0.00  0.00    +0.000 HD
ATOM     13  H   UNL     1       8.568   4.484  18.622  0.00  0.00    +0.000 HD
ENDBRANCH   6  11
ENDBRANCH   1  10
BRANCH   4  14
ATOM     14  O   UNL     1       3.615   1.197  18.349  0.00  0.00    +0.000 OA
ATOM     15  H   UNL     1       3.943   1.163  17.435  0.00  0.00    +0.000 HD
ENDBRANCH   4  14
BRANCH   5  16
ATOM     16  O   UNL     1       5.477   2.598  19.555  0.00  0.00    +0.000 OA
ATOM     17  H   UNL     1       5.119   2.423  20.453  0.00  0.00    +0.000 HD
ENDBRANCH   5  16
BRANCH   3  18
ATOM     18  C   UNL     1       1.572   4.329  17.896  0.00  0.00    +0.000 C 
BRANCH  18  19
ATOM     19  O   UNL     1       1.187   4.171  19.268  0.00  0.00    +0.000 OA
BRANCH  19  20
ATOM     20  P   UNL     1       1.462   5.586  20.222  0.00  0.00    +0.000 P 
ATOM     21  O   UNL     1       2.352   4.836  21.211  0.00  0.00    +0.000 OA
BRANCH  20  22
ATOM     22  O   UNL     1       2.507   6.142  19.108  0.00  0.00    +0.000 OA
ATOM     23  H   UNL     1       2.415   7.112  19.058  0.00  0.00    +0.000 HD
ENDBRANCH  20  22
BRANCH  20  24
ATOM     24  O   UNL     1       1.738   7.003  21.176  0.00  0.00    +0.000 OA
ATOM     25  H   UNL     1       0.996   7.596  20.952  0.00  0.00    +0.000 HD
ENDBRANCH  20  24
ENDBRANCH  19  20
ENDBRANCH  18  19
ENDBRANCH   3  18
TORSDOF 9
ENDMDL
MODEL 7
REMARK VINA RESULT:      -6.2      1.636      1.767
REMARK  Name = 
REMARK  9 active torsions:
REMARK  status: ('A' for Active; 'I' for Inactive)
REMARK    1  A    between atoms: N_1  and  C_2
REMARK    2  A    between atoms: N_6  and  C_7
REMARK    3  A    between atoms: C_9  and  C_10
REMARK    4  A    between atoms: C_10  and  O_11
REMARK    5  A    between atoms: O_11  and  P_12
REMARK    6  A    between atoms: P_12  and  O_14
REMARK    7  A    between atoms: P_12  and  O_15
REMARK    8  A    between atoms: C_16  and  O_17
REMARK    9  A    between atoms: C_18  and  O_19
REMARK                            x       y       z     vdW  Elec       q    Type
REMARK                         _______ _______ _______ _____ _____    ______ ____
ROOT
ATOM      1  C   UNL     1       2.856   5.268  18.384  0.00  0.00    +0.000 C 
ATOM      2  O   UNL     1       3.675   5.463  17.204  0.00  0.00    +0.000 OA
ATOM      3  C   UNL     1       4.095   6.844  17.127  0.00  0.00    +0.000 C 
ATOM      4  C   UNL     1       3.260   7.590  18.168  0.00  0.00    +0.000 C 
ATOM      5  C   UNL     1       2.995   6.533  19.233  0.00  0.00    +0.000 C 
ENDROOT
BRANCH   1  10
ATOM      6  C   UNL     1       4.174   3.128  18.649  0.00  0.00    +0.000 A 
ATOM      7  C   UNL     1       4.302   2.246  19.701  0.00  0.00    +0.000 A 
ATOM      8  N   UNL     1       3.451   2.571  20.724  0.00  0.00    +0.000 NA
ATOM      9  C   UNL     1       2.832   3.659  20.321  0.00  0.00    +0.000 A 
ATOM     10  N   UNL     1       3.243   4.048  19.074  0.00  0.00    +0.000 N 
BRANCH   6  11
ATOM     11  N   UNL     1       4.781   3.183  17.445  0.00  0.00    +0.000 N 
ATOM     12  H   UNL     1       5.764   2.924  17.376  0.00  0.00    +0.000 HD
ATOM     13  H   UNL     1       4.271   2.939  16.589  0.00  0.00    +0.000 HD
ENDBRANCH   6  11
ENDBRANCH   1  10
BRANCH   4  14
ATOM     14  O   UNL     1       1.988   8.007  17.638  0.00  0.00    +0.000 OA
ATOM     15  H   UNL     1       1.320   7.974  18.344  0.00  0.00    +0.000 HD
ENDBRANCH   4  14
BRANCH   5  16
ATOM     16  O   UNL     1       1.816   6.844  19.984  0.00  0.00    +0.000 OA
ATOM     17  H   UNL     1       1.126   7.062  19.319  0.00  0.00    +0.000 HD
ENDBRANCH   5  16
BRANCH   3  18
ATOM     18  C   UNL     1       5.599   6.964  17.399  0.00  0.00    +0.000 C 
BRANCH  18  19
ATOM     19  O   UNL     1       6.229   5.677  17.409  0.00  0.00    +0.000 OA
BRANCH  19  20
ATOM     20  P   UNL     1       7.403   5.501  18.667  0.00  0.00    +0.000 P 
ATOM     21  O   UNL     1       6.345   5.132  19.704  0.00  0.00    +0.000 OA
BRANCH  20  22
ATOM     22  O   UNL     1       7.857   4.067  18.050  0.00  0.00    +0.000 OA
ATOM     23  H   UNL     1       7.814   4.124  17.077  0.00  0.00    +0.000 HD
ENDBRANCH  20  22
BRANCH  20  24
ATOM     24  O   UNL     1       8.578   5.324  19.924  0.00  0.00    +0.000 OA
ATOM     25  H   UNL     1       8.055   5.100  20.717  0.00  0.00    +0.000 HD
ENDBRANCH  20  24
ENDBRANCH  19  20
ENDBRANCH  18  19
ENDBRANCH   3  18
TORSDOF 9
ENDMDL
MODEL 8
REMARK VINA RESULT:      -6.2      2.414      3.630
REMARK  Name = 
REMARK  9 active torsions:
REMARK  status: ('A' for Active; 'I' for Inactive)
REMARK    1  A    between atoms: N_1  and  C_2
REMARK    2  A    between atoms: N_6  and  C_7
REMARK    3  A    between atoms: C_9  and  C_10
REMARK    4  A    between atoms: C_10  and  O_11
REMARK    5  A    between atoms: O_11  and  P_12
REMARK    6  A    between atoms: P_12  and  O_14
REMARK    7  A    between atoms: P_12  and  O_15
REMARK    8  A    between atoms: C_16  and  O_17
REMARK    9  A    between atoms: C_18  and  O_19
REMARK                            x       y       z     vdW  Elec       q    Type
REMARK                         _______ _______ _______ _____ _____    ______ ____
ROOT
ATOM      1  C   UNL     1       3.288   3.408  19.325  0.00  0.00    +0.000 C 
ATOM      2  O   UNL     1       4.577   3.707  18.734  0.00  0.00    +0.000 OA
ATOM      3  C   UNL     1       4.760   2.909  17.542  0.00  0.00    +0.000 C 
ATOM      4  C   UNL     1       3.640   1.869  17.562  0.00  0.00    +0.000 C 
ATOM      5  C   UNL     1       2.512   2.579  18.300  0.00  0.00    +0.000 C 
ENDROOT
BRANCH   1  10
ATOM      6  C   UNL     1       1.523   4.737  20.554  0.00  0.00    +0.000 A 
ATOM      7  C   UNL     1       1.356   6.091  20.751  0.00  0.00    +0.000 A 
ATOM      8  N   UNL     1       2.276   6.811  20.035  0.00  0.00    +0.000 NA
ATOM      9  C   UNL     1       3.021   5.911  19.432  0.00  0.00    +0.000 A 
ATOM     10  N   UNL     1       2.616   4.635  19.723  0.00  0.00    +0.000 N 
BRANCH   6  11
ATOM     11  N   UNL     1       0.845   3.670  21.026  0.00  0.00    +0.000 N 
ATOM     12  H   UNL     1       1.362   2.825  21.268  0.00  0.00    +0.000 HD
ATOM     13  H   UNL     1       0.030   3.794  21.636  0.00  0.00    +0.000 HD
ENDBRANCH   6  11
ENDBRANCH   1  10
BRANCH   4  14
ATOM     14  O   UNL     1       4.001   0.704  18.328  0.00  0.00    +0.000 OA
ATOM     15  H   UNL     1       3.390  -0.022  18.113  0.00  0.00    +0.000 HD
ENDBRANCH   4  14
BRANCH   5  16
ATOM     16  O   UNL     1       1.614   1.636  18.896  0.00  0.00    +0.000 OA
ATOM     17  H   UNL     1       1.169   1.181  18.148  0.00  0.00    +0.000 HD
ENDBRANCH   5  16
BRANCH   3  18
ATOM     18  C   UNL     1       4.706   3.793  16.290  0.00  0.00    +0.000 C 
BRANCH  18  19
ATOM     19  O   UNL     1       5.993   3.890  15.667  0.00  0.00    +0.000 OA
BRANCH  19  20
ATOM     20  P   UNL     1       6.878   5.298  16.145  0.00  0.00    +0.000 P 
ATOM     21  O   UNL     1       7.905   4.478  16.923  0.00  0.00    +0.000 OA
BRANCH  20  22
ATOM     22  O   UNL     1       7.520   5.406  14.655  0.00  0.00    +0.000 OA
ATOM     23  H   UNL     1       6.806   5.635  14.030  0.00  0.00    +0.000 HD
ENDBRANCH  20  22
BRANCH  20  24
ATOM     24  O   UNL     1       7.763   6.705  16.621  0.00  0.00    +0.000 OA
ATOM     25  H   UNL     1       7.094   7.288  17.028  0.00  0.00    +0.000 HD
ENDBRANCH  20  24
ENDBRANCH  19  20
ENDBRANCH  18  19
ENDBRANCH   3  18
TORSDOF 9
ENDMDL
MODEL 9
REMARK VINA RESULT:      -6.1      2.505      3.740
REMARK  Name = 
REMARK  9 active torsions:
REMARK  status: ('A' for Active; 'I' for Inactive)
REMARK    1  A    between atoms: N_1  and  C_2
REMARK    2  A    between atoms: N_6  and  C_7
REMARK    3  A    between atoms: C_9  and  C_10
REMARK    4  A    between atoms: C_10  and  O_11
REMARK    5  A    between atoms: O_11  and  P_12
REMARK    6  A    between atoms: P_12  and  O_14
REMARK    7  A    between atoms: P_12  and  O_15
REMARK    8  A    between atoms: C_16  and  O_17
REMARK    9  A    between atoms: C_18  and  O_19
REMARK                            x       y       z     vdW  Elec       q    Type
REMARK                         _______ _______ _______ _____ _____    ______ ____
ROOT
ATOM      1  C   UNL     1       2.658   4.029  19.466  0.00  0.00    +0.000 C 
ATOM      2  O   UNL     1       4.053   3.847  19.118  0.00  0.00    +0.000 OA
ATOM      3  C   UNL     1       4.156   2.992  17.957  0.00  0.00    +0.000 C 
ATOM      4  C   UNL     1       2.762   2.399  17.753  0.00  0.00    +0.000 C 
ATOM      5  C   UNL     1       1.835   3.478  18.299  0.00  0.00    +0.000 C 
ENDROOT
BRANCH   1  10
ATOM      6  C   UNL     1       2.718   6.511  18.991  0.00  0.00    +0.000 A 
ATOM      7  C   UNL     1       2.124   7.585  19.617  0.00  0.00    +0.000 A 
ATOM      8  N   UNL     1       1.489   7.198  20.767  0.00  0.00    +0.000 NA
ATOM      9  C   UNL     1       1.661   5.896  20.831  0.00  0.00    +0.000 A 
ATOM     10  N   UNL     1       2.389   5.425  19.771  0.00  0.00    +0.000 N 
BRANCH   6  11
ATOM     11  N   UNL     1       3.458   6.423  17.866  0.00  0.00    +0.000 N 
ATOM     12  H   UNL     1       4.472   6.489  17.937  0.00  0.00    +0.000 HD
ATOM     13  H   UNL     1       3.179   5.798  17.101  0.00  0.00    +0.000 HD
ENDBRANCH   6  11
ENDBRANCH   1  10
BRANCH   4  14
ATOM     14  O   UNL     1       2.562   1.210  18.540  0.00  0.00    +0.000 OA
ATOM     15  H   UNL     1       1.650   0.896  18.420  0.00  0.00    +0.000 HD
ENDBRANCH   4  14
BRANCH   5  16
ATOM     16  O   UNL     1       0.580   2.921  18.704  0.00  0.00    +0.000 OA
ATOM     17  H   UNL     1       0.014   2.927  17.900  0.00  0.00    +0.000 HD
ENDBRANCH   5  16
BRANCH   3  18
ATOM     18  C   UNL     1       4.627   3.795  16.739  0.00  0.00    +0.000 C 
BRANCH  18  19
ATOM     19  O   UNL     1       5.619   4.762  17.106  0.00  0.00    +0.000 OA
BRANCH  19  20
ATOM     20  P   UNL     1       6.736   5.111  15.833  0.00  0.00    +0.000 P 
ATOM     21  O   UNL     1       6.865   6.575  16.249  0.00  0.00    +0.000 OA
BRANCH  20  22
ATOM     22  O   UNL     1       7.921   4.369  16.663  0.00  0.00    +0.000 OA
ATOM     23  H   UNL     1       7.529   3.961  17.458  0.00  0.00    +0.000 HD
ENDBRANCH  20  22
BRANCH  20  24
ATOM     24  O   UNL     1       7.855   5.460  14.561  0.00  0.00    +0.000 OA
ATOM     25  H   UNL     1       8.693   5.055  14.855  0.00  0.00    +0.000 HD
ENDBRANCH  20  24
ENDBRANCH  19  20
ENDBRANCH  18  19
ENDBRANCH   3  18
TORSDOF 9
ENDMDL
