MODEL 1
REMARK VINA RESULT:      -7.5      0.000      0.000
REMARK  Name = 
REMARK  5 active torsions:
REMARK  status: ('A' for Active; 'I' for Inactive)
REMARK    1  A    between atoms: C_1  and  C_2
REMARK    2  A    between atoms: C_2  and  C_3
REMARK    3  A    between atoms: C_8  and  C_9
REMARK    4  A    between atoms: C_9  and  O_10
REMARK    5  A    between atoms: O_10  and  C_11
REMARK                            x       y       z     vdW  Elec       q    Type
REMARK                         _______ _______ _______ _____ _____    ______ ____
ROOT
ATOM      1  C   UNL     1       0.720   2.869  19.576  0.00  0.00    +0.000 C 
ATOM      2  C   UNL     1       1.967   3.636  20.063  0.00  0.00    +0.000 C 
ATOM      3  C   UNL     1       2.306   3.181  21.494  0.00  0.00    +0.000 C 
ATOM      4  C   UNL     1       1.627   5.154  20.068  0.00  0.00    +0.000 C 
ATOM      5  C   UNL     1       2.616   6.144  19.455  0.00  0.00    +0.000 C 
ATOM      6  N   UNL     1       3.703   5.551  18.721  0.00  0.00    +0.000 N 
ATOM      7  N   UNL     1       4.597   6.340  18.107  0.00  0.00    +0.000 NA
ATOM      8  C   UNL     1       5.423   5.474  17.498  0.00  0.00    +0.000 A 
ATOM      9  C   UNL     1       5.058   4.136  17.779  0.00  0.00    +0.000 A 
ATOM     10  C   UNL     1       3.940   4.225  18.580  0.00  0.00    +0.000 A 
ATOM     11  C   UNL     1       3.137   3.197  19.169  0.00  0.00    +0.000 C 
ATOM     12  O   UNL     1       3.389   2.002  19.003  0.00  0.00    +0.000 OA
ENDROOT
BRANCH   8  13
ATOM     13  C   UNL     1       6.558   5.952  16.651  0.00  0.00    +0.000 C 
BRANCH  13  14
ATOM     14  O   UNL     1       7.263   4.840  16.088  0.00  0.00    +0.000 OA
BRANCH  14  15
ATOM     15  C   UNL     1       7.034   4.598  14.763  0.00  0.00    +0.000 A 
ATOM     16  C   UNL     1       7.844   5.319  13.885  0.00  0.00    +0.000 A 
ATOM     17  C   UNL     1       7.708   5.158  12.505  0.00  0.00    +0.000 A 
ATOM     18  C   UNL     1       6.768   4.261  12.000  0.00  0.00    +0.000 A 
ATOM     19  C   UNL     1       5.974   3.522  12.874  0.00  0.00    +0.000 A 
ATOM     20  C   UNL     1       6.107   3.687  14.255  0.00  0.00    +0.000 A 
ENDBRANCH  14  15
ENDBRANCH  13  14
ENDBRANCH   8  13
TORSDOF 3
ENDMDL
MODEL 2
REMARK VINA RESULT:      -7.5      1.462      1.901
REMARK  Name = 
REMARK  5 active torsions:
REMARK  status: ('A' for Active; 'I' for Inactive)
REMARK    1  A    between atoms: C_1  and  C_2
REMARK    2  A    between atoms: C_2  and  C_3
REMARK    3  A    between atoms: C_8  and  C_9
REMARK    4  A    between atoms: C_9  and  O_10
REMARK    5  A    between atoms: O_10  and  C_11
REMARK                            x       y       z     vdW  Elec       q    Type
REMARK                         _______ _______ _______ _____ _____    ______ ____
ROOT
ATOM      1  C   UNL     1       0.993   4.510  20.579  0.00  0.00    +0.000 C 
ATOM      2  C   UNL     1       1.813   3.578  19.662  0.00  0.00    +0.000 C 
ATOM      3  C   UNL     1       0.864   2.556  19.012  0.00  0.00    +0.000 C 
ATOM      4  C   UNL     1       2.856   2.832  20.543  0.00  0.00    +0.000 C 
ATOM      5  C   UNL     1       4.309   2.751  20.075  0.00  0.00    +0.000 C 
ATOM      6  N   UNL     1       4.635   3.573  18.940  0.00  0.00    +0.000 N 
ATOM      7  N   UNL     1       5.897   3.605  18.485  0.00  0.00    +0.000 NA
ATOM      8  C   UNL     1       5.849   4.486  17.473  0.00  0.00    +0.000 A 
ATOM      9  C   UNL     1       4.532   4.966  17.274  0.00  0.00    +0.000 A 
ATOM     10  C   UNL     1       3.771   4.348  18.242  0.00  0.00    +0.000 A 
ATOM     11  C   UNL     1       2.371   4.450  18.526  0.00  0.00    +0.000 C 
ATOM     12  O   UNL     1       1.627   5.178  17.867  0.00  0.00    +0.000 OA
ENDROOT
BRANCH   8  13
ATOM     13  C   UNL     1       7.079   4.853  16.707  0.00  0.00    +0.000 C 
BRANCH  13  14
ATOM     14  O   UNL     1       6.739   5.657  15.572  0.00  0.00    +0.000 OA
BRANCH  14  15
ATOM     15  C   UNL     1       6.699   5.007  14.372  0.00  0.00    +0.000 A 
ATOM     16  C   UNL     1       7.676   5.402  13.456  0.00  0.00    +0.000 A 
ATOM     17  C   UNL     1       7.741   4.810  12.194  0.00  0.00    +0.000 A 
ATOM     18  C   UNL     1       6.835   3.809  11.848  0.00  0.00    +0.000 A 
ATOM     19  C   UNL     1       5.872   3.396  12.768  0.00  0.00    +0.000 A 
ATOM     20  C   UNL     1       5.804   3.992  14.030  0.00  0.00    +0.000 A 
ENDBRANCH  14  15
ENDBRANCH  13  14
ENDBRANCH   8  13
TORSDOF 3
ENDMDL
MODEL 3
REMARK VINA RESULT:      -7.5      0.601      1.235
REMARK  Name = 
REMARK  5 active torsions:
REMARK  status: ('A' for Active; 'I' for Inactive)
REMARK    1  A    between atoms: C_1  and  C_2
REMARK    2  A    between atoms: C_2  and  C_3
REMARK    3  A    between atoms: C_8  and  C_9
REMARK    4  A    between atoms: C_9  and  O_10
REMARK    5  A    between atoms: O_10  and  C_11
REMARK                            x       y       z     vdW  Elec       q    Type
REMARK                         _______ _______ _______ _____ _____    ______ ____
ROOT
ATOM      1  C   UNL     1       0.268   3.107  19.828  0.00  0.00    +0.000 C 
ATOM      2  C   UNL     1       1.689   3.640  20.102  0.00  0.00    +0.000 C 
ATOM      3  C   UNL     1       2.279   2.889  21.310  0.00  0.00    +0.000 C 
ATOM      4  C   UNL     1       1.580   5.155  20.435  0.00  0.00    +0.000 C 
ATOM      5  C   UNL     1       2.534   6.140  19.760  0.00  0.00    +0.000 C 
ATOM      6  N   UNL     1       3.326   5.592  18.691  0.00  0.00    +0.000 N 
ATOM      7  N   UNL     1       4.160   6.390  18.007  0.00  0.00    +0.000 NA
ATOM      8  C   UNL     1       4.691   5.578  17.079  0.00  0.00    +0.000 A 
ATOM      9  C   UNL     1       4.213   4.254  17.225  0.00  0.00    +0.000 A 
ATOM     10  C   UNL     1       3.333   4.300  18.285  0.00  0.00    +0.000 A 
ATOM     11  C   UNL     1       2.548   3.264  18.884  0.00  0.00    +0.000 C 
ATOM     12  O   UNL     1       2.582   2.103  18.470  0.00  0.00    +0.000 OA
ENDROOT
BRANCH   8  13
ATOM     13  C   UNL     1       5.658   6.092  16.062  0.00  0.00    +0.000 C 
BRANCH  13  14
ATOM     14  O   UNL     1       6.646   5.100  15.766  0.00  0.00    +0.000 OA
BRANCH  14  15
ATOM     15  C   UNL     1       6.792   4.778  14.447  0.00  0.00    +0.000 A 
ATOM     16  C   UNL     1       5.940   3.772  13.989  0.00  0.00    +0.000 A 
ATOM     17  C   UNL     1       5.991   3.354  12.658  0.00  0.00    +0.000 A 
ATOM     18  C   UNL     1       6.887   3.955  11.776  0.00  0.00    +0.000 A 
ATOM     19  C   UNL     1       7.723   4.977  12.224  0.00  0.00    +0.000 A 
ATOM     20  C   UNL     1       7.676   5.390  13.557  0.00  0.00    +0.000 A 
ENDBRANCH  14  15
ENDBRANCH  13  14
ENDBRANCH   8  13
TORSDOF 3
ENDMDL
MODEL 4
REMARK VINA RESULT:      -7.4      1.824      3.063
REMARK  Name = 
REMARK  5 active torsions:
REMARK  status: ('A' for Active; 'I' for Inactive)
REMARK    1  A    between atoms: C_1  and  C_2
REMARK    2  A    between atoms: C_2  and  C_3
REMARK    3  A    between atoms: C_8  and  C_9
REMARK    4  A    between atoms: C_9  and  O_10
REMARK    5  A    between atoms: O_10  and  C_11
REMARK                            x       y       z     vdW  Elec       q    Type
REMARK                         _______ _______ _______ _____ _____    ______ ____
ROOT
ATOM      1  C   UNL     1       0.408   2.969  20.278  0.00  0.00    +0.000 C 
ATOM      2  C   UNL     1       1.841   3.538  20.297  0.00  0.00    +0.000 C 
ATOM      3  C   UNL     1       2.574   3.006  21.542  0.00  0.00    +0.000 C 
ATOM      4  C   UNL     1       1.744   5.088  20.375  0.00  0.00    +0.000 C 
ATOM      5  C   UNL     1       2.601   5.939  19.438  0.00  0.00    +0.000 C 
ATOM      6  N   UNL     1       3.280   5.213  18.398  0.00  0.00    +0.000 N 
ATOM      7  N   UNL     1       4.019   5.879  17.498  0.00  0.00    +0.000 NA
ATOM      8  C   UNL     1       4.459   4.917  16.671  0.00  0.00    +0.000 A 
ATOM      9  C   UNL     1       4.022   3.640  17.094  0.00  0.00    +0.000 A 
ATOM     10  C   UNL     1       3.263   3.871  18.221  0.00  0.00    +0.000 A 
ATOM     11  C   UNL     1       2.567   2.955  19.074  0.00  0.00    +0.000 C 
ATOM     12  O   UNL     1       2.575   1.740  18.864  0.00  0.00    +0.000 OA
ENDROOT
BRANCH   8  13
ATOM     13  C   UNL     1       5.299   5.246  15.478  0.00  0.00    +0.000 C 
BRANCH  13  14
ATOM     14  O   UNL     1       6.678   4.978  15.752  0.00  0.00    +0.000 OA
BRANCH  14  15
ATOM     15  C   UNL     1       7.204   5.608  16.843  0.00  0.00    +0.000 A 
ATOM     16  C   UNL     1       7.329   6.993  16.719  0.00  0.00    +0.000 A 
ATOM     17  C   UNL     1       7.851   7.752  17.768  0.00  0.00    +0.000 A 
ATOM     18  C   UNL     1       8.236   7.127  18.953  0.00  0.00    +0.000 A 
ATOM     19  C   UNL     1       8.090   5.747  19.089  0.00  0.00    +0.000 A 
ATOM     20  C   UNL     1       7.573   4.988  18.037  0.00  0.00    +0.000 A 
ENDBRANCH  14  15
ENDBRANCH  13  14
ENDBRANCH   8  13
TORSDOF 3
ENDMDL
MODEL 5
REMARK VINA RESULT:      -7.4      1.447      2.022
REMARK  Name = 
REMARK  5 active torsions:
REMARK  status: ('A' for Active; 'I' for Inactive)
REMARK    1  A    between atoms: C_1  and  C_2
REMARK    2  A    between atoms: C_2  and  C_3
REMARK    3  A    between atoms: C_8  and  C_9
REMARK    4  A    between atoms: C_9  and  O_10
REMARK    5  A    between atoms: O_10  and  C_11
REMARK                            x       y       z     vdW  Elec       q    Type
REMARK                         _______ _______ _______ _____ _____    ______ ____
ROOT
ATOM      1  C   UNL     1       2.207   2.682  21.529  0.00  0.00    +0.000 C 
ATOM      2  C   UNL     1       1.926   3.026  20.052  0.00  0.00    +0.000 C 
ATOM      3  C   UNL     1       0.411   3.217  19.863  0.00  0.00    +0.000 C 
ATOM      4  C   UNL     1       2.412   1.834  19.178  0.00  0.00    +0.000 C 
ATOM      5  C   UNL     1       3.257   2.113  17.936  0.00  0.00    +0.000 C 
ATOM      6  N   UNL     1       3.717   3.469  17.798  0.00  0.00    +0.000 N 
ATOM      7  N   UNL     1       4.504   3.801  16.763  0.00  0.00    +0.000 NA
ATOM      8  C   UNL     1       4.772   5.100  16.970  0.00  0.00    +0.000 A 
ATOM      9  C   UNL     1       4.104   5.584  18.119  0.00  0.00    +0.000 A 
ATOM     10  C   UNL     1       3.425   4.499  18.628  0.00  0.00    +0.000 A 
ATOM     11  C   UNL     1       2.582   4.389  19.780  0.00  0.00    +0.000 C 
ATOM     12  O   UNL     1       2.355   5.355  20.512  0.00  0.00    +0.000 OA
ENDROOT
BRANCH   8  13
ATOM     13  C   UNL     1       5.672   5.861  16.049  0.00  0.00    +0.000 C 
BRANCH  13  14
ATOM     14  O   UNL     1       6.785   5.049  15.657  0.00  0.00    +0.000 OA
BRANCH  14  15
ATOM     15  C   UNL     1       6.856   4.735  14.330  0.00  0.00    +0.000 A 
ATOM     16  C   UNL     1       7.723   5.534  13.583  0.00  0.00    +0.000 A 
ATOM     17  C   UNL     1       7.885   5.311  12.214  0.00  0.00    +0.000 A 
ATOM     18  C   UNL     1       7.189   4.276  11.592  0.00  0.00    +0.000 A 
ATOM     19  C   UNL     1       6.340   3.462  12.340  0.00  0.00    +0.000 A 
ATOM     20  C   UNL     1       6.175   3.688  13.708  0.00  0.00    +0.000 A 
ENDBRANCH  14  15
ENDBRANCH  13  14
ENDBRANCH   8  13
TORSDOF 3
ENDMDL
MODEL 6
REMARK VINA RESULT:      -7.4      2.205      3.616
REMARK  Name = 
REMARK  5 active torsions:
REMARK  status: ('A' for Active; 'I' for Inactive)
REMARK    1  A    between atoms: C_1  and  C_2
REMARK    2  A    between atoms: C_2  and  C_3
REMARK    3  A    between atoms: C_8  and  C_9
REMARK    4  A    between atoms: C_9  and  O_10
REMARK    5  A    between atoms: O_10  and  C_11
REMARK                            x       y       z     vdW  Elec       q    Type
REMARK                         _______ _______ _______ _____ _____    ______ ____
ROOT
ATOM      1  C   UNL     1       2.275   3.686  21.705  0.00  0.00    +0.000 C 
ATOM      2  C   UNL     1       1.956   3.487  20.209  0.00  0.00    +0.000 C 
ATOM      3  C   UNL     1       0.428   3.464  20.022  0.00  0.00    +0.000 C 
ATOM      4  C   UNL     1       2.554   2.121  19.765  0.00  0.00    +0.000 C 
ATOM      5  C   UNL     1       3.362   2.044  18.470  0.00  0.00    +0.000 C 
ATOM      6  N   UNL     1       3.686   3.312  17.872  0.00  0.00    +0.000 N 
ATOM      7  N   UNL     1       4.432   3.348  16.757  0.00  0.00    +0.000 NA
ATOM      8  C   UNL     1       4.571   4.660  16.509  0.00  0.00    +0.000 A 
ATOM      9  C   UNL     1       3.863   5.438  17.455  0.00  0.00    +0.000 A 
ATOM     10  C   UNL     1       3.297   4.529  18.322  0.00  0.00    +0.000 A 
ATOM     11  C   UNL     1       2.473   4.735  19.474  0.00  0.00    +0.000 C 
ATOM     12  O   UNL     1       2.154   5.865  19.850  0.00  0.00    +0.000 OA
ENDROOT
BRANCH   8  13
ATOM     13  C   UNL     1       5.388   5.147  15.355  0.00  0.00    +0.000 C 
BRANCH  13  14
ATOM     14  O   UNL     1       6.784   4.971  15.622  0.00  0.00    +0.000 OA
BRANCH  14  15
ATOM     15  C   UNL     1       7.250   5.555  16.765  0.00  0.00    +0.000 A 
ATOM     16  C   UNL     1       7.345   6.947  16.718  0.00  0.00    +0.000 A 
ATOM     17  C   UNL     1       7.806   7.661  17.825  0.00  0.00    +0.000 A 
ATOM     18  C   UNL     1       8.161   6.984  18.990  0.00  0.00    +0.000 A 
ATOM     19  C   UNL     1       8.046   5.596  19.049  0.00  0.00    +0.000 A 
ATOM     20  C   UNL     1       7.589   4.881  17.939  0.00  0.00    +0.000 A 
ENDBRANCH  14  15
ENDBRANCH  13  14
ENDBRANCH   8  13
TORSDOF 3
ENDMDL
MODEL 7
REMARK VINA RESULT:      -7.3      1.785      3.188
REMARK  Name = 
REMARK  5 active torsions:
REMARK  status: ('A' for Active; 'I' for Inactive)
REMARK    1  A    between atoms: C_1  and  C_2
REMARK    2  A    between atoms: C_2  and  C_3
REMARK    3  A    between atoms: C_8  and  C_9
REMARK    4  A    between atoms: C_9  and  O_10
REMARK    5  A    between atoms: O_10  and  C_11
REMARK                            x       y       z     vdW  Elec       q    Type
REMARK                         _______ _______ _______ _____ _____    ______ ____
ROOT
ATOM      1  C   UNL     1       0.400   3.052  20.254  0.00  0.00    +0.000 C 
ATOM      2  C   UNL     1       1.837   3.610  20.270  0.00  0.00    +0.000 C 
ATOM      3  C   UNL     1       2.555   3.105  21.534  0.00  0.00    +0.000 C 
ATOM      4  C   UNL     1       1.752   5.163  20.307  0.00  0.00    +0.000 C 
ATOM      5  C   UNL     1       2.623   5.983  19.356  0.00  0.00    +0.000 C 
ATOM      6  N   UNL     1       3.304   5.226  18.340  0.00  0.00    +0.000 N 
ATOM      7  N   UNL     1       4.056   5.862  17.429  0.00  0.00    +0.000 NA
ATOM      8  C   UNL     1       4.495   4.876  16.631  0.00  0.00    +0.000 A 
ATOM      9  C   UNL     1       4.045   3.613  17.084  0.00  0.00    +0.000 A 
ATOM     10  C   UNL     1       3.279   3.879  18.198  0.00  0.00    +0.000 A 
ATOM     11  C   UNL     1       2.569   2.991  19.068  0.00  0.00    +0.000 C 
ATOM     12  O   UNL     1       2.568   1.771  18.890  0.00  0.00    +0.000 OA
ENDROOT
BRANCH   8  13
ATOM     13  C   UNL     1       5.347   5.168  15.438  0.00  0.00    +0.000 C 
BRANCH  13  14
ATOM     14  O   UNL     1       6.730   4.970  15.753  0.00  0.00    +0.000 OA
BRANCH  14  15
ATOM     15  C   UNL     1       7.213   5.702  16.800  0.00  0.00    +0.000 A 
ATOM     16  C   UNL     1       7.559   4.957  17.928  0.00  0.00    +0.000 A 
ATOM     17  C   UNL     1       8.066   5.589  19.064  0.00  0.00    +0.000 A 
ATOM     18  C   UNL     1       8.244   6.971  19.068  0.00  0.00    +0.000 A 
ATOM     19  C   UNL     1       7.922   7.716  17.935  0.00  0.00    +0.000 A 
ATOM     20  C   UNL     1       7.409   7.084  16.801  0.00  0.00    +0.000 A 
ENDBRANCH  14  15
ENDBRANCH  13  14
ENDBRANCH   8  13
TORSDOF 3
ENDMDL
MODEL 8
REMARK VINA RESULT:      -7.2      2.263      3.764
REMARK  Name = 
REMARK  5 active torsions:
REMARK  status: ('A' for Active; 'I' for Inactive)
REMARK    1  A    between atoms: C_1  and  C_2
REMARK    2  A    between atoms: C_2  and  C_3
REMARK    3  A    between atoms: C_8  and  C_9
REMARK    4  A    between atoms: C_9  and  O_10
REMARK    5  A    between atoms: O_10  and  C_11
REMARK                            x       y       z     vdW  Elec       q    Type
REMARK                         _______ _______ _______ _____ _____    ______ ____
ROOT
ATOM      1  C   UNL     1       2.265   3.274  21.540  0.00  0.00    +0.000 C 
ATOM      2  C   UNL     1       1.936   3.255  20.033  0.00  0.00    +0.000 C 
ATOM      3  C   UNL     1       0.407   3.246  19.856  0.00  0.00    +0.000 C 
ATOM      4  C   UNL     1       2.537   1.956  19.425  0.00  0.00    +0.000 C 
ATOM      5  C   UNL     1       3.336   2.039  18.124  0.00  0.00    +0.000 C 
ATOM      6  N   UNL     1       3.648   3.371  17.680  0.00  0.00    +0.000 N 
ATOM      7  N   UNL     1       4.386   3.545  16.573  0.00  0.00    +0.000 NA
ATOM      8  C   UNL     1       4.517   4.878  16.483  0.00  0.00    +0.000 A 
ATOM      9  C   UNL     1       3.813   5.533  17.521  0.00  0.00    +0.000 A 
ATOM     10  C   UNL     1       3.257   4.523  18.275  0.00  0.00    +0.000 A 
ATOM     11  C   UNL     1       2.441   4.585  19.450  0.00  0.00    +0.000 C 
ATOM     12  O   UNL     1       2.120   5.659  19.961  0.00  0.00    +0.000 OA
ENDROOT
BRANCH   8  13
ATOM     13  C   UNL     1       5.323   5.505  15.390  0.00  0.00    +0.000 C 
BRANCH  13  14
ATOM     14  O   UNL     1       6.721   5.303  15.623  0.00  0.00    +0.000 OA
BRANCH  14  15
ATOM     15  C   UNL     1       7.213   5.825  16.785  0.00  0.00    +0.000 A 
ATOM     16  C   UNL     1       7.515   4.885  17.771  0.00  0.00    +0.000 A 
ATOM     17  C   UNL     1       8.027   5.294  19.004  0.00  0.00    +0.000 A 
ATOM     18  C   UNL     1       8.252   6.648  19.248  0.00  0.00    +0.000 A 
ATOM     19  C   UNL     1       7.974   7.588  18.257  0.00  0.00    +0.000 A 
ATOM     20  C   UNL     1       7.456   7.178  17.025  0.00  0.00    +0.000 A 
ENDBRANCH  14  15
ENDBRANCH  13  14
ENDBRANCH   8  13
TORSDOF 3
ENDMDL
MODEL 9
REMARK VINA RESULT:      -7.2      1.443      1.880
REMARK  Name = 
REMARK  5 active torsions:
REMARK  status: ('A' for Active; 'I' for Inactive)
REMARK    1  A    between atoms: C_1  and  C_2
REMARK    2  A    between atoms: C_2  and  C_3
REMARK    3  A    between atoms: C_8  and  C_9
REMARK    4  A    between atoms: C_9  and  O_10
REMARK    5  A    between atoms: O_10  and  C_11
REMARK                            x       y       z     vdW  Elec       q    Type
REMARK                         _______ _______ _______ _____ _____    ______ ____
ROOT
ATOM      1  C   UNL     1       0.563   2.610  19.118  0.00  0.00    +0.000 C 
ATOM      2  C   UNL     1       1.570   3.207  20.122  0.00  0.00    +0.000 C 
ATOM      3  C   UNL     1       1.370   2.533  21.491  0.00  0.00    +0.000 C 
ATOM      4  C   UNL     1       1.280   4.731  20.246  0.00  0.00    +0.000 C 
ATOM      5  C   UNL     1       2.442   5.721  20.180  0.00  0.00    +0.000 C 
ATOM      6  N   UNL     1       3.706   5.158  19.786  0.00  0.00    +0.000 N 
ATOM      7  N   UNL     1       4.775   5.957  19.653  0.00  0.00    +0.000 NA
ATOM      8  C   UNL     1       5.746   5.126  19.242  0.00  0.00    +0.000 A 
ATOM      9  C   UNL     1       5.279   3.793  19.164  0.00  0.00    +0.000 A 
ATOM     10  C   UNL     1       3.952   3.851  19.529  0.00  0.00    +0.000 A 
ATOM     11  C   UNL     1       2.972   2.812  19.634  0.00  0.00    +0.000 C 
ATOM     12  O   UNL     1       3.244   1.637  19.380  0.00  0.00    +0.000 OA
ENDROOT
BRANCH   8  13
ATOM     13  C   UNL     1       7.118   5.633  18.928  0.00  0.00    +0.000 C 
BRANCH  13  14
ATOM     14  O   UNL     1       7.092   6.444  17.748  0.00  0.00    +0.000 OA
BRANCH  14  15
ATOM     15  C   UNL     1       6.588   5.849  16.627  0.00  0.00    +0.000 A 
ATOM     16  C   UNL     1       7.247   4.683  16.233  0.00  0.00    +0.000 A 
ATOM     17  C   UNL     1       6.825   3.982  15.103  0.00  0.00    +0.000 A 
ATOM     18  C   UNL     1       5.730   4.437  14.371  0.00  0.00    +0.000 A 
ATOM     19  C   UNL     1       5.055   5.588  14.775  0.00  0.00    +0.000 A 
ATOM     20  C   UNL     1       5.481   6.293  15.903  0.00  0.00    +0.000 A 
ENDBRANCH  14  15
ENDBRANCH  13  14
ENDBRANCH   8  13
TORSDOF 3
ENDMDL
