MODEL 1
REMARK VINA RESULT:      -7.1      0.000      0.000
REMARK  Name = 
REMARK  4 active torsions:
REMARK  status: ('A' for Active; 'I' for Inactive)
REMARK    1  A    between atoms: N_2  and  C_4
REMARK    2  A    between atoms: C_4  and  C_13
REMARK    3  A    between atoms: C_5  and  C_6
REMARK    4  A    between atoms: C_13  and  C_14
REMARK                            x       y       z     vdW  Elec       q    Type
REMARK                         _______ _______ _______ _____ _____    ______ ____
ROOT
ATOM      1  C   UNL     1       3.262   4.969  18.264  0.00  0.00    +0.000 C 
ATOM      2  C   UNL     1       3.511   6.288  18.382  0.00  0.00    +0.000 C 
ENDROOT
BRANCH   2   3
ATOM      3  C   UNL     1       2.568   7.356  18.728  0.00  0.00    +0.000 A 
ATOM      4  C   UNL     1       2.118   7.499  20.047  0.00  0.00    +0.000 A 
ATOM      5  C   UNL     1       1.230   8.525  20.380  0.00  0.00    +0.000 A 
ATOM      6  C   UNL     1       0.796   9.414  19.399  0.00  0.00    +0.000 A 
ATOM      7 CL   UNL     1      -0.323  10.656  19.803  0.00  0.00    +0.000 Cl
ATOM      8  C   UNL     1       1.262   9.297  18.090  0.00  0.00    +0.000 A 
ATOM      9  C   UNL     1       2.146   8.269  17.754  0.00  0.00    +0.000 A 
ENDBRANCH   2   3
BRANCH   1  11
ATOM     10  O   UNL     1       1.541   4.157  19.538  0.00  0.00    +0.000 OA
ATOM     11  N   UNL     1       1.903   4.501  18.408  0.00  0.00    +0.000 N 
ATOM     12  O   UNL     1       1.236   4.420  17.369  0.00  0.00    +0.000 OA
ENDBRANCH   1  11
BRANCH   1  13
ATOM     13  C   UNL     1       4.226   3.888  17.898  0.00  0.00    +0.000 C 
BRANCH  13  14
ATOM     14  C   UNL     1       5.129   4.276  16.745  0.00  0.00    +0.000 A 
ATOM     15  C   UNL     1       4.644   4.270  15.429  0.00  0.00    +0.000 A 
ATOM     16  C   UNL     1       5.499   4.537  14.358  0.00  0.00    +0.000 A 
ATOM     17  C   UNL     1       6.843   4.813  14.595  0.00  0.00    +0.000 A 
ATOM     18 CL   UNL     1       7.905   5.102  13.272  0.00  0.00    +0.000 Cl
ATOM     19  C   UNL     1       7.336   4.844  15.898  0.00  0.00    +0.000 A 
ATOM     20  C   UNL     1       6.483   4.578  16.970  0.00  0.00    +0.000 A 
ENDBRANCH  13  14
ENDBRANCH   1  13
TORSDOF 4
ENDMDL
MODEL 2
REMARK VINA RESULT:      -7.1      0.182      1.299
REMARK  Name = 
REMARK  4 active torsions:
REMARK  status: ('A' for Active; 'I' for Inactive)
REMARK    1  A    between atoms: N_2  and  C_4
REMARK    2  A    between atoms: C_4  and  C_13
REMARK    3  A    between atoms: C_5  and  C_6
REMARK    4  A    between atoms: C_13  and  C_14
REMARK                            x       y       z     vdW  Elec       q    Type
REMARK                         _______ _______ _______ _____ _____    ______ ____
ROOT
ATOM      1  C   UNL     1       3.329   4.941  18.349  0.00  0.00    +0.000 C 
ATOM      2  C   UNL     1       3.594   6.258  18.458  0.00  0.00    +0.000 C 
ENDROOT
BRANCH   2   3
ATOM      3  C   UNL     1       2.649   7.351  18.708  0.00  0.00    +0.000 A 
ATOM      4  C   UNL     1       2.109   7.536  19.987  0.00  0.00    +0.000 A 
ATOM      5  C   UNL     1       1.218   8.586  20.228  0.00  0.00    +0.000 A 
ATOM      6  C   UNL     1       0.871   9.454  19.195  0.00  0.00    +0.000 A 
ATOM      7 CL   UNL     1      -0.251  10.725  19.485  0.00  0.00    +0.000 Cl
ATOM      8  C   UNL     1       1.427   9.295  17.927  0.00  0.00    +0.000 A 
ATOM      9  C   UNL     1       2.314   8.243  17.683  0.00  0.00    +0.000 A 
ENDBRANCH   2   3
BRANCH   1  11
ATOM     10  O   UNL     1       1.316   4.528  17.340  0.00  0.00    +0.000 OA
ATOM     11  N   UNL     1       1.955   4.502  18.398  0.00  0.00    +0.000 N 
ATOM     12  O   UNL     1       1.511   4.201  19.512  0.00  0.00    +0.000 OA
ENDBRANCH   1  11
BRANCH   1  13
ATOM     13  C   UNL     1       4.298   3.836  18.082  0.00  0.00    +0.000 C 
BRANCH  13  14
ATOM     14  C   UNL     1       5.203   4.124  16.902  0.00  0.00    +0.000 A 
ATOM     15  C   UNL     1       6.536   4.511  17.106  0.00  0.00    +0.000 A 
ATOM     16  C   UNL     1       7.343   4.867  16.024  0.00  0.00    +0.000 A 
ATOM     17  C   UNL     1       6.825   4.837  14.732  0.00  0.00    +0.000 A 
ATOM     18 CL   UNL     1       7.808   5.314  13.403  0.00  0.00    +0.000 Cl
ATOM     19  C   UNL     1       5.510   4.434  14.510  0.00  0.00    +0.000 A 
ATOM     20  C   UNL     1       4.700   4.078  15.591  0.00  0.00    +0.000 A 
ENDBRANCH  13  14
ENDBRANCH   1  13
TORSDOF 4
ENDMDL
MODEL 3
REMARK VINA RESULT:      -7.0      0.248      1.696
REMARK  Name = 
REMARK  4 active torsions:
REMARK  status: ('A' for Active; 'I' for Inactive)
REMARK    1  A    between atoms: N_2  and  C_4
REMARK    2  A    between atoms: C_4  and  C_13
REMARK    3  A    between atoms: C_5  and  C_6
REMARK    4  A    between atoms: C_13  and  C_14
REMARK                            x       y       z     vdW  Elec       q    Type
REMARK                         _______ _______ _______ _____ _____    ______ ____
ROOT
ATOM      1  C   UNL     1       3.266   4.983  18.485  0.00  0.00    +0.000 C 
ATOM      2  C   UNL     1       3.538   6.297  18.609  0.00  0.00    +0.000 C 
ENDROOT
BRANCH   2   3
ATOM      3  C   UNL     1       2.594   7.396  18.832  0.00  0.00    +0.000 A 
ATOM      4  C   UNL     1       2.201   8.214  17.765  0.00  0.00    +0.000 A 
ATOM      5  C   UNL     1       1.291   9.254  17.975  0.00  0.00    +0.000 A 
ATOM      6  C   UNL     1       0.768   9.474  19.248  0.00  0.00    +0.000 A 
ATOM      7 CL   UNL     1      -0.326  10.775  19.512  0.00  0.00    +0.000 Cl
ATOM      8  C   UNL     1       1.131   8.646  20.309  0.00  0.00    +0.000 A 
ATOM      9  C   UNL     1       2.045   7.609  20.102  0.00  0.00    +0.000 A 
ENDBRANCH   2   3
BRANCH   1  11
ATOM     10  O   UNL     1       1.304   4.530  17.395  0.00  0.00    +0.000 OA
ATOM     11  N   UNL     1       1.887   4.555  18.484  0.00  0.00    +0.000 N 
ATOM     12  O   UNL     1       1.385   4.314  19.589  0.00  0.00    +0.000 OA
ENDBRANCH   1  11
BRANCH   1  13
ATOM     13  C   UNL     1       4.234   3.870  18.245  0.00  0.00    +0.000 C 
BRANCH  13  14
ATOM     14  C   UNL     1       5.139   4.128  17.057  0.00  0.00    +0.000 A 
ATOM     15  C   UNL     1       6.483   4.480  17.250  0.00  0.00    +0.000 A 
ATOM     16  C   UNL     1       7.292   4.808  16.161  0.00  0.00    +0.000 A 
ATOM     17  C   UNL     1       6.764   4.786  14.872  0.00  0.00    +0.000 A 
ATOM     18 CL   UNL     1       7.750   5.229  13.534  0.00  0.00    +0.000 Cl
ATOM     19  C   UNL     1       5.437   4.418  14.662  0.00  0.00    +0.000 A 
ATOM     20  C   UNL     1       4.626   4.089  15.750  0.00  0.00    +0.000 A 
ENDBRANCH  13  14
ENDBRANCH   1  13
TORSDOF 4
ENDMDL
MODEL 4
REMARK VINA RESULT:      -7.0      0.147      1.091
REMARK  Name = 
REMARK  4 active torsions:
REMARK  status: ('A' for Active; 'I' for Inactive)
REMARK    1  A    between atoms: N_2  and  C_4
REMARK    2  A    between atoms: C_4  and  C_13
REMARK    3  A    between atoms: C_5  and  C_6
REMARK    4  A    between atoms: C_13  and  C_14
REMARK                            x       y       z     vdW  Elec       q    Type
REMARK                         _______ _______ _______ _____ _____    ______ ____
ROOT
ATOM      1  C   UNL     1       3.263   4.890  18.130  0.00  0.00    +0.000 C 
ATOM      2  C   UNL     1       3.543   6.201  18.267  0.00  0.00    +0.000 C 
ENDROOT
BRANCH   2   3
ATOM      3  C   UNL     1       2.637   7.279  18.674  0.00  0.00    +0.000 A 
ATOM      4  C   UNL     1       2.171   8.202  17.729  0.00  0.00    +0.000 A 
ATOM      5  C   UNL     1       1.297   9.222  18.114  0.00  0.00    +0.000 A 
ATOM      6  C   UNL     1       0.882   9.318  19.441  0.00  0.00    +0.000 A 
ATOM      7 CL   UNL     1      -0.167  10.594  19.920  0.00  0.00    +0.000 Cl
ATOM      8  C   UNL     1       1.318   8.386  20.382  0.00  0.00    +0.000 A 
ATOM      9  C   UNL     1       2.195   7.368  19.999  0.00  0.00    +0.000 A 
ENDBRANCH   2   3
BRANCH   1  11
ATOM     10  O   UNL     1       1.579   4.076  19.450  0.00  0.00    +0.000 OA
ATOM     11  N   UNL     1       1.901   4.446  18.316  0.00  0.00    +0.000 N 
ATOM     12  O   UNL     1       1.191   4.408  17.304  0.00  0.00    +0.000 OA
ENDBRANCH   1  11
BRANCH   1  13
ATOM     13  C   UNL     1       4.190   3.799  17.702  0.00  0.00    +0.000 C 
BRANCH  13  14
ATOM     14  C   UNL     1       5.113   4.224  16.578  0.00  0.00    +0.000 A 
ATOM     15  C   UNL     1       4.681   4.171  15.245  0.00  0.00    +0.000 A 
ATOM     16  C   UNL     1       5.561   4.473  14.203  0.00  0.00    +0.000 A 
ATOM     17  C   UNL     1       6.876   4.831  14.487  0.00  0.00    +0.000 A 
ATOM     18 CL   UNL     1       7.970   5.164  13.202  0.00  0.00    +0.000 Cl
ATOM     19  C   UNL     1       7.314   4.910  15.807  0.00  0.00    +0.000 A 
ATOM     20  C   UNL     1       6.437   4.608  16.850  0.00  0.00    +0.000 A 
ENDBRANCH  13  14
ENDBRANCH   1  13
TORSDOF 4
ENDMDL
MODEL 5
REMARK VINA RESULT:      -6.4      0.663      1.442
REMARK  Name = 
REMARK  4 active torsions:
REMARK  status: ('A' for Active; 'I' for Inactive)
REMARK    1  A    between atoms: N_2  and  C_4
REMARK    2  A    between atoms: C_4  and  C_13
REMARK    3  A    between atoms: C_5  and  C_6
REMARK    4  A    between atoms: C_13  and  C_14
REMARK                            x       y       z     vdW  Elec       q    Type
REMARK                         _______ _______ _______ _____ _____    ______ ____
ROOT
ATOM      1  C   UNL     1       3.277   5.265  18.947  0.00  0.00    +0.000 C 
ATOM      2  C   UNL     1       3.432   6.583  19.182  0.00  0.00    +0.000 C 
ENDROOT
BRANCH   2   3
ATOM      3  C   UNL     1       2.387   7.595  19.364  0.00  0.00    +0.000 A 
ATOM      4  C   UNL     1       2.003   8.412  18.293  0.00  0.00    +0.000 A 
ATOM      5  C   UNL     1       0.999   9.369  18.462  0.00  0.00    +0.000 A 
ATOM      6  C   UNL     1       0.372   9.506  19.699  0.00  0.00    +0.000 A 
ATOM      7 CL   UNL     1      -0.840  10.706  19.916  0.00  0.00    +0.000 Cl
ATOM      8  C   UNL     1       0.727   8.678  20.762  0.00  0.00    +0.000 A 
ATOM      9  C   UNL     1       1.735   7.724  20.596  0.00  0.00    +0.000 A 
ENDBRANCH   2   3
BRANCH   1  11
ATOM     10  O   UNL     1       1.484   4.758  17.616  0.00  0.00    +0.000 OA
ATOM     11  N   UNL     1       1.943   4.743  18.763  0.00  0.00    +0.000 N 
ATOM     12  O   UNL     1       1.345   4.387  19.786  0.00  0.00    +0.000 OA
ENDBRANCH   1  11
BRANCH   1  13
ATOM     13  C   UNL     1       4.348   4.242  18.750  0.00  0.00    +0.000 C 
BRANCH  13  14
ATOM     14  C   UNL     1       5.177   4.495  17.508  0.00  0.00    +0.000 A 
ATOM     15  C   UNL     1       4.555   4.671  16.262  0.00  0.00    +0.000 A 
ATOM     16  C   UNL     1       5.320   4.812  15.103  0.00  0.00    +0.000 A 
ATOM     17  C   UNL     1       6.710   4.777  15.181  0.00  0.00    +0.000 A 
ATOM     18 CL   UNL     1       7.652   4.909  13.746  0.00  0.00    +0.000 Cl
ATOM     19  C   UNL     1       7.343   4.624  16.412  0.00  0.00    +0.000 A 
ATOM     20  C   UNL     1       6.580   4.484  17.573  0.00  0.00    +0.000 A 
ENDBRANCH  13  14
ENDBRANCH   1  13
TORSDOF 4
ENDMDL
MODEL 6
REMARK VINA RESULT:      -6.4      1.861      2.140
REMARK  Name = 
REMARK  4 active torsions:
REMARK  status: ('A' for Active; 'I' for Inactive)
REMARK    1  A    between atoms: N_2  and  C_4
REMARK    2  A    between atoms: C_4  and  C_13
REMARK    3  A    between atoms: C_5  and  C_6
REMARK    4  A    between atoms: C_13  and  C_14
REMARK                            x       y       z     vdW  Elec       q    Type
REMARK                         _______ _______ _______ _____ _____    ______ ____
ROOT
ATOM      1  C   UNL     1       4.210   4.162  17.910  0.00  0.00    +0.000 C 
ATOM      2  C   UNL     1       3.103   4.920  17.780  0.00  0.00    +0.000 C 
ENDROOT
BRANCH   2   3
ATOM      3  C   UNL     1       2.543   5.871  18.745  0.00  0.00    +0.000 A 
ATOM      4  C   UNL     1       2.052   5.419  19.976  0.00  0.00    +0.000 A 
ATOM      5  C   UNL     1       1.530   6.327  20.901  0.00  0.00    +0.000 A 
ATOM      6  C   UNL     1       1.503   7.687  20.601  0.00  0.00    +0.000 A 
ATOM      7 CL   UNL     1       0.829   8.800  21.726  0.00  0.00    +0.000 Cl
ATOM      8  C   UNL     1       2.016   8.149  19.390  0.00  0.00    +0.000 A 
ATOM      9  C   UNL     1       2.534   7.242  18.462  0.00  0.00    +0.000 A 
ENDBRANCH   2   3
BRANCH   1  11
ATOM     10  O   UNL     1       5.581   5.207  19.417  0.00  0.00    +0.000 OA
ATOM     11  N   UNL     1       4.928   4.189  19.162  0.00  0.00    +0.000 N 
ATOM     12  O   UNL     1       4.885   3.158  19.844  0.00  0.00    +0.000 OA
ENDBRANCH   1  11
BRANCH   1  13
ATOM     13  C   UNL     1       4.767   3.186  16.926  0.00  0.00    +0.000 C 
BRANCH  13  14
ATOM     14  C   UNL     1       5.585   3.853  15.840  0.00  0.00    +0.000 A 
ATOM     15  C   UNL     1       5.298   3.617  14.487  0.00  0.00    +0.000 A 
ATOM     16  C   UNL     1       6.109   4.157  13.487  0.00  0.00    +0.000 A 
ATOM     17  C   UNL     1       7.210   4.937  13.831  0.00  0.00    +0.000 A 
ATOM     18 CL   UNL     1       8.232   5.568  12.599  0.00  0.00    +0.000 Cl
ATOM     19  C   UNL     1       7.495   5.199  15.169  0.00  0.00    +0.000 A 
ATOM     20  C   UNL     1       6.686   4.660  16.171  0.00  0.00    +0.000 A 
ENDBRANCH  13  14
ENDBRANCH   1  13
TORSDOF 4
ENDMDL
MODEL 7
REMARK VINA RESULT:      -6.3      1.103      6.840
REMARK  Name = 
REMARK  4 active torsions:
REMARK  status: ('A' for Active; 'I' for Inactive)
REMARK    1  A    between atoms: N_2  and  C_4
REMARK    2  A    between atoms: C_4  and  C_13
REMARK    3  A    between atoms: C_5  and  C_6
REMARK    4  A    between atoms: C_13  and  C_14
REMARK                            x       y       z     vdW  Elec       q    Type
REMARK                         _______ _______ _______ _____ _____    ______ ____
ROOT
ATOM      1  C   UNL     1       3.031   5.606  18.991  0.00  0.00    +0.000 C 
ATOM      2  C   UNL     1       4.208   5.922  18.417  0.00  0.00    +0.000 C 
ENDROOT
BRANCH   2   3
ATOM      3  C   UNL     1       4.775   5.395  17.171  0.00  0.00    +0.000 A 
ATOM      4  C   UNL     1       4.950   6.237  16.066  0.00  0.00    +0.000 A 
ATOM      5  C   UNL     1       5.502   5.738  14.883  0.00  0.00    +0.000 A 
ATOM      6  C   UNL     1       5.887   4.401  14.805  0.00  0.00    +0.000 A 
ATOM      7 CL   UNL     1       6.535   3.780  13.338  0.00  0.00    +0.000 Cl
ATOM      8  C   UNL     1       5.743   3.564  15.910  0.00  0.00    +0.000 A 
ATOM      9  C   UNL     1       5.187   4.060  17.092  0.00  0.00    +0.000 A 
ENDBRANCH   2   3
BRANCH   1  11
ATOM     10  O   UNL     1       1.416   4.916  17.522  0.00  0.00    +0.000 OA
ATOM     11  N   UNL     1       2.221   4.570  18.393  0.00  0.00    +0.000 N 
ATOM     12  O   UNL     1       2.355   3.431  18.856  0.00  0.00    +0.000 OA
ENDBRANCH   1  11
BRANCH   1  13
ATOM     13  C   UNL     1       2.467   6.139  20.267  0.00  0.00    +0.000 C 
BRANCH  13  14
ATOM     14  C   UNL     1       1.878   7.527  20.112  0.00  0.00    +0.000 A 
ATOM     15  C   UNL     1       1.198   8.134  21.178  0.00  0.00    +0.000 A 
ATOM     16  C   UNL     1       0.575   9.371  21.007  0.00  0.00    +0.000 A 
ATOM     17  C   UNL     1       0.629  10.010  19.771  0.00  0.00    +0.000 A 
ATOM     18 CL   UNL     1      -0.173  11.517  19.550  0.00  0.00    +0.000 Cl
ATOM     19  C   UNL     1       1.318   9.431  18.709  0.00  0.00    +0.000 A 
ATOM     20  C   UNL     1       1.942   8.193  18.877  0.00  0.00    +0.000 A 
ENDBRANCH  13  14
ENDBRANCH   1  13
TORSDOF 4
ENDMDL
MODEL 8
REMARK VINA RESULT:      -6.3      1.894      2.380
REMARK  Name = 
REMARK  4 active torsions:
REMARK  status: ('A' for Active; 'I' for Inactive)
REMARK    1  A    between atoms: N_2  and  C_4
REMARK    2  A    between atoms: C_4  and  C_13
REMARK    3  A    between atoms: C_5  and  C_6
REMARK    4  A    between atoms: C_13  and  C_14
REMARK                            x       y       z     vdW  Elec       q    Type
REMARK                         _______ _______ _______ _____ _____    ______ ____
ROOT
ATOM      1  C   UNL     1       4.270   4.138  17.842  0.00  0.00    +0.000 C 
ATOM      2  C   UNL     1       3.156   4.890  17.743  0.00  0.00    +0.000 C 
ENDROOT
BRANCH   2   3
ATOM      3  C   UNL     1       2.609   5.826  18.730  0.00  0.00    +0.000 A 
ATOM      4  C   UNL     1       2.559   7.197  18.448  0.00  0.00    +0.000 A 
ATOM      5  C   UNL     1       2.026   8.088  19.383  0.00  0.00    +0.000 A 
ATOM      6  C   UNL     1       1.537   7.611  20.598  0.00  0.00    +0.000 A 
ATOM      7 CL   UNL     1       0.912   8.712  21.761  0.00  0.00    +0.000 Cl
ATOM      8  C   UNL     1       1.556   6.245  20.874  0.00  0.00    +0.000 A 
ATOM      9  C   UNL     1       2.093   5.353  19.942  0.00  0.00    +0.000 A 
ENDBRANCH   2   3
BRANCH   1  11
ATOM     10  O   UNL     1       4.927   3.157  19.804  0.00  0.00    +0.000 OA
ATOM     11  N   UNL     1       5.013   4.155  19.080  0.00  0.00    +0.000 N 
ATOM     12  O   UNL     1       5.621   5.199  19.343  0.00  0.00    +0.000 OA
ENDBRANCH   1  11
BRANCH   1  13
ATOM     13  C   UNL     1       4.813   3.176  16.836  0.00  0.00    +0.000 C 
BRANCH  13  14
ATOM     14  C   UNL     1       5.636   3.857  15.762  0.00  0.00    +0.000 A 
ATOM     15  C   UNL     1       5.430   3.552  14.408  0.00  0.00    +0.000 A 
ATOM     16  C   UNL     1       6.250   4.108  13.425  0.00  0.00    +0.000 A 
ATOM     17  C   UNL     1       7.279   4.974  13.787  0.00  0.00    +0.000 A 
ATOM     18 CL   UNL     1       8.314   5.627  12.578  0.00  0.00    +0.000 Cl
ATOM     19  C   UNL     1       7.483   5.303  15.124  0.00  0.00    +0.000 A 
ATOM     20  C   UNL     1       6.664   4.748  16.110  0.00  0.00    +0.000 A 
ENDBRANCH  13  14
ENDBRANCH   1  13
TORSDOF 4
ENDMDL
MODEL 9
REMARK VINA RESULT:      -6.3      1.783      2.490
REMARK  Name = 
REMARK  4 active torsions:
REMARK  status: ('A' for Active; 'I' for Inactive)
REMARK    1  A    between atoms: N_2  and  C_4
REMARK    2  A    between atoms: C_4  and  C_13
REMARK    3  A    between atoms: C_5  and  C_6
REMARK    4  A    between atoms: C_13  and  C_14
REMARK                            x       y       z     vdW  Elec       q    Type
REMARK                         _______ _______ _______ _____ _____    ______ ____
ROOT
ATOM      1  C   UNL     1       4.160   4.250  17.874  0.00  0.00    +0.000 C 
ATOM      2  C   UNL     1       3.083   5.044  17.716  0.00  0.00    +0.000 C 
ENDROOT
BRANCH   2   3
ATOM      3  C   UNL     1       2.578   6.073  18.631  0.00  0.00    +0.000 A 
ATOM      4  C   UNL     1       2.518   7.411  18.222  0.00  0.00    +0.000 A 
ATOM      5  C   UNL     1       2.025   8.389  19.089  0.00  0.00    +0.000 A 
ATOM      6  C   UNL     1       1.585   8.032  20.362  0.00  0.00    +0.000 A 
ATOM      7 CL   UNL     1       1.010   9.242  21.441  0.00  0.00    +0.000 Cl
ATOM      8  C   UNL     1       1.614   6.698  20.767  0.00  0.00    +0.000 A 
ATOM      9  C   UNL     1       2.111   5.719  19.902  0.00  0.00    +0.000 A 
ENDBRANCH   2   3
BRANCH   1  11
ATOM     10  O   UNL     1       5.533   5.360  19.332  0.00  0.00    +0.000 OA
ATOM     11  N   UNL     1       4.901   4.321  19.111  0.00  0.00    +0.000 N 
ATOM     12  O   UNL     1       4.897   3.304  19.814  0.00  0.00    +0.000 OA
ENDBRANCH   1  11
BRANCH   1  13
ATOM     13  C   UNL     1       4.660   3.196  16.941  0.00  0.00    +0.000 C 
BRANCH  13  14
ATOM     14  C   UNL     1       5.596   3.746  15.884  0.00  0.00    +0.000 A 
ATOM     15  C   UNL     1       6.707   4.519  16.253  0.00  0.00    +0.000 A 
ATOM     16  C   UNL     1       7.517   5.103  15.277  0.00  0.00    +0.000 A 
ATOM     17  C   UNL     1       7.223   4.918  13.929  0.00  0.00    +0.000 A 
ATOM     18 CL   UNL     1       8.198   5.671  12.728  0.00  0.00    +0.000 Cl
ATOM     19  C   UNL     1       6.137   4.135  13.547  0.00  0.00    +0.000 A 
ATOM     20  C   UNL     1       5.325   3.549  14.520  0.00  0.00    +0.000 A 
ENDBRANCH  13  14
ENDBRANCH   1  13
TORSDOF 4
ENDMDL
