MODEL 1
REMARK VINA RESULT:      -6.7      0.000      0.000
REMARK  Name = 
REMARK  7 active torsions:
REMARK  status: ('A' for Active; 'I' for Inactive)
REMARK    1  A    between atoms: C_1  and  N_2
REMARK    2  A    between atoms: N_2  and  C_3
REMARK    3  A    between atoms: N_2  and  C_4
REMARK    4  A    between atoms: C_4  and  C_5
REMARK    5  A    between atoms: C_5  and  N_6
REMARK    6  A    between atoms: C_16  and  C_18
REMARK    7  A    between atoms: N_21  and  C_22
REMARK                            x       y       z     vdW  Elec       q    Type
REMARK                         _______ _______ _______ _____ _____    ______ ____
ROOT
ATOM      1  N   UNL     1       4.049   3.920  18.424  0.00  0.00    +0.000 N 
ATOM      2  C   UNL     1       3.546   5.178  17.912  0.00  0.00    +0.000 C 
ATOM      3  C   UNL     1       2.046   5.316  18.215  0.00  0.00    +0.000 C 
ATOM      4  C   UNL     1       1.348   4.098  17.568  0.00  0.00    +0.000 C 
ATOM      5  C   UNL     1       1.957   2.761  17.979  0.00  0.00    +0.000 C 
ATOM      6  C   UNL     1       3.472   2.725  18.032  0.00  0.00    +0.000 C 
ATOM      7  O   UNL     1       4.097   1.672  17.948  0.00  0.00    +0.000 OA
ATOM      8  C   UNL     1       1.789   5.373  19.746  0.00  0.00    +0.000 C 
ATOM      9  C   UNL     1       2.339   6.652  20.383  0.00  0.00    +0.000 C 
ATOM     10  N   UNL     1       1.825   7.829  19.695  0.00  0.00    +0.000 N 
ATOM     11  C   UNL     1       1.397   8.919  20.465  0.00  0.00    +0.000 C 
ATOM     12  O   UNL     1       1.545   8.940  21.689  0.00  0.00    +0.000 OA
ATOM     13  C   UNL     1       2.065   7.860  18.250  0.00  0.00    +0.000 C 
ATOM     14  C   UNL     1       1.490   6.612  17.584  0.00  0.00    +0.000 C 
ENDROOT
BRANCH  11  15
ATOM     15  C   UNL     1       0.775  10.073  19.785  0.00  0.00    +0.000 A 
ATOM     16  C   UNL     1      -0.579  10.163  19.351  0.00  0.00    +0.000 A 
ATOM     17  C   UNL     1      -0.713  11.429  18.831  0.00  0.00    +0.000 A 
ATOM     18  N   UNL     1       0.516  12.006  18.939  0.00  0.00    +0.000 N 
ATOM     19  C   UNL     1       0.885  13.365  18.627  0.00  0.00    +0.000 C 
ATOM     20  N   UNL     1       1.450  11.186  19.439  0.00  0.00    +0.000 NA
ENDBRANCH  11  15
BRANCH   1  21
ATOM     21  C   UNL     1       5.226   3.904  19.275  0.00  0.00    +0.000 C 
BRANCH  21  22
ATOM     22  C   UNL     1       5.995   5.222  19.322  0.00  0.00    +0.000 C 
BRANCH  22  24
ATOM     23  C   UNL     1       7.388   4.570  17.430  0.00  0.00    +0.000 C 
ATOM     24  N   UNL     1       7.373   5.117  18.792  0.00  0.00    +0.000 NA
ATOM     25  C   UNL     1       7.991   6.446  18.790  0.00  0.00    +0.000 C 
ENDBRANCH  22  24
ENDBRANCH  21  22
ENDBRANCH   1  21
TORSDOF 4
ENDMDL
MODEL 2
REMARK VINA RESULT:      -6.6      0.736      1.020
REMARK  Name = 
REMARK  7 active torsions:
REMARK  status: ('A' for Active; 'I' for Inactive)
REMARK    1  A    between atoms: C_1  and  N_2
REMARK    2  A    between atoms: N_2  and  C_3
REMARK    3  A    between atoms: N_2  and  C_4
REMARK    4  A    between atoms: C_4  and  C_5
REMARK    5  A    between atoms: C_5  and  N_6
REMARK    6  A    between atoms: C_16  and  C_18
REMARK    7  A    between atoms: N_21  and  C_22
REMARK                            x       y       z     vdW  Elec       q    Type
REMARK                         _______ _______ _______ _____ _____    ______ ____
ROOT
ATOM      1  N   UNL     1       4.116   4.118  18.350  0.00  0.00    +0.000 N 
ATOM      2  C   UNL     1       3.597   5.395  17.904  0.00  0.00    +0.000 C 
ATOM      3  C   UNL     1       2.091   5.490  18.198  0.00  0.00    +0.000 C 
ATOM      4  C   UNL     1       1.422   4.298  17.475  0.00  0.00    +0.000 C 
ATOM      5  C   UNL     1       2.051   2.951  17.816  0.00  0.00    +0.000 C 
ATOM      6  C   UNL     1       3.565   2.938  17.885  0.00  0.00    +0.000 C 
ATOM      7  O   UNL     1       4.210   1.902  17.747  0.00  0.00    +0.000 OA
ATOM      8  C   UNL     1       1.818   5.455  19.726  0.00  0.00    +0.000 C 
ATOM      9  C   UNL     1       2.339   6.704  20.442  0.00  0.00    +0.000 C 
ATOM     10  N   UNL     1       1.810   7.910  19.816  0.00  0.00    +0.000 N 
ATOM     11  C   UNL     1       1.356   8.947  20.642  0.00  0.00    +0.000 C 
ATOM     12  O   UNL     1       1.490   8.901  21.867  0.00  0.00    +0.000 OA
ATOM     13  C   UNL     1       2.065   8.027  18.378  0.00  0.00    +0.000 C 
ATOM     14  C   UNL     1       1.520   6.810  17.635  0.00  0.00    +0.000 C 
ENDROOT
BRANCH  11  15
ATOM     15  C   UNL     1       0.720  10.127  20.021  0.00  0.00    +0.000 A 
ATOM     16  C   UNL     1       1.294  11.427  19.905  0.00  0.00    +0.000 A 
ATOM     17  C   UNL     1       0.369  12.173  19.213  0.00  0.00    +0.000 A 
ATOM     18  N   UNL     1      -0.684  11.340  18.984  0.00  0.00    +0.000 N 
ATOM     19  C   UNL     1      -1.871  11.608  18.210  0.00  0.00    +0.000 C 
ATOM     20  N   UNL     1      -0.532  10.125  19.527  0.00  0.00    +0.000 NA
ENDBRANCH  11  15
BRANCH   1  21
ATOM     21  C   UNL     1       5.285   4.074  19.212  0.00  0.00    +0.000 C 
BRANCH  21  22
ATOM     22  C   UNL     1       6.048   5.393  19.318  0.00  0.00    +0.000 C 
BRANCH  22  24
ATOM     23  C   UNL     1       7.552   4.541  17.598  0.00  0.00    +0.000 C 
ATOM     24  N   UNL     1       7.449   5.299  18.851  0.00  0.00    +0.000 NA
ATOM     25  C   UNL     1       7.980   6.650  18.648  0.00  0.00    +0.000 C 
ENDBRANCH  22  24
ENDBRANCH  21  22
ENDBRANCH   1  21
TORSDOF 4
ENDMDL
MODEL 3
REMARK VINA RESULT:      -6.1      2.724      7.987
REMARK  Name = 
REMARK  7 active torsions:
REMARK  status: ('A' for Active; 'I' for Inactive)
REMARK    1  A    between atoms: C_1  and  N_2
REMARK    2  A    between atoms: N_2  and  C_3
REMARK    3  A    between atoms: N_2  and  C_4
REMARK    4  A    between atoms: C_4  and  C_5
REMARK    5  A    between atoms: C_5  and  N_6
REMARK    6  A    between atoms: C_16  and  C_18
REMARK    7  A    between atoms: N_21  and  C_22
REMARK                            x       y       z     vdW  Elec       q    Type
REMARK                         _______ _______ _______ _____ _____    ______ ____
ROOT
ATOM      1  N   UNL     1       1.041  12.540  19.074  0.00  0.00    +0.000 N 
ATOM      2  C   UNL     1       1.146  11.359  19.906  0.00  0.00    +0.000 C 
ATOM      3  C   UNL     1       0.281  10.224  19.334  0.00  0.00    +0.000 C 
ATOM      4  C   UNL     1      -1.166  10.764  19.260  0.00  0.00    +0.000 C 
ATOM      5  C   UNL     1      -1.282  12.089  18.512  0.00  0.00    +0.000 C 
ATOM      6  C   UNL     1      -0.195  13.102  18.812  0.00  0.00    +0.000 C 
ATOM      7  O   UNL     1      -0.361  14.304  18.620  0.00  0.00    +0.000 OA
ATOM      8  C   UNL     1       0.796   9.781  17.937  0.00  0.00    +0.000 C 
ATOM      9  C   UNL     1       2.166   9.102  18.008  0.00  0.00    +0.000 C 
ATOM     10  N   UNL     1       2.141   8.000  18.961  0.00  0.00    +0.000 N 
ATOM     11  C   UNL     1       2.768   6.796  18.607  0.00  0.00    +0.000 C 
ATOM     12  O   UNL     1       3.418   6.691  17.565  0.00  0.00    +0.000 OA
ATOM     13  C   UNL     1       1.701   8.355  20.312  0.00  0.00    +0.000 C 
ATOM     14  C   UNL     1       0.317   8.999  20.274  0.00  0.00    +0.000 C 
ENDROOT
BRANCH  11  15
ATOM     15  C   UNL     1       2.657   5.639  19.518  0.00  0.00    +0.000 A 
ATOM     16  C   UNL     1       1.646   5.438  20.503  0.00  0.00    +0.000 A 
ATOM     17  C   UNL     1       1.918   4.210  21.059  0.00  0.00    +0.000 A 
ATOM     18  N   UNL     1       3.045   3.763  20.439  0.00  0.00    +0.000 N 
ATOM     19  C   UNL     1       3.688   2.481  20.590  0.00  0.00    +0.000 C 
ATOM     20  N   UNL     1       3.555   4.637  19.562  0.00  0.00    +0.000 NA
ENDBRANCH  11  15
BRANCH   1  21
ATOM     21  C   UNL     1       2.245  13.196  18.594  0.00  0.00    +0.000 C 
BRANCH  21  22
ATOM     22  C   UNL     1       2.997  14.000  19.652  0.00  0.00    +0.000 C 
BRANCH  22  24
ATOM     23  C   UNL     1       5.084  14.893  18.761  0.00  0.00    +0.000 C 
ATOM     24  N   UNL     1       3.687  15.189  19.103  0.00  0.00    +0.000 NA
ATOM     25  C   UNL     1       2.979  15.646  17.904  0.00  0.00    +0.000 C 
ENDBRANCH  22  24
ENDBRANCH  21  22
ENDBRANCH   1  21
TORSDOF 4
ENDMDL
MODEL 4
REMARK VINA RESULT:      -6.0      2.685      8.017
REMARK  Name = 
REMARK  7 active torsions:
REMARK  status: ('A' for Active; 'I' for Inactive)
REMARK    1  A    between atoms: C_1  and  N_2
REMARK    2  A    between atoms: N_2  and  C_3
REMARK    3  A    between atoms: N_2  and  C_4
REMARK    4  A    between atoms: C_4  and  C_5
REMARK    5  A    between atoms: C_5  and  N_6
REMARK    6  A    between atoms: C_16  and  C_18
REMARK    7  A    between atoms: N_21  and  C_22
REMARK                            x       y       z     vdW  Elec       q    Type
REMARK                         _______ _______ _______ _____ _____    ______ ____
ROOT
ATOM      1  N   UNL     1       0.970  12.522  19.945  0.00  0.00    +0.000 N 
ATOM      2  C   UNL     1       1.090  11.182  20.482  0.00  0.00    +0.000 C 
ATOM      3  C   UNL     1       0.267  10.194  19.640  0.00  0.00    +0.000 C 
ATOM      4  C   UNL     1      -1.192  10.705  19.658  0.00  0.00    +0.000 C 
ATOM      5  C   UNL     1      -1.329  12.165  19.236  0.00  0.00    +0.000 C 
ATOM      6  C   UNL     1      -0.276  13.103  19.791  0.00  0.00    +0.000 C 
ATOM      7  O   UNL     1      -0.470  14.312  19.880  0.00  0.00    +0.000 OA
ATOM      8  C   UNL     1       0.820  10.100  18.192  0.00  0.00    +0.000 C 
ATOM      9  C   UNL     1       2.206   9.452  18.136  0.00  0.00    +0.000 C 
ATOM     10  N   UNL     1       2.193   8.158  18.806  0.00  0.00    +0.000 N 
ATOM     11  C   UNL     1       2.857   7.084  18.197  0.00  0.00    +0.000 C 
ATOM     12  O   UNL     1       3.530   7.239  17.174  0.00  0.00    +0.000 OA
ATOM     13  C   UNL     1       1.717   8.178  20.191  0.00  0.00    +0.000 C 
ATOM     14  C   UNL     1       0.318   8.784  20.269  0.00  0.00    +0.000 C 
ENDROOT
BRANCH  11  15
ATOM     15  C   UNL     1       2.760   5.744  18.810  0.00  0.00    +0.000 A 
ATOM     16  C   UNL     1       3.699   5.163  19.712  0.00  0.00    +0.000 A 
ATOM     17  C   UNL     1       3.165   3.943  20.057  0.00  0.00    +0.000 A 
ATOM     18  N   UNL     1       2.002   3.835  19.358  0.00  0.00    +0.000 N 
ATOM     19  C   UNL     1       1.015   2.787  19.440  0.00  0.00    +0.000 C 
ATOM     20  N   UNL     1       1.772   4.871  18.540  0.00  0.00    +0.000 NA
ENDBRANCH  11  15
BRANCH   1  21
ATOM     21  C   UNL     1       2.165  13.297  19.661  0.00  0.00    +0.000 C 
BRANCH  21  22
ATOM     22  C   UNL     1       2.510  13.416  18.178  0.00  0.00    +0.000 C 
BRANCH  22  24
ATOM     23  C   UNL     1       2.441  15.839  18.441  0.00  0.00    +0.000 C 
ATOM     24  N   UNL     1       3.143  14.706  17.825  0.00  0.00    +0.000 NA
ATOM     25  C   UNL     1       4.538  14.696  18.274  0.00  0.00    +0.000 C 
ENDBRANCH  22  24
ENDBRANCH  21  22
ENDBRANCH   1  21
TORSDOF 4
ENDMDL
MODEL 5
REMARK VINA RESULT:      -5.8      2.396      8.274
REMARK  Name = 
REMARK  7 active torsions:
REMARK  status: ('A' for Active; 'I' for Inactive)
REMARK    1  A    between atoms: C_1  and  N_2
REMARK    2  A    between atoms: N_2  and  C_3
REMARK    3  A    between atoms: N_2  and  C_4
REMARK    4  A    between atoms: C_4  and  C_5
REMARK    5  A    between atoms: C_5  and  N_6
REMARK    6  A    between atoms: C_16  and  C_18
REMARK    7  A    between atoms: N_21  and  C_22
REMARK                            x       y       z     vdW  Elec       q    Type
REMARK                         _______ _______ _______ _____ _____    ______ ____
ROOT
ATOM      1  N   UNL     1      -0.679  10.968  18.464  0.00  0.00    +0.000 N 
ATOM      2  C   UNL     1       0.207  10.014  17.830  0.00  0.00    +0.000 C 
ATOM      3  C   UNL     1       1.582  10.025  18.517  0.00  0.00    +0.000 C 
ATOM      4  C   UNL     1       2.114  11.474  18.423  0.00  0.00    +0.000 C 
ATOM      5  C   UNL     1       1.133  12.516  18.951  0.00  0.00    +0.000 C 
ATOM      6  C   UNL     1      -0.317  12.299  18.564  0.00  0.00    +0.000 C 
ATOM      7  O   UNL     1      -1.129  13.220  18.560  0.00  0.00    +0.000 OA
ATOM      8  C   UNL     1       1.471   9.554  19.993  0.00  0.00    +0.000 C 
ATOM      9  C   UNL     1       1.095   8.074  20.107  0.00  0.00    +0.000 C 
ATOM     10  N   UNL     1       2.016   7.251  19.334  0.00  0.00    +0.000 N 
ATOM     11  C   UNL     1       2.486   6.060  19.904  0.00  0.00    +0.000 C 
ATOM     12  O   UNL     1       2.060   5.651  20.987  0.00  0.00    +0.000 OA
ATOM     13  C   UNL     1       2.141   7.616  17.921  0.00  0.00    +0.000 C 
ATOM     14  C   UNL     1       2.555   9.079  17.780  0.00  0.00    +0.000 C 
ENDROOT
BRANCH  11  15
ATOM     15  C   UNL     1       3.501   5.272  19.176  0.00  0.00    +0.000 A 
ATOM     16  C   UNL     1       3.250   4.152  18.331  0.00  0.00    +0.000 A 
ATOM     17  C   UNL     1       4.478   3.787  17.833  0.00  0.00    +0.000 A 
ATOM     18  N   UNL     1       5.376   4.640  18.399  0.00  0.00    +0.000 N 
ATOM     19  C   UNL     1       6.790   4.742  18.130  0.00  0.00    +0.000 C 
ATOM     20  N   UNL     1       4.826   5.495  19.271  0.00  0.00    +0.000 NA
ENDBRANCH  11  15
BRANCH   1  21
ATOM     21  C   UNL     1      -1.997  10.547  18.908  0.00  0.00    +0.000 C 
BRANCH  21  22
ATOM     22  C   UNL     1      -2.809   9.788  17.861  0.00  0.00    +0.000 C 
BRANCH  22  24
ATOM     23  C   UNL     1      -4.356  11.621  18.303  0.00  0.00    +0.000 C 
ATOM     24  N   UNL     1      -3.993  10.536  17.382  0.00  0.00    +0.000 NA
ATOM     25  C   UNL     1      -3.705  11.098  16.059  0.00  0.00    +0.000 C 
ENDBRANCH  22  24
ENDBRANCH  21  22
ENDBRANCH   1  21
TORSDOF 4
ENDMDL
MODEL 6
REMARK VINA RESULT:      -5.7      2.473      8.253
REMARK  Name = 
REMARK  7 active torsions:
REMARK  status: ('A' for Active; 'I' for Inactive)
REMARK    1  A    between atoms: C_1  and  N_2
REMARK    2  A    between atoms: N_2  and  C_3
REMARK    3  A    between atoms: N_2  and  C_4
REMARK    4  A    between atoms: C_4  and  C_5
REMARK    5  A    between atoms: C_5  and  N_6
REMARK    6  A    between atoms: C_16  and  C_18
REMARK    7  A    between atoms: N_21  and  C_22
REMARK                            x       y       z     vdW  Elec       q    Type
REMARK                         _______ _______ _______ _____ _____    ______ ____
ROOT
ATOM      1  N   UNL     1      -0.875  10.884  18.519  0.00  0.00    +0.000 N 
ATOM      2  C   UNL     1       0.146  10.106  17.848  0.00  0.00    +0.000 C 
ATOM      3  C   UNL     1       1.466  10.167  18.634  0.00  0.00    +0.000 C 
ATOM      4  C   UNL     1       1.846  11.661  18.746  0.00  0.00    +0.000 C 
ATOM      5  C   UNL     1       0.729  12.531  19.315  0.00  0.00    +0.000 C 
ATOM      6  C   UNL     1      -0.662  12.222  18.798  0.00  0.00    +0.000 C 
ATOM      7  O   UNL     1      -1.566  13.053  18.838  0.00  0.00    +0.000 OA
ATOM      8  C   UNL     1       1.312   9.511  20.033  0.00  0.00    +0.000 C 
ATOM      9  C   UNL     1       1.088   7.999  19.949  0.00  0.00    +0.000 C 
ATOM     10  N   UNL     1       2.138   7.370  19.158  0.00  0.00    +0.000 N 
ATOM     11  C   UNL     1       2.695   6.170  19.622  0.00  0.00    +0.000 C 
ATOM     12  O   UNL     1       2.246   5.593  20.616  0.00  0.00    +0.000 OA
ATOM     13  C   UNL     1       2.313   7.914  17.810  0.00  0.00    +0.000 C 
ATOM     14  C   UNL     1       2.578   9.417  17.868  0.00  0.00    +0.000 C 
ENDROOT
BRANCH  11  15
ATOM     15  C   UNL     1       3.831   5.579  18.887  0.00  0.00    +0.000 A 
ATOM     16  C   UNL     1       5.166   5.446  19.369  0.00  0.00    +0.000 A 
ATOM     17  C   UNL     1       5.851   4.794  18.370  0.00  0.00    +0.000 A 
ATOM     18  N   UNL     1       4.952   4.603  17.366  0.00  0.00    +0.000 N 
ATOM     19  C   UNL     1       5.141   3.877  16.135  0.00  0.00    +0.000 C 
ATOM     20  N   UNL     1       3.748   5.134  17.619  0.00  0.00    +0.000 NA
ENDBRANCH  11  15
BRANCH   1  21
ATOM     21  C   UNL     1      -2.166  10.286  18.811  0.00  0.00    +0.000 C 
BRANCH  21  22
ATOM     22  C   UNL     1      -2.936   9.801  17.585  0.00  0.00    +0.000 C 
BRANCH  22  24
ATOM     23  C   UNL     1      -2.937  10.373  15.214  0.00  0.00    +0.000 C 
ATOM     24  N   UNL     1      -3.165  10.863  16.580  0.00  0.00    +0.000 NA
ATOM     25  C   UNL     1      -4.544  11.348  16.698  0.00  0.00    +0.000 C 
ENDBRANCH  22  24
ENDBRANCH  21  22
ENDBRANCH   1  21
TORSDOF 4
ENDMDL
MODEL 7
REMARK VINA RESULT:      -5.6      2.788      8.136
REMARK  Name = 
REMARK  7 active torsions:
REMARK  status: ('A' for Active; 'I' for Inactive)
REMARK    1  A    between atoms: C_1  and  N_2
REMARK    2  A    between atoms: N_2  and  C_3
REMARK    3  A    between atoms: N_2  and  C_4
REMARK    4  A    between atoms: C_4  and  C_5
REMARK    5  A    between atoms: C_5  and  N_6
REMARK    6  A    between atoms: C_16  and  C_18
REMARK    7  A    between atoms: N_21  and  C_22
REMARK                            x       y       z     vdW  Elec       q    Type
REMARK                         _______ _______ _______ _____ _____    ______ ____
ROOT
ATOM      1  N   UNL     1       0.982  12.582  19.896  0.00  0.00    +0.000 N 
ATOM      2  C   UNL     1       1.084  11.325  20.608  0.00  0.00    +0.000 C 
ATOM      3  C   UNL     1       0.169  10.271  19.963  0.00  0.00    +0.000 C 
ATOM      4  C   UNL     1      -1.264  10.850  19.993  0.00  0.00    +0.000 C 
ATOM      5  C   UNL     1      -1.370  12.242  19.378  0.00  0.00    +0.000 C 
ATOM      6  C   UNL     1      -0.246  13.196  19.733  0.00  0.00    +0.000 C 
ATOM      7  O   UNL     1      -0.386  14.414  19.662  0.00  0.00    +0.000 OA
ATOM      8  C   UNL     1       0.624   9.951  18.513  0.00  0.00    +0.000 C 
ATOM      9  C   UNL     1       1.976   9.235  18.470  0.00  0.00    +0.000 C 
ATOM     10  N   UNL     1       1.955   8.048  19.314  0.00  0.00    +0.000 N 
ATOM     11  C   UNL     1       2.535   6.869  18.825  0.00  0.00    +0.000 C 
ATOM     12  O   UNL     1       3.147   6.849  17.754  0.00  0.00    +0.000 OA
ATOM     13  C   UNL     1       1.570   8.283  20.708  0.00  0.00    +0.000 C 
ATOM     14  C   UNL     1       0.204   8.961  20.781  0.00  0.00    +0.000 C 
ENDROOT
BRANCH  11  15
ATOM     15  C   UNL     1       2.425   5.634  19.626  0.00  0.00    +0.000 A 
ATOM     16  C   UNL     1       1.313   5.251  20.433  0.00  0.00    +0.000 A 
ATOM     17  C   UNL     1       1.637   4.013  20.936  0.00  0.00    +0.000 A 
ATOM     18  N   UNL     1       2.881   3.732  20.461  0.00  0.00    +0.000 N 
ATOM     19  C   UNL     1       3.633   2.511  20.615  0.00  0.00    +0.000 C 
ATOM     20  N   UNL     1       3.411   4.724  19.733  0.00  0.00    +0.000 NA
ENDBRANCH  11  15
BRANCH   1  21
ATOM     21  C   UNL     1       2.187  13.252  19.436  0.00  0.00    +0.000 C 
BRANCH  21  22
ATOM     22  C   UNL     1       3.038  13.863  20.546  0.00  0.00    +0.000 C 
BRANCH  22  24
ATOM     23  C   UNL     1       2.923  15.981  19.343  0.00  0.00    +0.000 C 
ATOM     24  N   UNL     1       3.775  15.073  20.120  0.00  0.00    +0.000 NA
ATOM     25  C   UNL     1       4.276  15.774  21.307  0.00  0.00    +0.000 C 
ENDBRANCH  22  24
ENDBRANCH  21  22
ENDBRANCH   1  21
TORSDOF 4
ENDMDL
MODEL 8
REMARK VINA RESULT:      -5.6      2.557      8.074
REMARK  Name = 
REMARK  7 active torsions:
REMARK  status: ('A' for Active; 'I' for Inactive)
REMARK    1  A    between atoms: C_1  and  N_2
REMARK    2  A    between atoms: N_2  and  C_3
REMARK    3  A    between atoms: N_2  and  C_4
REMARK    4  A    between atoms: C_4  and  C_5
REMARK    5  A    between atoms: C_5  and  N_6
REMARK    6  A    between atoms: C_16  and  C_18
REMARK    7  A    between atoms: N_21  and  C_22
REMARK                            x       y       z     vdW  Elec       q    Type
REMARK                         _______ _______ _______ _____ _____    ______ ____
ROOT
ATOM      1  N   UNL     1       0.965  12.348  20.528  0.00  0.00    +0.000 N 
ATOM      2  C   UNL     1       1.082  10.944  20.866  0.00  0.00    +0.000 C 
ATOM      3  C   UNL     1       0.292  10.086  19.865  0.00  0.00    +0.000 C 
ATOM      4  C   UNL     1      -1.172  10.582  19.916  0.00  0.00    +0.000 C 
ATOM      5  C   UNL     1      -1.311  12.087  19.709  0.00  0.00    +0.000 C 
ATOM      6  C   UNL     1      -0.281  12.939  20.424  0.00  0.00    +0.000 C 
ATOM      7  O   UNL     1      -0.489  14.122  20.683  0.00  0.00    +0.000 OA
ATOM      8  C   UNL     1       0.885  10.208  18.436  0.00  0.00    +0.000 C 
ATOM      9  C   UNL     1       2.278   9.582  18.326  0.00  0.00    +0.000 C 
ATOM     10  N   UNL     1       2.258   8.203  18.798  0.00  0.00    +0.000 N 
ATOM     11  C   UNL     1       2.949   7.234  18.058  0.00  0.00    +0.000 C 
ATOM     12  O   UNL     1       3.648   7.540  17.090  0.00  0.00    +0.000 OA
ATOM     13  C   UNL     1       1.744   8.018  20.157  0.00  0.00    +0.000 C 
ATOM     14  C   UNL     1       0.338   8.600  20.283  0.00  0.00    +0.000 C 
ENDROOT
BRANCH  11  15
ATOM     15  C   UNL     1       2.847   5.818  18.466  0.00  0.00    +0.000 A 
ATOM     16  C   UNL     1       1.776   4.929  18.159  0.00  0.00    +0.000 A 
ATOM     17  C   UNL     1       2.143   3.717  18.694  0.00  0.00    +0.000 A 
ATOM     18  N   UNL     1       3.345   3.926  19.298  0.00  0.00    +0.000 N 
ATOM     19  C   UNL     1       4.204   2.949  19.922  0.00  0.00    +0.000 C 
ATOM     20  N   UNL     1       3.756   5.200  19.244  0.00  0.00    +0.000 NA
ENDBRANCH  11  15
BRANCH   1  21
ATOM     21  C   UNL     1       2.160  13.162  20.395  0.00  0.00    +0.000 C 
BRANCH  21  22
ATOM     22  C   UNL     1       2.465  13.617  18.969  0.00  0.00    +0.000 C 
BRANCH  22  24
ATOM     23  C   UNL     1       3.621  15.246  17.570  0.00  0.00    +0.000 C 
ATOM     24  N   UNL     1       3.068  14.967  18.901  0.00  0.00    +0.000 NA
ATOM     25  C   UNL     1       2.046  15.967  19.223  0.00  0.00    +0.000 C 
ENDBRANCH  22  24
ENDBRANCH  21  22
ENDBRANCH   1  21
TORSDOF 4
ENDMDL
MODEL 9
REMARK VINA RESULT:      -5.5      2.653      8.084
REMARK  Name = 
REMARK  7 active torsions:
REMARK  status: ('A' for Active; 'I' for Inactive)
REMARK    1  A    between atoms: C_1  and  N_2
REMARK    2  A    between atoms: N_2  and  C_3
REMARK    3  A    between atoms: N_2  and  C_4
REMARK    4  A    between atoms: C_4  and  C_5
REMARK    5  A    between atoms: C_5  and  N_6
REMARK    6  A    between atoms: C_16  and  C_18
REMARK    7  A    between atoms: N_21  and  C_22
REMARK                            x       y       z     vdW  Elec       q    Type
REMARK                         _______ _______ _______ _____ _____    ______ ____
ROOT
ATOM      1  N   UNL     1       0.944  12.447  19.769  0.00  0.00    +0.000 N 
ATOM      2  C   UNL     1       1.099  11.132  20.356  0.00  0.00    +0.000 C 
ATOM      3  C   UNL     1       0.280  10.096  19.570  0.00  0.00    +0.000 C 
ATOM      4  C   UNL     1      -1.188  10.581  19.594  0.00  0.00    +0.000 C 
ATOM      5  C   UNL     1      -1.360  12.020  19.117  0.00  0.00    +0.000 C 
ATOM      6  C   UNL     1      -0.315  12.999  19.614  0.00  0.00    +0.000 C 
ATOM      7  O   UNL     1      -0.530  14.207  19.658  0.00  0.00    +0.000 OA
ATOM      8  C   UNL     1       0.809   9.954  18.117  0.00  0.00    +0.000 C 
ATOM      9  C   UNL     1       2.206   9.330  18.062  0.00  0.00    +0.000 C 
ATOM     10  N   UNL     1       2.229   8.064  18.782  0.00  0.00    +0.000 N 
ATOM     11  C   UNL     1       2.903   6.979  18.205  0.00  0.00    +0.000 C 
ATOM     12  O   UNL     1       3.554   7.105  17.165  0.00  0.00    +0.000 OA
ATOM     13  C   UNL     1       1.778   8.131  20.174  0.00  0.00    +0.000 C 
ATOM     14  C   UNL     1       0.369   8.714  20.254  0.00  0.00    +0.000 C 
ENDROOT
BRANCH  11  15
ATOM     15  C   UNL     1       2.842   5.663  18.873  0.00  0.00    +0.000 A 
ATOM     16  C   UNL     1       3.856   5.090  19.695  0.00  0.00    +0.000 A 
ATOM     17  C   UNL     1       3.336   3.896  20.136  0.00  0.00    +0.000 A 
ATOM     18  N   UNL     1       2.106   3.792  19.563  0.00  0.00    +0.000 N 
ATOM     19  C   UNL     1       1.110   2.772  19.784  0.00  0.00    +0.000 C 
ATOM     20  N   UNL     1       1.814   4.805  18.736  0.00  0.00    +0.000 NA
ENDBRANCH  11  15
BRANCH   1  21
ATOM     21  C   UNL     1       2.119  13.232  19.432  0.00  0.00    +0.000 C 
BRANCH  21  22
ATOM     22  C   UNL     1       2.891  13.771  20.634  0.00  0.00    +0.000 C 
BRANCH  22  24
ATOM     23  C   UNL     1       2.728  16.196  20.840  0.00  0.00    +0.000 C 
ATOM     24  N   UNL     1       3.548  15.071  20.374  0.00  0.00    +0.000 NA
ATOM     25  C   UNL     1       4.846  15.099  21.057  0.00  0.00    +0.000 C 
ENDBRANCH  22  24
ENDBRANCH  21  22
ENDBRANCH   1  21
TORSDOF 4
ENDMDL
