MODEL 1
REMARK VINA RESULT:      -7.9      0.000      0.000
REMARK  Name = 
REMARK  7 active torsions:
REMARK  status: ('A' for Active; 'I' for Inactive)
REMARK    1  A    between atoms: C_1  and  N_2
REMARK    2  A    between atoms: N_2  and  C_3
REMARK    3  A    between atoms: C_3  and  C_4
REMARK    4  A    between atoms: N_6  and  C_7
REMARK    5  A    between atoms: C_14  and  C_16
REMARK    6  A    between atoms: C_18  and  C_19
REMARK    7  A    between atoms: N_25  and  C_26
REMARK                            x       y       z     vdW  Elec       q    Type
REMARK                         _______ _______ _______ _____ _____    ______ ____
ROOT
ATOM      1  C   UNL     1      -0.553   9.060  22.783  0.00  0.00    +0.000 C 
ATOM      2  N   UNL     1       0.186   9.909  21.858  0.00  0.00    +0.000 N 
ATOM      3  C   UNL     1      -0.417  11.136  21.520  0.00  0.00    +0.000 C 
ATOM      4  O   UNL     1      -1.405  11.505  22.157  0.00  0.00    +0.000 OA
ENDROOT
BRANCH   3   5
ATOM      5  C   UNL     1       0.112  11.934  20.431  0.00  0.00    +0.000 A 
ATOM      6  C   UNL     1       1.191  12.804  20.417  0.00  0.00    +0.000 A 
ATOM      7  C   UNL     1       1.199  13.432  19.167  0.00  0.00    +0.000 A 
ATOM      8  N   UNL     1       0.159  13.053  18.434  0.00  0.00    +0.000 NA
ATOM      9  N   UNL     1      -0.494  12.109  19.181  0.00  0.00    +0.000 N 
BRANCH   9  10
ATOM     10  C   UNL     1      -1.622  11.460  18.589  0.00  0.00    +0.000 A 
ATOM     11  C   UNL     1      -1.498  10.344  17.755  0.00  0.00    +0.000 A 
ATOM     12  C   UNL     1      -2.639   9.728  17.226  0.00  0.00    +0.000 A 
ATOM     13  C   UNL     1      -3.907  10.226  17.520  0.00  0.00    +0.000 A 
ATOM     14  C   UNL     1      -4.040  11.353  18.323  0.00  0.00    +0.000 A 
ATOM     15  C   UNL     1      -2.904  11.977  18.845  0.00  0.00    +0.000 A 
ENDBRANCH   9  10
BRANCH   7  16
ATOM     16  C   UNL     1       2.218  14.430  18.705  0.00  0.00    +0.000 A 
ATOM     17  C   UNL     1       3.478  14.103  18.251  0.00  0.00    +0.000 A 
ATOM     18  C   UNL     1       4.233  15.257  17.880  0.00  0.00    +0.000 A 
ATOM     19  C   UNL     1       3.522  16.421  18.069  0.00  0.00    +0.000 A 
ATOM     20  S   UNL     1       1.959  16.122  18.688  0.00  0.00    +0.000 S 
ENDBRANCH   7  16
ENDBRANCH   3   5
BRANCH   2  21
ATOM     21  C   UNL     1       1.498   9.478  21.368  0.00  0.00    +0.000 C 
BRANCH  21  22
ATOM     22  C   UNL     1       1.638   8.308  20.398  0.00  0.00    +0.000 C 
ATOM     23  O   UNL     1       1.512   8.466  19.187  0.00  0.00    +0.000 OA
ATOM     24  N   UNL     1       1.897   7.099  21.035  0.00  0.00    +0.000 N 
ATOM     25  H   UNL     1       1.557   7.015  21.986  0.00  0.00    +0.000 HD
BRANCH  24  26
ATOM     26  C   UNL     1       2.072   5.912  20.302  0.00  0.00    +0.000 A 
ATOM     27  C   UNL     1       3.112   5.773  19.377  0.00  0.00    +0.000 A 
ATOM     28  C   UNL     1       3.194   4.628  18.583  0.00  0.00    +0.000 A 
ATOM     29  C   UNL     1       2.225   3.636  18.708  0.00  0.00    +0.000 A 
ATOM     30 CL   UNL     1       2.256   2.274  17.659  0.00  0.00    +0.000 Cl
ATOM     31  C   UNL     1       1.214   3.751  19.662  0.00  0.00    +0.000 A 
ATOM     32  C   UNL     1       1.157   4.876  20.487  0.00  0.00    +0.000 A 
ENDBRANCH  24  26
ENDBRANCH  21  22
ENDBRANCH   2  21
TORSDOF 6
ENDMDL
MODEL 2
REMARK VINA RESULT:      -7.7      0.623      1.174
REMARK  Name = 
REMARK  7 active torsions:
REMARK  status: ('A' for Active; 'I' for Inactive)
REMARK    1  A    between atoms: C_1  and  N_2
REMARK    2  A    between atoms: N_2  and  C_3
REMARK    3  A    between atoms: C_3  and  C_4
REMARK    4  A    between atoms: N_6  and  C_7
REMARK    5  A    between atoms: C_14  and  C_16
REMARK    6  A    between atoms: C_18  and  C_19
REMARK    7  A    between atoms: N_25  and  C_26
REMARK                            x       y       z     vdW  Elec       q    Type
REMARK                         _______ _______ _______ _____ _____    ______ ____
ROOT
ATOM      1  C   UNL     1      -0.628   9.264  22.909  0.00  0.00    +0.000 C 
ATOM      2  N   UNL     1       0.111  10.096  21.969  0.00  0.00    +0.000 N 
ATOM      3  C   UNL     1      -0.472  11.336  21.642  0.00  0.00    +0.000 C 
ATOM      4  O   UNL     1      -1.438  11.727  22.299  0.00  0.00    +0.000 OA
ENDROOT
BRANCH   3   5
ATOM      5  C   UNL     1       0.053  12.121  20.542  0.00  0.00    +0.000 A 
ATOM      6  C   UNL     1       1.100  13.029  20.526  0.00  0.00    +0.000 A 
ATOM      7  C   UNL     1       1.114  13.621  19.259  0.00  0.00    +0.000 A 
ATOM      8  N   UNL     1       0.105  13.183  18.514  0.00  0.00    +0.000 NA
ATOM      9  N   UNL     1      -0.530  12.238  19.275  0.00  0.00    +0.000 N 
BRANCH   9  10
ATOM     10  C   UNL     1      -1.620  11.531  18.677  0.00  0.00    +0.000 A 
ATOM     11  C   UNL     1      -1.435  10.411  17.861  0.00  0.00    +0.000 A 
ATOM     12  C   UNL     1      -2.541   9.738  17.325  0.00  0.00    +0.000 A 
ATOM     13  C   UNL     1      -3.833  10.182  17.597  0.00  0.00    +0.000 A 
ATOM     14  C   UNL     1      -4.027  11.312  18.383  0.00  0.00    +0.000 A 
ATOM     15  C   UNL     1      -2.927  11.993  18.910  0.00  0.00    +0.000 A 
ENDBRANCH   9  10
BRANCH   7  16
ATOM     16  C   UNL     1       2.106  14.642  18.789  0.00  0.00    +0.000 A 
ATOM     17  C   UNL     1       1.837  15.988  18.663  0.00  0.00    +0.000 A 
ATOM     18  C   UNL     1       2.968  16.721  18.191  0.00  0.00    +0.000 A 
ATOM     19  C   UNL     1       4.056  15.907  17.972  0.00  0.00    +0.000 A 
ATOM     20  S   UNL     1       3.715  14.273  18.332  0.00  0.00    +0.000 S 
ENDBRANCH   7  16
ENDBRANCH   3   5
BRANCH   2  21
ATOM     21  C   UNL     1       1.403   9.635  21.454  0.00  0.00    +0.000 C 
BRANCH  21  22
ATOM     22  C   UNL     1       1.494   8.488  20.452  0.00  0.00    +0.000 C 
ATOM     23  O   UNL     1       1.229   8.656  19.265  0.00  0.00    +0.000 OA
ATOM     24  N   UNL     1       1.882   7.285  21.033  0.00  0.00    +0.000 N 
ATOM     25  H   UNL     1       1.652   7.170  22.013  0.00  0.00    +0.000 HD
BRANCH  24  26
ATOM     26  C   UNL     1       2.035   6.119  20.262  0.00  0.00    +0.000 A 
ATOM     27  C   UNL     1       1.203   5.010  20.445  0.00  0.00    +0.000 A 
ATOM     28  C   UNL     1       1.450   3.827  19.746  0.00  0.00    +0.000 A 
ATOM     29  C   UNL     1       2.538   3.757  18.880  0.00  0.00    +0.000 A 
ATOM     30 CL   UNL     1       2.914   2.272  18.098  0.00  0.00    +0.000 Cl
ATOM     31  C   UNL     1       3.341   4.876  18.661  0.00  0.00    +0.000 A 
ATOM     32  C   UNL     1       3.068   6.072  19.327  0.00  0.00    +0.000 A 
ENDBRANCH  24  26
ENDBRANCH  21  22
ENDBRANCH   2  21
TORSDOF 6
ENDMDL
MODEL 3
REMARK VINA RESULT:      -7.6      1.098      1.554
REMARK  Name = 
REMARK  7 active torsions:
REMARK  status: ('A' for Active; 'I' for Inactive)
REMARK    1  A    between atoms: C_1  and  N_2
REMARK    2  A    between atoms: N_2  and  C_3
REMARK    3  A    between atoms: C_3  and  C_4
REMARK    4  A    between atoms: N_6  and  C_7
REMARK    5  A    between atoms: C_14  and  C_16
REMARK    6  A    between atoms: C_18  and  C_19
REMARK    7  A    between atoms: N_25  and  C_26
REMARK                            x       y       z     vdW  Elec       q    Type
REMARK                         _______ _______ _______ _____ _____    ______ ____
ROOT
ATOM      1  C   UNL     1      -0.232   8.542  22.063  0.00  0.00    +0.000 C 
ATOM      2  N   UNL     1       0.424   9.453  21.135  0.00  0.00    +0.000 N 
ATOM      3  C   UNL     1       0.082  10.815  21.251  0.00  0.00    +0.000 C 
ATOM      4  O   UNL     1      -0.575  11.179  22.227  0.00  0.00    +0.000 OA
ENDROOT
BRANCH   3   5
ATOM      5  C   UNL     1       0.486  11.758  20.226  0.00  0.00    +0.000 A 
ATOM      6  C   UNL     1       1.554  12.642  20.212  0.00  0.00    +0.000 A 
ATOM      7  C   UNL     1       1.423  13.429  19.063  0.00  0.00    +0.000 A 
ATOM      8  N   UNL     1       0.311  13.130  18.402  0.00  0.00    +0.000 NA
ATOM      9  N   UNL     1      -0.253  12.085  19.083  0.00  0.00    +0.000 N 
BRANCH   9  10
ATOM     10  C   UNL     1      -1.437  11.499  18.535  0.00  0.00    +0.000 A 
ATOM     11  C   UNL     1      -2.717  11.992  18.805  0.00  0.00    +0.000 A 
ATOM     12  C   UNL     1      -3.841  11.397  18.216  0.00  0.00    +0.000 A 
ATOM     13  C   UNL     1      -3.692  10.306  17.362  0.00  0.00    +0.000 A 
ATOM     14  C   UNL     1      -2.426   9.790  17.111  0.00  0.00    +0.000 A 
ATOM     15  C   UNL     1      -1.303  10.372  17.703  0.00  0.00    +0.000 A 
ENDBRANCH   9  10
BRANCH   7  16
ATOM     16  C   UNL     1       2.381  14.497  18.629  0.00  0.00    +0.000 A 
ATOM     17  C   UNL     1       3.671  14.261  18.203  0.00  0.00    +0.000 A 
ATOM     18  C   UNL     1       4.353  15.466  17.857  0.00  0.00    +0.000 A 
ATOM     19  C   UNL     1       3.561  16.578  18.036  0.00  0.00    +0.000 A 
ATOM     20  S   UNL     1       2.008  16.168  18.617  0.00  0.00    +0.000 S 
ENDBRANCH   7  16
ENDBRANCH   3   5
BRANCH   2  21
ATOM     21  C   UNL     1       1.406   8.932  20.180  0.00  0.00    +0.000 C 
BRANCH  21  22
ATOM     22  C   UNL     1       1.726   7.442  20.103  0.00  0.00    +0.000 C 
ATOM     23  O   UNL     1       1.447   6.682  21.026  0.00  0.00    +0.000 OA
ATOM     24  N   UNL     1       2.357   7.080  18.918  0.00  0.00    +0.000 N 
ATOM     25  H   UNL     1       2.900   7.805  18.463  0.00  0.00    +0.000 HD
BRANCH  24  26
ATOM     26  C   UNL     1       2.714   5.745  18.661  0.00  0.00    +0.000 A 
ATOM     27  C   UNL     1       1.898   4.905  17.896  0.00  0.00    +0.000 A 
ATOM     28  C   UNL     1       2.222   3.555  17.753  0.00  0.00    +0.000 A 
ATOM     29  C   UNL     1       3.352   3.050  18.389  0.00  0.00    +0.000 A 
ATOM     30 CL   UNL     1       3.698   1.367  18.308  0.00  0.00    +0.000 Cl
ATOM     31  C   UNL     1       4.193   3.894  19.114  0.00  0.00    +0.000 A 
ATOM     32  C   UNL     1       3.893   5.253  19.221  0.00  0.00    +0.000 A 
ENDBRANCH  24  26
ENDBRANCH  21  22
ENDBRANCH   2  21
TORSDOF 6
ENDMDL
MODEL 4
REMARK VINA RESULT:      -7.4      5.419      9.066
REMARK  Name = 
REMARK  7 active torsions:
REMARK  status: ('A' for Active; 'I' for Inactive)
REMARK    1  A    between atoms: C_1  and  N_2
REMARK    2  A    between atoms: N_2  and  C_3
REMARK    3  A    between atoms: C_3  and  C_4
REMARK    4  A    between atoms: N_6  and  C_7
REMARK    5  A    between atoms: C_14  and  C_16
REMARK    6  A    between atoms: C_18  and  C_19
REMARK    7  A    between atoms: N_25  and  C_26
REMARK                            x       y       z     vdW  Elec       q    Type
REMARK                         _______ _______ _______ _____ _____    ______ ____
ROOT
ATOM      1  C   UNL     1       7.718   5.620  15.617  0.00  0.00    +0.000 C 
ATOM      2  N   UNL     1       6.718   5.978  16.614  0.00  0.00    +0.000 N 
ATOM      3  C   UNL     1       5.389   5.611  16.324  0.00  0.00    +0.000 C 
ATOM      4  O   UNL     1       5.178   4.856  15.375  0.00  0.00    +0.000 OA
ENDROOT
BRANCH   3   5
ATOM      5  C   UNL     1       4.298   6.132  17.125  0.00  0.00    +0.000 A 
ATOM      6  C   UNL     1       3.851   7.436  17.267  0.00  0.00    +0.000 A 
ATOM      7  C   UNL     1       2.865   7.430  18.259  0.00  0.00    +0.000 A 
ATOM      8  N   UNL     1       2.721   6.217  18.782  0.00  0.00    +0.000 NA
ATOM      9  N   UNL     1       3.565   5.407  18.072  0.00  0.00    +0.000 N 
BRANCH   9  10
ATOM     10  C   UNL     1       3.550   4.009  18.373  0.00  0.00    +0.000 A 
ATOM     11  C   UNL     1       2.816   3.084  17.623  0.00  0.00    +0.000 A 
ATOM     12  C   UNL     1       2.861   1.721  17.944  0.00  0.00    +0.000 A 
ATOM     13  C   UNL     1       3.632   1.277  19.016  0.00  0.00    +0.000 A 
ATOM     14  C   UNL     1       4.342   2.191  19.786  0.00  0.00    +0.000 A 
ATOM     15  C   UNL     1       4.292   3.553  19.477  0.00  0.00    +0.000 A 
ENDBRANCH   9  10
BRANCH   7  16
ATOM     16  C   UNL     1       2.084   8.625  18.714  0.00  0.00    +0.000 A 
ATOM     17  C   UNL     1       1.855   9.745  17.943  0.00  0.00    +0.000 A 
ATOM     18  C   UNL     1       1.084  10.727  18.636  0.00  0.00    +0.000 A 
ATOM     19  C   UNL     1       0.758  10.322  19.911  0.00  0.00    +0.000 A 
ATOM     20  S   UNL     1       1.376   8.771  20.267  0.00  0.00    +0.000 S 
ENDBRANCH   7  16
ENDBRANCH   3   5
BRANCH   2  21
ATOM     21  C   UNL     1       7.133   6.648  17.849  0.00  0.00    +0.000 C 
BRANCH  21  22
ATOM     22  C   UNL     1       7.547   8.117  17.855  0.00  0.00    +0.000 C 
ATOM     23  O   UNL     1       7.018   8.931  17.105  0.00  0.00    +0.000 OA
ATOM     24  N   UNL     1       8.563   8.393  18.765  0.00  0.00    +0.000 N 
ATOM     25  H   UNL     1       9.184   7.624  18.987  0.00  0.00    +0.000 HD
BRANCH  24  26
ATOM     26  C   UNL     1       9.065   9.698  18.923  0.00  0.00    +0.000 A 
ATOM     27  C   UNL     1       9.496  10.450  17.826  0.00  0.00    +0.000 A 
ATOM     28  C   UNL     1      10.094  11.696  18.023  0.00  0.00    +0.000 A 
ATOM     29  C   UNL     1      10.271  12.174  19.319  0.00  0.00    +0.000 A 
ATOM     30 CL   UNL     1      11.103  13.656  19.577  0.00  0.00    +0.000 Cl
ATOM     31  C   UNL     1       9.800  11.446  20.412  0.00  0.00    +0.000 A 
ATOM     32  C   UNL     1       9.163  10.221  20.212  0.00  0.00    +0.000 A 
ENDBRANCH  24  26
ENDBRANCH  21  22
ENDBRANCH   2  21
TORSDOF 6
ENDMDL
MODEL 5
REMARK VINA RESULT:      -7.4      0.983      1.037
REMARK  Name = 
REMARK  7 active torsions:
REMARK  status: ('A' for Active; 'I' for Inactive)
REMARK    1  A    between atoms: C_1  and  N_2
REMARK    2  A    between atoms: N_2  and  C_3
REMARK    3  A    between atoms: C_3  and  C_4
REMARK    4  A    between atoms: N_6  and  C_7
REMARK    5  A    between atoms: C_14  and  C_16
REMARK    6  A    between atoms: C_18  and  C_19
REMARK    7  A    between atoms: N_25  and  C_26
REMARK                            x       y       z     vdW  Elec       q    Type
REMARK                         _______ _______ _______ _____ _____    ______ ____
ROOT
ATOM      1  C   UNL     1       0.290   8.254  21.490  0.00  0.00    +0.000 C 
ATOM      2  N   UNL     1       0.756   9.349  20.651  0.00  0.00    +0.000 N 
ATOM      3  C   UNL     1       0.171  10.609  20.888  0.00  0.00    +0.000 C 
ATOM      4  O   UNL     1      -0.529  10.756  21.891  0.00  0.00    +0.000 OA
ENDROOT
BRANCH   3   5
ATOM      5  C   UNL     1       0.382  11.699  19.956  0.00  0.00    +0.000 A 
ATOM      6  C   UNL     1       1.374  12.666  19.939  0.00  0.00    +0.000 A 
ATOM      7  C   UNL     1       1.052  13.570  18.920  0.00  0.00    +0.000 A 
ATOM      8  N   UNL     1      -0.107  13.257  18.351  0.00  0.00    +0.000 NA
ATOM      9  N   UNL     1      -0.509  12.094  18.951  0.00  0.00    +0.000 N 
BRANCH   9  10
ATOM     10  C   UNL     1      -1.704  11.478  18.464  0.00  0.00    +0.000 A 
ATOM     11  C   UNL     1      -1.689  10.326  17.671  0.00  0.00    +0.000 A 
ATOM     12  C   UNL     1      -2.891   9.746  17.246  0.00  0.00    +0.000 A 
ATOM     13  C   UNL     1      -4.111  10.315  17.604  0.00  0.00    +0.000 A 
ATOM     14  C   UNL     1      -4.137  11.477  18.367  0.00  0.00    +0.000 A 
ATOM     15  C   UNL     1      -2.940  12.065  18.784  0.00  0.00    +0.000 A 
ENDBRANCH   9  10
BRANCH   7  16
ATOM     16  C   UNL     1       1.873  14.761  18.526  0.00  0.00    +0.000 A 
ATOM     17  C   UNL     1       3.129  14.689  17.964  0.00  0.00    +0.000 A 
ATOM     18  C   UNL     1       3.674  15.981  17.695  0.00  0.00    +0.000 A 
ATOM     19  C   UNL     1       2.814  16.991  18.067  0.00  0.00    +0.000 A 
ATOM     20  S   UNL     1       1.364  16.383  18.733  0.00  0.00    +0.000 S 
ENDBRANCH   7  16
ENDBRANCH   3   5
BRANCH   2  21
ATOM     21  C   UNL     1       1.805   9.106  19.657  0.00  0.00    +0.000 C 
BRANCH  21  22
ATOM     22  C   UNL     1       2.096   7.701  19.138  0.00  0.00    +0.000 C 
ATOM     23  O   UNL     1       1.949   7.415  17.954  0.00  0.00    +0.000 OA
ATOM     24  N   UNL     1       2.514   6.827  20.137  0.00  0.00    +0.000 N 
ATOM     25  H   UNL     1       2.189   7.034  21.074  0.00  0.00    +0.000 HD
BRANCH  24  26
ATOM     26  C   UNL     1       2.843   5.492  19.845  0.00  0.00    +0.000 A 
ATOM     27  C   UNL     1       4.128   5.132  19.426  0.00  0.00    +0.000 A 
ATOM     28  C   UNL     1       4.396   3.819  19.035  0.00  0.00    +0.000 A 
ATOM     29  C   UNL     1       3.371   2.877  19.051  0.00  0.00    +0.000 A 
ATOM     30 CL   UNL     1       3.664   1.286  18.468  0.00  0.00    +0.000 Cl
ATOM     31  C   UNL     1       2.100   3.222  19.511  0.00  0.00    +0.000 A 
ATOM     32  C   UNL     1       1.844   4.524  19.944  0.00  0.00    +0.000 A 
ENDBRANCH  24  26
ENDBRANCH  21  22
ENDBRANCH   2  21
TORSDOF 6
ENDMDL
MODEL 6
REMARK VINA RESULT:      -7.4      1.070      1.520
REMARK  Name = 
REMARK  7 active torsions:
REMARK  status: ('A' for Active; 'I' for Inactive)
REMARK    1  A    between atoms: C_1  and  N_2
REMARK    2  A    between atoms: N_2  and  C_3
REMARK    3  A    between atoms: C_3  and  C_4
REMARK    4  A    between atoms: N_6  and  C_7
REMARK    5  A    between atoms: C_14  and  C_16
REMARK    6  A    between atoms: C_18  and  C_19
REMARK    7  A    between atoms: N_25  and  C_26
REMARK                            x       y       z     vdW  Elec       q    Type
REMARK                         _______ _______ _______ _____ _____    ______ ____
ROOT
ATOM      1  C   UNL     1       0.179   8.277  21.493  0.00  0.00    +0.000 C 
ATOM      2  N   UNL     1       0.664   9.382  20.677  0.00  0.00    +0.000 N 
ATOM      3  C   UNL     1       0.085  10.642  20.927  0.00  0.00    +0.000 C 
ATOM      4  O   UNL     1      -0.626  10.780  21.924  0.00  0.00    +0.000 OA
ENDROOT
BRANCH   3   5
ATOM      5  C   UNL     1       0.317  11.745  20.014  0.00  0.00    +0.000 A 
ATOM      6  C   UNL     1       1.289  12.732  20.050  0.00  0.00    +0.000 A 
ATOM      7  C   UNL     1       0.995  13.639  19.026  0.00  0.00    +0.000 A 
ATOM      8  N   UNL     1      -0.131  13.310  18.404  0.00  0.00    +0.000 NA
ATOM      9  N   UNL     1      -0.537  12.133  18.974  0.00  0.00    +0.000 N 
BRANCH   9  10
ATOM     10  C   UNL     1      -1.697  11.498  18.429  0.00  0.00    +0.000 A 
ATOM     11  C   UNL     1      -2.996  11.933  18.709  0.00  0.00    +0.000 A 
ATOM     12  C   UNL     1      -4.096  11.293  18.123  0.00  0.00    +0.000 A 
ATOM     13  C   UNL     1      -3.904  10.215  17.262  0.00  0.00    +0.000 A 
ATOM     14  C   UNL     1      -2.618   9.755  17.001  0.00  0.00    +0.000 A 
ATOM     15  C   UNL     1      -1.519  10.384  17.591  0.00  0.00    +0.000 A 
ENDBRANCH   9  10
BRANCH   7  16
ATOM     16  C   UNL     1       1.809  14.849  18.679  0.00  0.00    +0.000 A 
ATOM     17  C   UNL     1       1.331  16.142  18.704  0.00  0.00    +0.000 A 
ATOM     18  C   UNL     1       2.326  17.091  18.323  0.00  0.00    +0.000 A 
ATOM     19  C   UNL     1       3.526  16.488  18.018  0.00  0.00    +0.000 A 
ATOM     20  S   UNL     1       3.449  14.791  18.191  0.00  0.00    +0.000 S 
ENDBRANCH   7  16
ENDBRANCH   3   5
BRANCH   2  21
ATOM     21  C   UNL     1       1.723   9.147  19.692  0.00  0.00    +0.000 C 
BRANCH  21  22
ATOM     22  C   UNL     1       2.019   7.746  19.165  0.00  0.00    +0.000 C 
ATOM     23  O   UNL     1       1.862   7.463  17.981  0.00  0.00    +0.000 OA
ATOM     24  N   UNL     1       2.453   6.871  20.156  0.00  0.00    +0.000 N 
ATOM     25  H   UNL     1       2.136   7.072  21.097  0.00  0.00    +0.000 HD
BRANCH  24  26
ATOM     26  C   UNL     1       2.788   5.539  19.856  0.00  0.00    +0.000 A 
ATOM     27  C   UNL     1       4.080   5.185  19.453  0.00  0.00    +0.000 A 
ATOM     28  C   UNL     1       4.355   3.876  19.053  0.00  0.00    +0.000 A 
ATOM     29  C   UNL     1       3.331   2.933  19.043  0.00  0.00    +0.000 A 
ATOM     30 CL   UNL     1       3.636   1.348  18.450  0.00  0.00    +0.000 Cl
ATOM     31  C   UNL     1       2.054   3.271  19.488  0.00  0.00    +0.000 A 
ATOM     32  C   UNL     1       1.789   4.568  19.930  0.00  0.00    +0.000 A 
ENDBRANCH  24  26
ENDBRANCH  21  22
ENDBRANCH   2  21
TORSDOF 6
ENDMDL
MODEL 7
REMARK VINA RESULT:      -7.3      1.273      1.474
REMARK  Name = 
REMARK  7 active torsions:
REMARK  status: ('A' for Active; 'I' for Inactive)
REMARK    1  A    between atoms: C_1  and  N_2
REMARK    2  A    between atoms: N_2  and  C_3
REMARK    3  A    between atoms: C_3  and  C_4
REMARK    4  A    between atoms: N_6  and  C_7
REMARK    5  A    between atoms: C_14  and  C_16
REMARK    6  A    between atoms: C_18  and  C_19
REMARK    7  A    between atoms: N_25  and  C_26
REMARK                            x       y       z     vdW  Elec       q    Type
REMARK                         _______ _______ _______ _____ _____    ______ ____
ROOT
ATOM      1  C   UNL     1      -0.326   8.425  22.022  0.00  0.00    +0.000 C 
ATOM      2  N   UNL     1       0.420   9.356  21.185  0.00  0.00    +0.000 N 
ATOM      3  C   UNL     1       0.109  10.721  21.340  0.00  0.00    +0.000 C 
ATOM      4  O   UNL     1      -0.605  11.062  22.284  0.00  0.00    +0.000 OA
ENDROOT
BRANCH   3   5
ATOM      5  C   UNL     1       0.613  11.696  20.392  0.00  0.00    +0.000 A 
ATOM      6  C   UNL     1       1.659  12.596  20.522  0.00  0.00    +0.000 A 
ATOM      7  C   UNL     1       1.648  13.408  19.384  0.00  0.00    +0.000 A 
ATOM      8  N   UNL     1       0.625  13.109  18.591  0.00  0.00    +0.000 NA
ATOM      9  N   UNL     1       0.005  12.039  19.178  0.00  0.00    +0.000 N 
BRANCH   9  10
ATOM     10  C   UNL     1      -1.096  11.449  18.482  0.00  0.00    +0.000 A 
ATOM     11  C   UNL     1      -0.960  10.308  17.685  0.00  0.00    +0.000 A 
ATOM     12  C   UNL     1      -2.078   9.754  17.050  0.00  0.00    +0.000 A 
ATOM     13  C   UNL     1      -3.335  10.337  17.202  0.00  0.00    +0.000 A 
ATOM     14  C   UNL     1      -3.476  11.489  17.969  0.00  0.00    +0.000 A 
ATOM     15  C   UNL     1      -2.361  12.052  18.596  0.00  0.00    +0.000 A 
ENDBRANCH   9  10
BRANCH   7  16
ATOM     16  C   UNL     1       2.631  14.502  19.090  0.00  0.00    +0.000 A 
ATOM     17  C   UNL     1       2.643  15.246  17.929  0.00  0.00    +0.000 A 
ATOM     18  C   UNL     1       3.692  16.215  17.922  0.00  0.00    +0.000 A 
ATOM     19  C   UNL     1       4.443  16.171  19.075  0.00  0.00    +0.000 A 
ATOM     20  S   UNL     1       3.886  14.971  20.155  0.00  0.00    +0.000 S 
ENDBRANCH   7  16
ENDBRANCH   3   5
BRANCH   2  21
ATOM     21  C   UNL     1       1.453   8.847  20.279  0.00  0.00    +0.000 C 
BRANCH  21  22
ATOM     22  C   UNL     1       1.753   7.354  20.175  0.00  0.00    +0.000 C 
ATOM     23  O   UNL     1       1.416   6.574  21.060  0.00  0.00    +0.000 OA
ATOM     24  N   UNL     1       2.438   7.015  19.013  0.00  0.00    +0.000 N 
ATOM     25  H   UNL     1       3.015   7.743  18.608  0.00  0.00    +0.000 HD
BRANCH  24  26
ATOM     26  C   UNL     1       2.788   5.682  18.736  0.00  0.00    +0.000 A 
ATOM     27  C   UNL     1       1.987   4.870  17.927  0.00  0.00    +0.000 A 
ATOM     28  C   UNL     1       2.299   3.520  17.761  0.00  0.00    +0.000 A 
ATOM     29  C   UNL     1       3.402   2.986  18.422  0.00  0.00    +0.000 A 
ATOM     30 CL   UNL     1       3.731   1.302  18.311  0.00  0.00    +0.000 Cl
ATOM     31  C   UNL     1       4.229   3.802  19.193  0.00  0.00    +0.000 A 
ATOM     32  C   UNL     1       3.943   5.162  19.322  0.00  0.00    +0.000 A 
ENDBRANCH  24  26
ENDBRANCH  21  22
ENDBRANCH   2  21
TORSDOF 6
ENDMDL
MODEL 8
REMARK VINA RESULT:      -7.2      1.180      1.559
REMARK  Name = 
REMARK  7 active torsions:
REMARK  status: ('A' for Active; 'I' for Inactive)
REMARK    1  A    between atoms: C_1  and  N_2
REMARK    2  A    between atoms: N_2  and  C_3
REMARK    3  A    between atoms: C_3  and  C_4
REMARK    4  A    between atoms: N_6  and  C_7
REMARK    5  A    between atoms: C_14  and  C_16
REMARK    6  A    between atoms: C_18  and  C_19
REMARK    7  A    between atoms: N_25  and  C_26
REMARK                            x       y       z     vdW  Elec       q    Type
REMARK                         _______ _______ _______ _____ _____    ______ ____
ROOT
ATOM      1  C   UNL     1      -0.955   9.913  23.206  0.00  0.00    +0.000 C 
ATOM      2  N   UNL     1      -0.015  10.551  22.295  0.00  0.00    +0.000 N 
ATOM      3  C   UNL     1      -0.235  11.916  22.027  0.00  0.00    +0.000 C 
ATOM      4  O   UNL     1      -1.059  12.527  22.708  0.00  0.00    +0.000 OA
ENDROOT
BRANCH   3   5
ATOM      5  C   UNL     1       0.488  12.575  20.956  0.00  0.00    +0.000 A 
ATOM      6  C   UNL     1       1.530  13.486  21.024  0.00  0.00    +0.000 A 
ATOM      7  C   UNL     1       1.779  13.927  19.721  0.00  0.00    +0.000 A 
ATOM      8  N   UNL     1       0.915  13.396  18.862  0.00  0.00    +0.000 NA
ATOM      9  N   UNL     1       0.144  12.539  19.599  0.00  0.00    +0.000 N 
BRANCH   9  10
ATOM     10  C   UNL     1      -0.829  11.757  18.901  0.00  0.00    +0.000 A 
ATOM     11  C   UNL     1      -2.172  12.133  18.806  0.00  0.00    +0.000 A 
ATOM     12  C   UNL     1      -3.076  11.344  18.083  0.00  0.00    +0.000 A 
ATOM     13  C   UNL     1      -2.646  10.175  17.457  0.00  0.00    +0.000 A 
ATOM     14  C   UNL     1      -1.319   9.777  17.571  0.00  0.00    +0.000 A 
ATOM     15  C   UNL     1      -0.415  10.554  18.300  0.00  0.00    +0.000 A 
ENDBRANCH   9  10
BRANCH   7  16
ATOM     16  C   UNL     1       2.850  14.898  19.323  0.00  0.00    +0.000 A 
ATOM     17  C   UNL     1       2.935  16.195  19.782  0.00  0.00    +0.000 A 
ATOM     18  C   UNL     1       4.055  16.888  19.232  0.00  0.00    +0.000 A 
ATOM     19  C   UNL     1       4.781  16.096  18.371  0.00  0.00    +0.000 A 
ATOM     20  S   UNL     1       4.115  14.530  18.229  0.00  0.00    +0.000 S 
ENDBRANCH   7  16
ENDBRANCH   3   5
BRANCH   2  21
ATOM     21  C   UNL     1       1.104   9.777  21.749  0.00  0.00    +0.000 C 
BRANCH  21  22
ATOM     22  C   UNL     1       0.896   8.377  21.178  0.00  0.00    +0.000 C 
ATOM     23  O   UNL     1      -0.199   7.825  21.226  0.00  0.00    +0.000 OA
ATOM     24  N   UNL     1       2.056   7.831  20.637  0.00  0.00    +0.000 N 
ATOM     25  H   UNL     1       2.929   8.165  21.028  0.00  0.00    +0.000 HD
BRANCH  24  26
ATOM     26  C   UNL     1       2.054   6.553  20.050  0.00  0.00    +0.000 A 
ATOM     27  C   UNL     1       2.353   6.373  18.696  0.00  0.00    +0.000 A 
ATOM     28  C   UNL     1       2.234   5.109  18.115  0.00  0.00    +0.000 A 
ATOM     29  C   UNL     1       1.801   4.037  18.890  0.00  0.00    +0.000 A 
ATOM     30 CL   UNL     1       1.547   2.501  18.159  0.00  0.00    +0.000 Cl
ATOM     31  C   UNL     1       1.547   4.204  20.251  0.00  0.00    +0.000 A 
ATOM     32  C   UNL     1       1.708   5.459  20.842  0.00  0.00    +0.000 A 
ENDBRANCH  24  26
ENDBRANCH  21  22
ENDBRANCH   2  21
TORSDOF 6
ENDMDL
MODEL 9
REMARK VINA RESULT:      -7.2      2.831      4.561
REMARK  Name = 
REMARK  7 active torsions:
REMARK  status: ('A' for Active; 'I' for Inactive)
REMARK    1  A    between atoms: C_1  and  N_2
REMARK    2  A    between atoms: N_2  and  C_3
REMARK    3  A    between atoms: C_3  and  C_4
REMARK    4  A    between atoms: N_6  and  C_7
REMARK    5  A    between atoms: C_14  and  C_16
REMARK    6  A    between atoms: C_18  and  C_19
REMARK    7  A    between atoms: N_25  and  C_26
REMARK                            x       y       z     vdW  Elec       q    Type
REMARK                         _______ _______ _______ _____ _____    ______ ____
ROOT
ATOM      1  C   UNL     1       2.290  12.219  18.374  0.00  0.00    +0.000 C 
ATOM      2  N   UNL     1       1.002  11.878  18.962  0.00  0.00    +0.000 N 
ATOM      3  C   UNL     1      -0.045  12.796  18.747  0.00  0.00    +0.000 C 
ATOM      4  O   UNL     1       0.123  13.705  17.933  0.00  0.00    +0.000 OA
ENDROOT
BRANCH   3   5
ATOM      5  C   UNL     1      -1.286  12.674  19.487  0.00  0.00    +0.000 A 
ATOM      6  C   UNL     1      -1.588  13.080  20.777  0.00  0.00    +0.000 A 
ATOM      7  C   UNL     1      -2.871  12.605  21.071  0.00  0.00    +0.000 A 
ATOM      8  N   UNL     1      -3.352  11.878  20.069  0.00  0.00    +0.000 NA
ATOM      9  N   UNL     1      -2.408  11.942  19.080  0.00  0.00    +0.000 N 
BRANCH   9  10
ATOM     10  C   UNL     1      -2.710  11.307  17.834  0.00  0.00    +0.000 A 
ATOM     11  C   UNL     1      -1.871  10.351  17.253  0.00  0.00    +0.000 A 
ATOM     12  C   UNL     1      -2.231   9.738  16.046  0.00  0.00    +0.000 A 
ATOM     13  C   UNL     1      -3.423  10.081  15.411  0.00  0.00    +0.000 A 
ATOM     14  C   UNL     1      -4.249  11.052  15.965  0.00  0.00    +0.000 A 
ATOM     15  C   UNL     1      -3.890  11.674  17.164  0.00  0.00    +0.000 A 
ENDBRANCH   9  10
BRANCH   7  16
ATOM     16  C   UNL     1      -3.612  12.842  22.352  0.00  0.00    +0.000 A 
ATOM     17  C   UNL     1      -3.314  12.228  23.549  0.00  0.00    +0.000 A 
ATOM     18  C   UNL     1      -4.188  12.642  24.599  0.00  0.00    +0.000 A 
ATOM     19  C   UNL     1      -5.123  13.555  24.163  0.00  0.00    +0.000 A 
ATOM     20  S   UNL     1      -4.945  13.906  22.502  0.00  0.00    +0.000 S 
ENDBRANCH   7  16
ENDBRANCH   3   5
BRANCH   2  21
ATOM     21  C   UNL     1       0.850  10.617  19.693  0.00  0.00    +0.000 C 
BRANCH  21  22
ATOM     22  C   UNL     1       1.276   9.287  19.078  0.00  0.00    +0.000 C 
ATOM     23  O   UNL     1       1.169   9.078  17.874  0.00  0.00    +0.000 OA
ATOM     24  N   UNL     1       1.762   8.383  20.017  0.00  0.00    +0.000 N 
ATOM     25  H   UNL     1       1.410   8.489  20.961  0.00  0.00    +0.000 HD
BRANCH  24  26
ATOM     26  C   UNL     1       2.218   7.109  19.635  0.00  0.00    +0.000 A 
ATOM     27  C   UNL     1       1.874   5.963  20.360  0.00  0.00    +0.000 A 
ATOM     28  C   UNL     1       2.431   4.729  20.024  0.00  0.00    +0.000 A 
ATOM     29  C   UNL     1       3.343   4.651  18.974  0.00  0.00    +0.000 A 
ATOM     30 CL   UNL     1       4.116   3.155  18.624  0.00  0.00    +0.000 Cl
ATOM     31  C   UNL     1       3.652   5.783  18.221  0.00  0.00    +0.000 A 
ATOM     32  C   UNL     1       3.061   7.009  18.529  0.00  0.00    +0.000 A 
ENDBRANCH  24  26
ENDBRANCH  21  22
ENDBRANCH   2  21
TORSDOF 6
ENDMDL
