MODEL 1
REMARK VINA RESULT:      -8.1      0.000      0.000
REMARK  Name = 
REMARK  8 active torsions:
REMARK  status: ('A' for Active; 'I' for Inactive)
REMARK    1  A    between atoms: C_1  and  C_2
REMARK    2  A    between atoms: N_4  and  C_5
REMARK    3  A    between atoms: C_8  and  N_9
REMARK    4  A    between atoms: C_10  and  C_12
REMARK    5  A    between atoms: C_12  and  O_13
REMARK    6  A    between atoms: O_13  and  C_14
REMARK    7  A    between atoms: C_16  and  C_17
REMARK    8  A    between atoms: C_24  and  C_25
REMARK                            x       y       z     vdW  Elec       q    Type
REMARK                         _______ _______ _______ _____ _____    ______ ____
ROOT
ATOM      1  N   UNL     1       3.176   2.911  20.525  0.00  0.00    +0.000 N 
ATOM      2  C   UNL     1       2.280   3.738  21.163  0.00  0.00    +0.000 C 
ATOM      3  O   UNL     1       2.041   3.538  22.360  0.00  0.00    +0.000 OA
ATOM      4  H   UNL     1       3.775   2.462  21.218  0.00  0.00    +0.000 HD
ENDROOT
BRANCH   1   8
ATOM      5  C   UNL     1       4.963   3.962  16.877  0.00  0.00    +0.000 A 
ATOM      6  C   UNL     1       5.565   4.312  18.087  0.00  0.00    +0.000 A 
ATOM      7  C   UNL     1       4.994   3.937  19.306  0.00  0.00    +0.000 A 
ATOM      8  C   UNL     1       3.784   3.264  19.313  0.00  0.00    +0.000 A 
ATOM      9  C   UNL     1       3.157   2.911  18.118  0.00  0.00    +0.000 A 
ATOM     10  C   UNL     1       3.745   3.266  16.901  0.00  0.00    +0.000 A 
BRANCH   5  14
ATOM     11  C   UNL     1       7.101   4.851  13.902  0.00  0.00    +0.000 C 
ATOM     12  C   UNL     1       6.852   4.527  15.353  0.00  0.00    +0.000 C 
ATOM     13  O   UNL     1       7.780   4.507  16.155  0.00  0.00    +0.000 OA
ATOM     14  N   UNL     1       5.517   4.269  15.618  0.00  0.00    +0.000 N 
ATOM     15  H   UNL     1       4.898   4.201  14.822  0.00  0.00    +0.000 HD
ENDBRANCH   5  14
ENDBRANCH   1   8
BRANCH   2  16
ATOM     16  C   UNL     1       1.550   4.813  20.367  0.00  0.00    +0.000 C 
BRANCH  16  17
ATOM     17  O   UNL     1       1.769   6.158  20.815  0.00  0.00    +0.000 OA
BRANCH  17  18
ATOM     18  C   UNL     1       1.995   7.075  19.803  0.00  0.00    +0.000 A 
ATOM     19  C   UNL     1       2.815   6.743  18.697  0.00  0.00    +0.000 A 
ATOM     20  C   UNL     1       3.154   7.668  17.705  0.00  0.00    +0.000 A 
ATOM     21  C   UNL     1       4.101   7.317  16.600  0.00  0.00    +0.000 C 
ATOM     22  C   UNL     1       2.627   8.945  17.794  0.00  0.00    +0.000 A 
ATOM     23  C   UNL     1       1.789   9.272  18.862  0.00  0.00    +0.000 A 
ATOM     24  O   UNL     1       1.410  10.630  18.870  0.00  0.00    +0.000 OA
ATOM     25  C   UNL     1       0.848  11.168  20.005  0.00  0.00    +0.000 A 
ATOM     26  O   UNL     1       0.825  12.374  20.222  0.00  0.00    +0.000 OA
ATOM     27  C   UNL     1       0.221  10.214  20.917  0.00  0.00    +0.000 A 
ATOM     28  C   UNL     1       0.482   8.896  20.900  0.00  0.00    +0.000 A 
ATOM     29  C   UNL     1      -0.186   8.027  21.921  0.00  0.00    +0.000 C 
ATOM     30  C   UNL     1       1.419   8.368  19.878  0.00  0.00    +0.000 A 
ENDBRANCH  17  18
ENDBRANCH  16  17
ENDBRANCH   2  16
TORSDOF 5
ENDMDL
MODEL 2
REMARK VINA RESULT:      -8.0      3.532      7.633
REMARK  Name = 
REMARK  8 active torsions:
REMARK  status: ('A' for Active; 'I' for Inactive)
REMARK    1  A    between atoms: C_1  and  C_2
REMARK    2  A    between atoms: N_4  and  C_5
REMARK    3  A    between atoms: C_8  and  N_9
REMARK    4  A    between atoms: C_10  and  C_12
REMARK    5  A    between atoms: C_12  and  O_13
REMARK    6  A    between atoms: O_13  and  C_14
REMARK    7  A    between atoms: C_16  and  C_17
REMARK    8  A    between atoms: C_24  and  C_25
REMARK                            x       y       z     vdW  Elec       q    Type
REMARK                         _______ _______ _______ _____ _____    ______ ____
ROOT
ATOM      1  N   UNL     1       1.087  10.375  21.345  0.00  0.00    +0.000 N 
ATOM      2  C   UNL     1       1.290   9.148  21.934  0.00  0.00    +0.000 C 
ATOM      3  O   UNL     1       1.699   9.113  23.102  0.00  0.00    +0.000 OA
ATOM      4  H   UNL     1       0.977  11.083  22.070  0.00  0.00    +0.000 HD
ENDROOT
BRANCH   1   8
ATOM      5  C   UNL     1      -1.254  10.811  17.891  0.00  0.00    +0.000 A 
ATOM      6  C   UNL     1      -1.709  11.293  19.121  0.00  0.00    +0.000 A 
ATOM      7  C   UNL     1      -0.921  11.181  20.269  0.00  0.00    +0.000 A 
ATOM      8  C   UNL     1       0.299  10.529  20.198  0.00  0.00    +0.000 A 
ATOM      9  C   UNL     1       0.772  10.031  18.984  0.00  0.00    +0.000 A 
ATOM     10  C   UNL     1      -0.009  10.167  17.833  0.00  0.00    +0.000 A 
BRANCH   5  14
ATOM     11  C   UNL     1      -3.593  10.546  14.946  0.00  0.00    +0.000 C 
ATOM     12  C   UNL     1      -3.065  10.164  16.305  0.00  0.00    +0.000 C 
ATOM     13  O   UNL     1      -3.588   9.258  16.945  0.00  0.00    +0.000 OA
ATOM     14  N   UNL     1      -1.983  10.939  16.691  0.00  0.00    +0.000 N 
ATOM     15  H   UNL     1      -1.754  11.728  16.105  0.00  0.00    +0.000 HD
ENDBRANCH   5  14
ENDBRANCH   1   8
BRANCH   2  16
ATOM     16  C   UNL     1       1.090   7.878  21.116  0.00  0.00    +0.000 C 
BRANCH  16  17
ATOM     17  O   UNL     1       2.192   7.515  20.273  0.00  0.00    +0.000 OA
BRANCH  17  18
ATOM     18  C   UNL     1       2.292   6.162  20.001  0.00  0.00    +0.000 A 
ATOM     19  C   UNL     1       1.712   5.206  20.870  0.00  0.00    +0.000 A 
ATOM     20  C   UNL     1       1.874   3.829  20.691  0.00  0.00    +0.000 A 
ATOM     21  C   UNL     1       1.330   2.845  21.680  0.00  0.00    +0.000 C 
ATOM     22  C   UNL     1       2.596   3.392  19.595  0.00  0.00    +0.000 A 
ATOM     23  C   UNL     1       3.144   4.326  18.713  0.00  0.00    +0.000 A 
ATOM     24  O   UNL     1       3.931   3.736  17.703  0.00  0.00    +0.000 OA
ATOM     25  C   UNL     1       4.773   4.526  16.954  0.00  0.00    +0.000 A 
ATOM     26  O   UNL     1       5.723   4.070  16.330  0.00  0.00    +0.000 OA
ATOM     27  C   UNL     1       4.428   5.945  16.898  0.00  0.00    +0.000 A 
ATOM     28  C   UNL     1       3.616   6.544  17.784  0.00  0.00    +0.000 A 
ATOM     29  C   UNL     1       3.381   8.017  17.650  0.00  0.00    +0.000 C 
ATOM     30  C   UNL     1       2.998   5.721  18.854  0.00  0.00    +0.000 A 
ENDBRANCH  17  18
ENDBRANCH  16  17
ENDBRANCH   2  16
TORSDOF 5
ENDMDL
MODEL 3
REMARK VINA RESULT:      -7.8      3.311      5.343
REMARK  Name = 
REMARK  8 active torsions:
REMARK  status: ('A' for Active; 'I' for Inactive)
REMARK    1  A    between atoms: C_1  and  C_2
REMARK    2  A    between atoms: N_4  and  C_5
REMARK    3  A    between atoms: C_8  and  N_9
REMARK    4  A    between atoms: C_10  and  C_12
REMARK    5  A    between atoms: C_12  and  O_13
REMARK    6  A    between atoms: O_13  and  C_14
REMARK    7  A    between atoms: C_16  and  C_17
REMARK    8  A    between atoms: C_24  and  C_25
REMARK                            x       y       z     vdW  Elec       q    Type
REMARK                         _______ _______ _______ _____ _____    ______ ____
ROOT
ATOM      1  N   UNL     1       7.891   4.276  17.795  0.00  0.00    +0.000 N 
ATOM      2  C   UNL     1       7.703   5.233  18.765  0.00  0.00    +0.000 C 
ATOM      3  O   UNL     1       8.579   5.380  19.628  0.00  0.00    +0.000 OA
ATOM      4  H   UNL     1       8.885   4.056  17.725  0.00  0.00    +0.000 HD
ENDROOT
BRANCH   1   8
ATOM      5  C   UNL     1       5.695   4.273  14.220  0.00  0.00    +0.000 A 
ATOM      6  C   UNL     1       6.895   4.981  14.313  0.00  0.00    +0.000 A 
ATOM      7  C   UNL     1       7.649   4.960  15.490  0.00  0.00    +0.000 A 
ATOM      8  C   UNL     1       7.169   4.279  16.596  0.00  0.00    +0.000 A 
ATOM      9  C   UNL     1       5.968   3.572  16.531  0.00  0.00    +0.000 A 
ATOM     10  C   UNL     1       5.230   3.575  15.345  0.00  0.00    +0.000 A 
BRANCH   5  14
ATOM     11  C   UNL     1       4.085   3.547  10.890  0.00  0.00    +0.000 C 
ATOM     12  C   UNL     1       5.062   3.307  12.011  0.00  0.00    +0.000 C 
ATOM     13  O   UNL     1       5.868   2.385  11.949  0.00  0.00    +0.000 OA
ATOM     14  N   UNL     1       4.917   4.217  13.046  0.00  0.00    +0.000 N 
ATOM     15  H   UNL     1       4.121   4.838  13.001  0.00  0.00    +0.000 HD
ENDBRANCH   5  14
ENDBRANCH   1   8
BRANCH   2  16
ATOM     16  C   UNL     1       6.399   6.021  18.803  0.00  0.00    +0.000 C 
BRANCH  16  17
ATOM     17  O   UNL     1       5.307   5.362  19.459  0.00  0.00    +0.000 OA
BRANCH  17  18
ATOM     18  C   UNL     1       4.072   5.560  18.867  0.00  0.00    +0.000 A 
ATOM     19  C   UNL     1       3.668   6.853  18.453  0.00  0.00    +0.000 A 
ATOM     20  C   UNL     1       2.393   7.118  17.945  0.00  0.00    +0.000 A 
ATOM     21  C   UNL     1       1.961   8.510  17.607  0.00  0.00    +0.000 C 
ATOM     22  C   UNL     1       1.512   6.060  17.806  0.00  0.00    +0.000 A 
ATOM     23  C   UNL     1       1.912   4.775  18.178  0.00  0.00    +0.000 A 
ATOM     24  O   UNL     1       0.879   3.822  18.070  0.00  0.00    +0.000 OA
ATOM     25  C   UNL     1       1.023   2.597  18.679  0.00  0.00    +0.000 A 
ATOM     26  O   UNL     1       0.069   1.872  18.938  0.00  0.00    +0.000 OA
ATOM     27  C   UNL     1       2.398   2.179  18.948  0.00  0.00    +0.000 A 
ATOM     28  C   UNL     1       3.435   3.032  18.981  0.00  0.00    +0.000 A 
ATOM     29  C   UNL     1       4.790   2.489  19.319  0.00  0.00    +0.000 C 
ATOM     30  C   UNL     1       3.190   4.465  18.688  0.00  0.00    +0.000 A 
ENDBRANCH  17  18
ENDBRANCH  16  17
ENDBRANCH   2  16
TORSDOF 5
ENDMDL
MODEL 4
REMARK VINA RESULT:      -7.2      3.201      7.625
REMARK  Name = 
REMARK  8 active torsions:
REMARK  status: ('A' for Active; 'I' for Inactive)
REMARK    1  A    between atoms: C_1  and  C_2
REMARK    2  A    between atoms: N_4  and  C_5
REMARK    3  A    between atoms: C_8  and  N_9
REMARK    4  A    between atoms: C_10  and  C_12
REMARK    5  A    between atoms: C_12  and  O_13
REMARK    6  A    between atoms: O_13  and  C_14
REMARK    7  A    between atoms: C_16  and  C_17
REMARK    8  A    between atoms: C_24  and  C_25
REMARK                            x       y       z     vdW  Elec       q    Type
REMARK                         _______ _______ _______ _____ _____    ______ ____
ROOT
ATOM      1  N   UNL     1      -0.238   9.913  21.180  0.00  0.00    +0.000 N 
ATOM      2  C   UNL     1       0.098   8.582  21.273  0.00  0.00    +0.000 C 
ATOM      3  O   UNL     1      -0.776   7.773  21.609  0.00  0.00    +0.000 OA
ATOM      4  H   UNL     1      -1.248   9.999  21.071  0.00  0.00    +0.000 HD
ENDROOT
BRANCH   1   8
ATOM      5  C   UNL     1       2.094  12.654  19.024  0.00  0.00    +0.000 A 
ATOM      6  C   UNL     1       1.878  12.831  20.392  0.00  0.00    +0.000 A 
ATOM      7  C   UNL     1       1.129  11.905  21.124  0.00  0.00    +0.000 A 
ATOM      8  C   UNL     1       0.546  10.832  20.472  0.00  0.00    +0.000 A 
ATOM      9  C   UNL     1       0.739  10.638  19.104  0.00  0.00    +0.000 A 
ATOM     10  C   UNL     1       1.509  11.553  18.381  0.00  0.00    +0.000 A 
BRANCH   5  14
ATOM     11  C   UNL     1       3.714  15.528  17.201  0.00  0.00    +0.000 C 
ATOM     12  C   UNL     1       2.724  14.901  18.147  0.00  0.00    +0.000 C 
ATOM     13  O   UNL     1       1.901  15.592  18.737  0.00  0.00    +0.000 OA
ATOM     14  N   UNL     1       2.880  13.527  18.244  0.00  0.00    +0.000 N 
ATOM     15  H   UNL     1       3.688  13.125  17.790  0.00  0.00    +0.000 HD
ENDBRANCH   5  14
ENDBRANCH   1   8
BRANCH   2  16
ATOM     16  C   UNL     1       1.543   8.153  21.044  0.00  0.00    +0.000 C 
BRANCH  16  17
ATOM     17  O   UNL     1       1.817   7.603  19.747  0.00  0.00    +0.000 OA
BRANCH  17  18
ATOM     18  C   UNL     1       2.276   6.297  19.758  0.00  0.00    +0.000 A 
ATOM     19  C   UNL     1       1.739   5.351  20.665  0.00  0.00    +0.000 A 
ATOM     20  C   UNL     1       2.241   4.051  20.783  0.00  0.00    +0.000 A 
ATOM     21  C   UNL     1       1.718   3.104  21.817  0.00  0.00    +0.000 C 
ATOM     22  C   UNL     1       3.275   3.671  19.947  0.00  0.00    +0.000 A 
ATOM     23  C   UNL     1       3.789   4.586  19.025  0.00  0.00    +0.000 A 
ATOM     24  O   UNL     1       4.898   4.088  18.312  0.00  0.00    +0.000 OA
ATOM     25  C   UNL     1       5.692   4.959  17.602  0.00  0.00    +0.000 A 
ATOM     26  O   UNL     1       6.838   4.683  17.267  0.00  0.00    +0.000 OA
ATOM     27  C   UNL     1       5.062   6.219  17.215  0.00  0.00    +0.000 A 
ATOM     28  C   UNL     1       3.955   6.703  17.802  0.00  0.00    +0.000 A 
ATOM     29  C   UNL     1       3.435   8.033  17.351  0.00  0.00    +0.000 C 
ATOM     30  C   UNL     1       3.307   5.902  18.870  0.00  0.00    +0.000 A 
ENDBRANCH  17  18
ENDBRANCH  16  17
ENDBRANCH   2  16
TORSDOF 5
ENDMDL
MODEL 5
REMARK VINA RESULT:      -7.2      3.738      8.103
REMARK  Name = 
REMARK  8 active torsions:
REMARK  status: ('A' for Active; 'I' for Inactive)
REMARK    1  A    between atoms: C_1  and  C_2
REMARK    2  A    between atoms: N_4  and  C_5
REMARK    3  A    between atoms: C_8  and  N_9
REMARK    4  A    between atoms: C_10  and  C_12
REMARK    5  A    between atoms: C_12  and  O_13
REMARK    6  A    between atoms: O_13  and  C_14
REMARK    7  A    between atoms: C_16  and  C_17
REMARK    8  A    between atoms: C_24  and  C_25
REMARK                            x       y       z     vdW  Elec       q    Type
REMARK                         _______ _______ _______ _____ _____    ______ ____
ROOT
ATOM      1  N   UNL     1       0.774  10.616  21.667  0.00  0.00    +0.000 N 
ATOM      2  C   UNL     1       1.092   9.324  22.018  0.00  0.00    +0.000 C 
ATOM      3  O   UNL     1       1.603   9.122  23.127  0.00  0.00    +0.000 OA
ATOM      4  H   UNL     1       0.691  11.184  22.509  0.00  0.00    +0.000 HD
ENDROOT
BRANCH   1   8
ATOM      5  C   UNL     1      -1.917  11.519  18.577  0.00  0.00    +0.000 A 
ATOM      6  C   UNL     1      -0.790  10.734  18.327  0.00  0.00    +0.000 A 
ATOM      7  C   UNL     1       0.094  10.401  19.358  0.00  0.00    +0.000 A 
ATOM      8  C   UNL     1      -0.119  10.908  20.629  0.00  0.00    +0.000 A 
ATOM      9  C   UNL     1      -1.233  11.702  20.902  0.00  0.00    +0.000 A 
ATOM     10  C   UNL     1      -2.127  12.012  19.874  0.00  0.00    +0.000 A 
BRANCH   5  14
ATOM     11  C   UNL     1      -4.846  11.794  16.220  0.00  0.00    +0.000 C 
ATOM     12  C   UNL     1      -4.082  11.212  17.381  0.00  0.00    +0.000 C 
ATOM     13  O   UNL     1      -4.548  10.281  18.029  0.00  0.00    +0.000 OA
ATOM     14  N   UNL     1      -2.868  11.847  17.590  0.00  0.00    +0.000 N 
ATOM     15  H   UNL     1      -2.689  12.680  17.048  0.00  0.00    +0.000 HD
ENDBRANCH   5  14
ENDBRANCH   1   8
BRANCH   2  16
ATOM     16  C   UNL     1       0.887   8.198  21.011  0.00  0.00    +0.000 C 
BRANCH  16  17
ATOM     17  O   UNL     1       2.035   7.878  20.213  0.00  0.00    +0.000 OA
BRANCH  17  18
ATOM     18  C   UNL     1       2.178   6.533  19.920  0.00  0.00    +0.000 A 
ATOM     19  C   UNL     1       1.636   5.545  20.778  0.00  0.00    +0.000 A 
ATOM     20  C   UNL     1       1.843   4.177  20.578  0.00  0.00    +0.000 A 
ATOM     21  C   UNL     1       1.340   3.161  21.555  0.00  0.00    +0.000 C 
ATOM     22  C   UNL     1       2.573   3.781  19.471  0.00  0.00    +0.000 A 
ATOM     23  C   UNL     1       3.083   4.745  18.600  0.00  0.00    +0.000 A 
ATOM     24  O   UNL     1       3.883   4.198  17.576  0.00  0.00    +0.000 OA
ATOM     25  C   UNL     1       4.692   5.026  16.834  0.00  0.00    +0.000 A 
ATOM     26  O   UNL     1       5.653   4.612  16.197  0.00  0.00    +0.000 OA
ATOM     27  C   UNL     1       4.299   6.433  16.801  0.00  0.00    +0.000 A 
ATOM     28  C   UNL     1       3.474   6.991  17.701  0.00  0.00    +0.000 A 
ATOM     29  C   UNL     1       3.188   8.458  17.591  0.00  0.00    +0.000 C 
ATOM     30  C   UNL     1       2.891   6.133  18.762  0.00  0.00    +0.000 A 
ENDBRANCH  17  18
ENDBRANCH  16  17
ENDBRANCH   2  16
TORSDOF 5
ENDMDL
MODEL 6
REMARK VINA RESULT:      -7.2      3.554      5.456
REMARK  Name = 
REMARK  8 active torsions:
REMARK  status: ('A' for Active; 'I' for Inactive)
REMARK    1  A    between atoms: C_1  and  C_2
REMARK    2  A    between atoms: N_4  and  C_5
REMARK    3  A    between atoms: C_8  and  N_9
REMARK    4  A    between atoms: C_10  and  C_12
REMARK    5  A    between atoms: C_12  and  O_13
REMARK    6  A    between atoms: O_13  and  C_14
REMARK    7  A    between atoms: C_16  and  C_17
REMARK    8  A    between atoms: C_24  and  C_25
REMARK                            x       y       z     vdW  Elec       q    Type
REMARK                         _______ _______ _______ _____ _____    ______ ____
ROOT
ATOM      1  N   UNL     1       7.728   6.142  17.481  0.00  0.00    +0.000 N 
ATOM      2  C   UNL     1       7.442   5.867  18.798  0.00  0.00    +0.000 C 
ATOM      3  O   UNL     1       7.880   6.628  19.670  0.00  0.00    +0.000 OA
ATOM      4  H   UNL     1       7.974   7.128  17.388  0.00  0.00    +0.000 HD
ENDROOT
BRANCH   1   8
ATOM      5  C   UNL     1       5.524   4.496  14.313  0.00  0.00    +0.000 A 
ATOM      6  C   UNL     1       6.604   3.800  14.862  0.00  0.00    +0.000 A 
ATOM      7  C   UNL     1       7.323   4.327  15.938  0.00  0.00    +0.000 A 
ATOM      8  C   UNL     1       6.997   5.581  16.427  0.00  0.00    +0.000 A 
ATOM      9  C   UNL     1       5.929   6.300  15.891  0.00  0.00    +0.000 A 
ATOM     10  C   UNL     1       5.197   5.758  14.830  0.00  0.00    +0.000 A 
BRANCH   5  14
ATOM     11  C   UNL     1       4.084   2.968  11.183  0.00  0.00    +0.000 C 
ATOM     12  C   UNL     1       5.196   3.350  12.124  0.00  0.00    +0.000 C 
ATOM     13  O   UNL     1       6.362   3.084  11.852  0.00  0.00    +0.000 OA
ATOM     14  N   UNL     1       4.733   3.994  13.260  0.00  0.00    +0.000 N 
ATOM     15  H   UNL     1       3.732   4.022  13.393  0.00  0.00    +0.000 HD
ENDBRANCH   5  14
ENDBRANCH   1   8
BRANCH   2  16
ATOM     16  C   UNL     1       6.673   4.599  19.153  0.00  0.00    +0.000 C 
BRANCH  16  17
ATOM     17  O   UNL     1       5.487   4.804  19.933  0.00  0.00    +0.000 OA
BRANCH  17  18
ATOM     18  C   UNL     1       4.361   5.132  19.198  0.00  0.00    +0.000 A 
ATOM     19  C   UNL     1       4.150   6.461  18.755  0.00  0.00    +0.000 A 
ATOM     20  C   UNL     1       2.981   6.860  18.100  0.00  0.00    +0.000 A 
ATOM     21  C   UNL     1       2.744   8.291  17.730  0.00  0.00    +0.000 C 
ATOM     22  C   UNL     1       2.017   5.902  17.841  0.00  0.00    +0.000 A 
ATOM     23  C   UNL     1       2.230   4.582  18.243  0.00  0.00    +0.000 A 
ATOM     24  O   UNL     1       1.123   3.744  17.998  0.00  0.00    +0.000 OA
ATOM     25  C   UNL     1       1.062   2.511  18.604  0.00  0.00    +0.000 A 
ATOM     26  O   UNL     1       0.012   1.892  18.736  0.00  0.00    +0.000 OA
ATOM     27  C   UNL     1       2.341   1.949  19.032  0.00  0.00    +0.000 A 
ATOM     28  C   UNL     1       3.451   2.686  19.202  0.00  0.00    +0.000 A 
ATOM     29  C   UNL     1       4.690   2.002  19.694  0.00  0.00    +0.000 C 
ATOM     30  C   UNL     1       3.396   4.138  18.900  0.00  0.00    +0.000 A 
ENDBRANCH  17  18
ENDBRANCH  16  17
ENDBRANCH   2  16
TORSDOF 5
ENDMDL
MODEL 7
REMARK VINA RESULT:      -7.2      2.692      3.826
REMARK  Name = 
REMARK  8 active torsions:
REMARK  status: ('A' for Active; 'I' for Inactive)
REMARK    1  A    between atoms: C_1  and  C_2
REMARK    2  A    between atoms: N_4  and  C_5
REMARK    3  A    between atoms: C_8  and  N_9
REMARK    4  A    between atoms: C_10  and  C_12
REMARK    5  A    between atoms: C_12  and  O_13
REMARK    6  A    between atoms: O_13  and  C_14
REMARK    7  A    between atoms: C_16  and  C_17
REMARK    8  A    between atoms: C_24  and  C_25
REMARK                            x       y       z     vdW  Elec       q    Type
REMARK                         _______ _______ _______ _____ _____    ______ ____
ROOT
ATOM      1  N   UNL     1       1.950   6.516  20.491  0.00  0.00    +0.000 N 
ATOM      2  C   UNL     1       1.542   7.830  20.489  0.00  0.00    +0.000 C 
ATOM      3  O   UNL     1       1.185   8.339  21.559  0.00  0.00    +0.000 OA
ATOM      4  H   UNL     1       2.224   6.249  21.436  0.00  0.00    +0.000 HD
ENDROOT
BRANCH   1   8
ATOM      5  C   UNL     1       4.176   4.869  17.339  0.00  0.00    +0.000 A 
ATOM      6  C   UNL     1       4.793   5.684  18.291  0.00  0.00    +0.000 A 
ATOM      7  C   UNL     1       4.065   6.210  19.362  0.00  0.00    +0.000 A 
ATOM      8  C   UNL     1       2.704   5.969  19.445  0.00  0.00    +0.000 A 
ATOM      9  C   UNL     1       2.063   5.166  18.502  0.00  0.00    +0.000 A 
ATOM     10  C   UNL     1       2.799   4.622  17.446  0.00  0.00    +0.000 A 
BRANCH   5  14
ATOM     11  C   UNL     1       6.107   3.995  14.221  0.00  0.00    +0.000 C 
ATOM     12  C   UNL     1       5.483   4.938  15.217  0.00  0.00    +0.000 C 
ATOM     13  O   UNL     1       5.554   6.151  15.056  0.00  0.00    +0.000 OA
ATOM     14  N   UNL     1       4.868   4.272  16.265  0.00  0.00    +0.000 N 
ATOM     15  H   UNL     1       5.008   3.273  16.318  0.00  0.00    +0.000 HD
ENDBRANCH   5  14
ENDBRANCH   1   8
BRANCH   2  16
ATOM     16  C   UNL     1       1.462   8.592  19.171  0.00  0.00    +0.000 C 
BRANCH  16  17
ATOM     17  O   UNL     1       1.109   9.978  19.289  0.00  0.00    +0.000 OA
BRANCH  17  18
ATOM     18  C   UNL     1      -0.173  10.286  18.869  0.00  0.00    +0.000 A 
ATOM     19  C   UNL     1      -0.692   9.736  17.672  0.00  0.00    +0.000 A 
ATOM     20  C   UNL     1      -1.940  10.097  17.155  0.00  0.00    +0.000 A 
ATOM     21  C   UNL     1      -2.421   9.572  15.839  0.00  0.00    +0.000 C 
ATOM     22  C   UNL     1      -2.708  10.998  17.871  0.00  0.00    +0.000 A 
ATOM     23  C   UNL     1      -2.220  11.521  19.071  0.00  0.00    +0.000 A 
ATOM     24  O   UNL     1      -3.068  12.495  19.635  0.00  0.00    +0.000 OA
ATOM     25  C   UNL     1      -2.591  13.310  20.635  0.00  0.00    +0.000 A 
ATOM     26  O   UNL     1      -3.115  14.381  20.920  0.00  0.00    +0.000 OA
ATOM     27  C   UNL     1      -1.449  12.791  21.385  0.00  0.00    +0.000 A 
ATOM     28  C   UNL     1      -0.655  11.807  20.934  0.00  0.00    +0.000 A 
ATOM     29  C   UNL     1       0.517  11.398  21.774  0.00  0.00    +0.000 C 
ATOM     30  C   UNL     1      -0.971  11.178  19.628  0.00  0.00    +0.000 A 
ENDBRANCH  17  18
ENDBRANCH  16  17
ENDBRANCH   2  16
TORSDOF 5
ENDMDL
MODEL 8
REMARK VINA RESULT:      -7.2      3.460      6.218
REMARK  Name = 
REMARK  8 active torsions:
REMARK  status: ('A' for Active; 'I' for Inactive)
REMARK    1  A    between atoms: C_1  and  C_2
REMARK    2  A    between atoms: N_4  and  C_5
REMARK    3  A    between atoms: C_8  and  N_9
REMARK    4  A    between atoms: C_10  and  C_12
REMARK    5  A    between atoms: C_12  and  O_13
REMARK    6  A    between atoms: O_13  and  C_14
REMARK    7  A    between atoms: C_16  and  C_17
REMARK    8  A    between atoms: C_24  and  C_25
REMARK                            x       y       z     vdW  Elec       q    Type
REMARK                         _______ _______ _______ _____ _____    ______ ____
ROOT
ATOM      1  N   UNL     1       7.071   5.001  16.328  0.00  0.00    +0.000 N 
ATOM      2  C   UNL     1       5.767   4.561  16.333  0.00  0.00    +0.000 C 
ATOM      3  O   UNL     1       5.524   3.427  15.902  0.00  0.00    +0.000 OA
ATOM      4  H   UNL     1       7.698   4.197  16.287  0.00  0.00    +0.000 HD
ENDROOT
BRANCH   1   8
ATOM      5  C   UNL     1       8.363   8.216  18.693  0.00  0.00    +0.000 A 
ATOM      6  C   UNL     1       7.885   8.436  17.400  0.00  0.00    +0.000 A 
ATOM      7  C   UNL     1       7.423   7.374  16.618  0.00  0.00    +0.000 A 
ATOM      8  C   UNL     1       7.496   6.082  17.110  0.00  0.00    +0.000 A 
ATOM      9  C   UNL     1       7.978   5.835  18.395  0.00  0.00    +0.000 A 
ATOM     10  C   UNL     1       8.417   6.903  19.183  0.00  0.00    +0.000 A 
BRANCH   5  14
ATOM     11  C   UNL     1       9.795  11.298  20.325  0.00  0.00    +0.000 C 
ATOM     12  C   UNL     1       9.441  10.416  19.156  0.00  0.00    +0.000 C 
ATOM     13  O   UNL     1       9.720  10.756  18.012  0.00  0.00    +0.000 OA
ATOM     14  N   UNL     1       8.797   9.252  19.545  0.00  0.00    +0.000 N 
ATOM     15  H   UNL     1       8.529   9.181  20.517  0.00  0.00    +0.000 HD
ENDBRANCH   5  14
ENDBRANCH   1   8
BRANCH   2  16
ATOM     16  C   UNL     1       4.657   5.504  16.784  0.00  0.00    +0.000 C 
BRANCH  16  17
ATOM     17  O   UNL     1       3.382   4.883  17.003  0.00  0.00    +0.000 OA
BRANCH  17  18
ATOM     18  C   UNL     1       2.722   5.305  18.144  0.00  0.00    +0.000 A 
ATOM     19  C   UNL     1       2.548   6.685  18.408  0.00  0.00    +0.000 A 
ATOM     20  C   UNL     1       1.980   7.159  19.595  0.00  0.00    +0.000 A 
ATOM     21  C   UNL     1       1.896   8.624  19.889  0.00  0.00    +0.000 C 
ATOM     22  C   UNL     1       1.536   6.234  20.523  0.00  0.00    +0.000 A 
ATOM     23  C   UNL     1       1.672   4.870  20.257  0.00  0.00    +0.000 A 
ATOM     24  O   UNL     1       1.266   4.054  21.332  0.00  0.00    +0.000 OA
ATOM     25  C   UNL     1       1.619   2.724  21.343  0.00  0.00    +0.000 A 
ATOM     26  O   UNL     1       1.624   2.052  22.368  0.00  0.00    +0.000 OA
ATOM     27  C   UNL     1       1.932   2.140  20.041  0.00  0.00    +0.000 A 
ATOM     28  C   UNL     1       2.246   2.872  18.959  0.00  0.00    +0.000 A 
ATOM     29  C   UNL     1       2.598   2.153  17.693  0.00  0.00    +0.000 C 
ATOM     30  C   UNL     1       2.233   4.351  19.071  0.00  0.00    +0.000 A 
ENDBRANCH  17  18
ENDBRANCH  16  17
ENDBRANCH   2  16
TORSDOF 5
ENDMDL
MODEL 9
REMARK VINA RESULT:      -7.0      3.303      8.122
REMARK  Name = 
REMARK  8 active torsions:
REMARK  status: ('A' for Active; 'I' for Inactive)
REMARK    1  A    between atoms: C_1  and  C_2
REMARK    2  A    between atoms: N_4  and  C_5
REMARK    3  A    between atoms: C_8  and  N_9
REMARK    4  A    between atoms: C_10  and  C_12
REMARK    5  A    between atoms: C_12  and  O_13
REMARK    6  A    between atoms: O_13  and  C_14
REMARK    7  A    between atoms: C_16  and  C_17
REMARK    8  A    between atoms: C_24  and  C_25
REMARK                            x       y       z     vdW  Elec       q    Type
REMARK                         _______ _______ _______ _____ _____    ______ ____
ROOT
ATOM      1  N   UNL     1       1.592   9.933  17.535  0.00  0.00    +0.000 N 
ATOM      2  C   UNL     1       2.404   8.845  17.758  0.00  0.00    +0.000 C 
ATOM      3  O   UNL     1       3.310   8.608  16.949  0.00  0.00    +0.000 OA
ATOM      4  H   UNL     1       2.069  10.589  16.916  0.00  0.00    +0.000 HD
ENDROOT
BRANCH   1   8
ATOM      5  C   UNL     1      -0.800  11.583  20.561  0.00  0.00    +0.000 A 
ATOM      6  C   UNL     1       0.534  11.971  20.422  0.00  0.00    +0.000 A 
ATOM      7  C   UNL     1       1.328  11.450  19.397  0.00  0.00    +0.000 A 
ATOM      8  C   UNL     1       0.802  10.493  18.546  0.00  0.00    +0.000 A 
ATOM      9  C   UNL     1      -0.525  10.082  18.669  0.00  0.00    +0.000 A 
ATOM     10  C   UNL     1      -1.323  10.623  19.681  0.00  0.00    +0.000 A 
BRANCH   5  14
ATOM     11  C   UNL     1      -2.811  12.434  23.634  0.00  0.00    +0.000 C 
ATOM     12  C   UNL     1      -1.769  11.673  22.856  0.00  0.00    +0.000 C 
ATOM     13  O   UNL     1      -1.121  10.780  23.391  0.00  0.00    +0.000 OA
ATOM     14  N   UNL     1      -1.662  12.109  21.545  0.00  0.00    +0.000 N 
ATOM     15  H   UNL     1      -2.178  12.940  21.296  0.00  0.00    +0.000 HD
ENDBRANCH   5  14
ENDBRANCH   1   8
BRANCH   2  16
ATOM     16  C   UNL     1       2.117   7.920  18.935  0.00  0.00    +0.000 C 
BRANCH  16  17
ATOM     17  O   UNL     1       3.231   7.130  19.375  0.00  0.00    +0.000 OA
BRANCH  17  18
ATOM     18  C   UNL     1       3.479   6.004  18.610  0.00  0.00    +0.000 A 
ATOM     19  C   UNL     1       4.472   6.022  17.601  0.00  0.00    +0.000 A 
ATOM     20  C   UNL     1       4.687   4.944  16.736  0.00  0.00    +0.000 A 
ATOM     21  C   UNL     1       5.677   5.027  15.617  0.00  0.00    +0.000 C 
ATOM     22  C   UNL     1       3.921   3.805  16.909  0.00  0.00    +0.000 A 
ATOM     23  C   UNL     1       2.963   3.764  17.923  0.00  0.00    +0.000 A 
ATOM     24  O   UNL     1       2.198   2.580  17.914  0.00  0.00    +0.000 OA
ATOM     25  C   UNL     1       1.033   2.522  18.642  0.00  0.00    +0.000 A 
ATOM     26  O   UNL     1       0.152   1.700  18.414  0.00  0.00    +0.000 OA
ATOM     27  C   UNL     1       0.930   3.467  19.752  0.00  0.00    +0.000 A 
ATOM     28  C   UNL     1       1.690   4.569  19.856  0.00  0.00    +0.000 A 
ATOM     29  C   UNL     1       1.455   5.488  21.016  0.00  0.00    +0.000 C 
ATOM     30  C   UNL     1       2.720   4.826  18.819  0.00  0.00    +0.000 A 
ENDBRANCH  17  18
ENDBRANCH  16  17
ENDBRANCH   2  16
TORSDOF 5
ENDMDL
