MODEL 1
REMARK VINA RESULT:      -7.2      0.000      0.000
REMARK  Name = 
REMARK  10 active torsions:
REMARK  status: ('A' for Active; 'I' for Inactive)
REMARK    1  A    between atoms: C_1  and  C_2
REMARK    2  A    between atoms: N_4  and  C_5
REMARK    3  A    between atoms: C_5  and  C_6
REMARK    4  A    between atoms: C_5  and  C_7
REMARK    5  A    between atoms: C_7  and  O_8
REMARK    6  A    between atoms: C_21  and  C_22
REMARK    7  A    between atoms: C_22  and  N_23
REMARK    8  A    between atoms: N_23  and  C_24
REMARK    9  A    between atoms: N_23  and  S_25
REMARK   10  A    between atoms: S_25  and  C_28
REMARK                            x       y       z     vdW  Elec       q    Type
REMARK                         _______ _______ _______ _____ _____    ______ ____
ROOT
ATOM      1  C   UNL     1       1.996   9.555  18.490  0.00  0.00    +0.000 C 
ATOM      2  C   UNL     1       2.089   8.025  18.646  0.00  0.00    +0.000 C 
ATOM      3  C   UNL     1       3.633   7.651  17.775  0.00  0.00    +0.000 C 
ATOM      4  N   UNL     1       4.018   6.197  17.374  0.00  0.00    +0.000 N 
ATOM      5  C   UNL     1       5.371   5.581  17.220  0.00  0.00    +0.000 C 
ATOM      6  O   UNL     1       6.290   6.221  16.699  0.00  0.00    +0.000 OA
ATOM      7  C   UNL     1       5.708   3.875  17.739  0.00  0.00    +0.000 C 
ATOM      8  C   UNL     1       4.988   3.260  19.023  0.00  0.00    +0.000 C 
ATOM      9  C   UNL     1       4.390   2.046  19.802  0.00  0.00    +0.000 C 
ATOM     10  N   UNL     1       3.092   2.454  20.518  0.00  0.00    +0.000 N 
ATOM     11  C   UNL     1       1.951   3.051  19.978  0.00  0.00    +0.000 A 
ATOM     12  C   UNL     1       1.550   3.989  20.929  0.00  0.00    +0.000 A 
ATOM     13  N   UNL     1       2.182   3.650  22.103  0.00  0.00    +0.000 NA
ATOM     14  N   UNL     1       3.092   2.701  21.851  0.00  0.00    +0.000 NA
ATOM     15  C   UNL     1       0.858   5.350  20.730  0.00  0.00    +0.000 C 
ATOM     16  O   UNL     1       1.802   6.436  20.849  0.00  0.00    +0.000 OA
ATOM     17  C   UNL     1       1.542   7.739  20.306  0.00  0.00    +0.000 C 
ENDROOT
BRANCH   4  18
ATOM     18  C   UNL     1       3.125   5.311  17.980  0.00  0.00    +0.000 C 
ATOM     19  C   UNL     1       3.833   5.452  19.387  0.00  0.00    +0.000 C 
BRANCH  18  20
ATOM     20  C   UNL     1       2.867   4.207  16.852  0.00  0.00    +0.000 C 
BRANCH  20  21
ATOM     21  O   UNL     1       1.546   3.655  16.993  0.00  0.00    +0.000 OA
ATOM     22  H   UNL     1       1.314   3.288  16.119  0.00  0.00    +0.000 HD
ENDBRANCH  20  21
ENDBRANCH  18  20
ENDBRANCH   4  18
BRANCH  17  23
ATOM     23  C   UNL     1       0.007   8.254  20.714  0.00  0.00    +0.000 C 
BRANCH  23  24
ATOM     24  N   UNL     1      -0.117   9.361  21.835  0.00  0.00    +0.000 NA
ATOM     25  C   UNL     1       1.052   9.281  22.795  0.00  0.00    +0.000 C 
BRANCH  24  26
ATOM     26  S   UNL     1      -0.136  11.090  21.314  0.00  0.00    +0.000 S 
ATOM     27  O   UNL     1       1.244  11.538  21.312  0.00  0.00    +0.000 OA
ATOM     28  O   UNL     1      -0.922  11.098  20.078  0.00  0.00    +0.000 OA
BRANCH  26  29
ATOM     29  C   UNL     1      -0.990  12.139  22.484  0.00  0.00    +0.000 A 
ATOM     30  C   UNL     1      -0.708  13.511  22.522  0.00  0.00    +0.000 A 
ATOM     31  C   UNL     1      -1.550  14.382  23.244  0.00  0.00    +0.000 A 
ATOM     32  C   UNL     1      -2.679  13.888  23.904  0.00  0.00    +0.000 A 
ATOM     33  C   UNL     1      -2.984  12.539  23.812  0.00  0.00    +0.000 A 
ATOM     34  F   UNL     1      -4.113  12.074  24.378  0.00  0.00    +0.000 F 
ATOM     35  C   UNL     1      -2.161  11.669  23.097  0.00  0.00    +0.000 A 
ENDBRANCH  26  29
ENDBRANCH  24  26
ENDBRANCH  23  24
ENDBRANCH  17  23
TORSDOF 7
ENDMDL
MODEL 2
REMARK VINA RESULT:      -6.9      2.146      2.561
REMARK  Name = 
REMARK  10 active torsions:
REMARK  status: ('A' for Active; 'I' for Inactive)
REMARK    1  A    between atoms: C_1  and  C_2
REMARK    2  A    between atoms: N_4  and  C_5
REMARK    3  A    between atoms: C_5  and  C_6
REMARK    4  A    between atoms: C_5  and  C_7
REMARK    5  A    between atoms: C_7  and  O_8
REMARK    6  A    between atoms: C_21  and  C_22
REMARK    7  A    between atoms: C_22  and  N_23
REMARK    8  A    between atoms: N_23  and  C_24
REMARK    9  A    between atoms: N_23  and  S_25
REMARK   10  A    between atoms: S_25  and  C_28
REMARK                            x       y       z     vdW  Elec       q    Type
REMARK                         _______ _______ _______ _____ _____    ______ ____
ROOT
ATOM      1  C   UNL     1       2.008   9.588  18.545  0.00  0.00    +0.000 C 
ATOM      2  C   UNL     1       2.095   8.057  18.688  0.00  0.00    +0.000 C 
ATOM      3  C   UNL     1       3.620   7.681  17.785  0.00  0.00    +0.000 C 
ATOM      4  N   UNL     1       3.989   6.228  17.366  0.00  0.00    +0.000 N 
ATOM      5  C   UNL     1       5.336   5.606  17.182  0.00  0.00    +0.000 C 
ATOM      6  O   UNL     1       6.248   6.244  16.649  0.00  0.00    +0.000 OA
ATOM      7  C   UNL     1       5.673   3.894  17.682  0.00  0.00    +0.000 C 
ATOM      8  C   UNL     1       4.974   3.273  18.975  0.00  0.00    +0.000 C 
ATOM      9  C   UNL     1       4.384   2.056  19.756  0.00  0.00    +0.000 C 
ATOM     10  N   UNL     1       3.102   2.467  20.499  0.00  0.00    +0.000 N 
ATOM     11  C   UNL     1       1.954   3.074  19.985  0.00  0.00    +0.000 A 
ATOM     12  C   UNL     1       1.577   4.006  20.950  0.00  0.00    +0.000 A 
ATOM     13  N   UNL     1       2.228   3.655  22.110  0.00  0.00    +0.000 NA
ATOM     14  N   UNL     1       3.128   2.704  21.833  0.00  0.00    +0.000 NA
ATOM     15  C   UNL     1       0.888   5.373  20.775  0.00  0.00    +0.000 C 
ATOM     16  O   UNL     1       1.840   6.453  20.884  0.00  0.00    +0.000 OA
ATOM     17  C   UNL     1       1.578   7.761  20.355  0.00  0.00    +0.000 C 
ENDROOT
BRANCH   4  18
ATOM     18  C   UNL     1       3.103   5.342  17.982  0.00  0.00    +0.000 C 
ATOM     19  C   UNL     1       3.842   5.464  19.375  0.00  0.00    +0.000 C 
BRANCH  18  20
ATOM     20  C   UNL     1       2.813   4.252  16.849  0.00  0.00    +0.000 C 
BRANCH  20  21
ATOM     21  O   UNL     1       1.467   3.760  16.969  0.00  0.00    +0.000 OA
ATOM     22  H   UNL     1       0.926   4.523  17.251  0.00  0.00    +0.000 HD
ENDBRANCH  20  21
ENDBRANCH  18  20
ENDBRANCH   4  18
BRANCH  17  23
ATOM     23  C   UNL     1       0.054   8.281  20.797  0.00  0.00    +0.000 C 
BRANCH  23  24
ATOM     24  N   UNL     1      -0.048   9.312  21.990  0.00  0.00    +0.000 NA
ATOM     25  C   UNL     1       1.150   9.187  22.907  0.00  0.00    +0.000 C 
BRANCH  24  26
ATOM     26  S   UNL     1      -0.103  11.071  21.582  0.00  0.00    +0.000 S 
ATOM     27  O   UNL     1      -0.926  11.707  22.594  0.00  0.00    +0.000 OA
ATOM     28  O   UNL     1       1.300  11.458  21.414  0.00  0.00    +0.000 OA
BRANCH  26  29
ATOM     29  C   UNL     1      -0.921  11.378  20.022  0.00  0.00    +0.000 A 
ATOM     30  C   UNL     1      -0.600  12.524  19.282  0.00  0.00    +0.000 A 
ATOM     31  C   UNL     1      -1.035  12.643  17.946  0.00  0.00    +0.000 A 
ATOM     32  C   UNL     1      -1.765  11.614  17.346  0.00  0.00    +0.000 A 
ATOM     33  C   UNL     1      -2.028  10.458  18.065  0.00  0.00    +0.000 A 
ATOM     34  F   UNL     1      -2.660   9.432  17.466  0.00  0.00    +0.000 F 
ATOM     35  C   UNL     1      -1.598  10.327  19.386  0.00  0.00    +0.000 A 
ENDBRANCH  26  29
ENDBRANCH  24  26
ENDBRANCH  23  24
ENDBRANCH  17  23
TORSDOF 7
ENDMDL
MODEL 3
REMARK VINA RESULT:      -6.8      2.170      2.724
REMARK  Name = 
REMARK  10 active torsions:
REMARK  status: ('A' for Active; 'I' for Inactive)
REMARK    1  A    between atoms: C_1  and  C_2
REMARK    2  A    between atoms: N_4  and  C_5
REMARK    3  A    between atoms: C_5  and  C_6
REMARK    4  A    between atoms: C_5  and  C_7
REMARK    5  A    between atoms: C_7  and  O_8
REMARK    6  A    between atoms: C_21  and  C_22
REMARK    7  A    between atoms: C_22  and  N_23
REMARK    8  A    between atoms: N_23  and  C_24
REMARK    9  A    between atoms: N_23  and  S_25
REMARK   10  A    between atoms: S_25  and  C_28
REMARK                            x       y       z     vdW  Elec       q    Type
REMARK                         _______ _______ _______ _____ _____    ______ ____
ROOT
ATOM      1  C   UNL     1       2.188   9.503  18.093  0.00  0.00    +0.000 C 
ATOM      2  C   UNL     1       2.255   7.983  18.338  0.00  0.00    +0.000 C 
ATOM      3  C   UNL     1       3.840   7.548  17.575  0.00  0.00    +0.000 C 
ATOM      4  N   UNL     1       4.228   6.071  17.276  0.00  0.00    +0.000 N 
ATOM      5  C   UNL     1       5.581   5.436  17.230  0.00  0.00    +0.000 C 
ATOM      6  O   UNL     1       6.534   6.038  16.726  0.00  0.00    +0.000 OA
ATOM      7  C   UNL     1       5.870   3.758  17.860  0.00  0.00    +0.000 C 
ATOM      8  C   UNL     1       5.074   3.222  19.134  0.00  0.00    +0.000 C 
ATOM      9  C   UNL     1       4.421   2.058  19.945  0.00  0.00    +0.000 C 
ATOM     10  N   UNL     1       3.091   2.517  20.566  0.00  0.00    +0.000 N 
ATOM     11  C   UNL     1       1.988   3.092  19.932  0.00  0.00    +0.000 A 
ATOM     12  C   UNL     1       1.547   4.084  20.806  0.00  0.00    +0.000 A 
ATOM     13  N   UNL     1       2.110   3.806  22.030  0.00  0.00    +0.000 NA
ATOM     14  N   UNL     1       3.021   2.837  21.880  0.00  0.00    +0.000 NA
ATOM     15  C   UNL     1       0.882   5.439  20.495  0.00  0.00    +0.000 C 
ATOM     16  O   UNL     1       1.830   6.521  20.606  0.00  0.00    +0.000 OA
ATOM     17  C   UNL     1       1.616   7.794  19.978  0.00  0.00    +0.000 C 
ENDROOT
BRANCH   4  18
ATOM     18  C   UNL     1       3.294   5.228  17.880  0.00  0.00    +0.000 C 
ATOM     19  C   UNL     1       3.965   5.391  19.303  0.00  0.00    +0.000 C 
BRANCH  18  20
ATOM     20  C   UNL     1       3.038   4.099  16.777  0.00  0.00    +0.000 C 
BRANCH  20  21
ATOM     21  O   UNL     1       1.778   3.449  17.017  0.00  0.00    +0.000 OA
ATOM     22  H   UNL     1       1.102   4.154  16.990  0.00  0.00    +0.000 HD
ENDBRANCH  20  21
ENDBRANCH  18  20
ENDBRANCH   4  18
BRANCH  17  23
ATOM     23  C   UNL     1       0.067   8.344  20.274  0.00  0.00    +0.000 C 
BRANCH  23  24
ATOM     24  N   UNL     1      -0.105   9.511  21.325  0.00  0.00    +0.000 NA
ATOM     25  C   UNL     1       1.147   9.664  22.162  0.00  0.00    +0.000 C 
BRANCH  24  26
ATOM     26  S   UNL     1      -0.413  11.175  20.694  0.00  0.00    +0.000 S 
ATOM     27  O   UNL     1      -1.196  11.864  21.703  0.00  0.00    +0.000 OA
ATOM     28  O   UNL     1       0.908  11.677  20.307  0.00  0.00    +0.000 OA
BRANCH  26  29
ATOM     29  C   UNL     1      -1.420  11.163  19.216  0.00  0.00    +0.000 A 
ATOM     30  C   UNL     1      -1.139  10.250  18.190  0.00  0.00    +0.000 A 
ATOM     31  C   UNL     1      -2.071  10.052  17.151  0.00  0.00    +0.000 A 
ATOM     32  C   UNL     1      -3.286  10.741  17.150  0.00  0.00    +0.000 A 
ATOM     33  C   UNL     1      -3.583  11.597  18.199  0.00  0.00    +0.000 A 
ATOM     34  F   UNL     1      -4.785  12.202  18.244  0.00  0.00    +0.000 F 
ATOM     35  C   UNL     1      -2.671  11.798  19.236  0.00  0.00    +0.000 A 
ENDBRANCH  26  29
ENDBRANCH  24  26
ENDBRANCH  23  24
ENDBRANCH  17  23
TORSDOF 7
ENDMDL
MODEL 4
REMARK VINA RESULT:      -6.8      0.859      1.185
REMARK  Name = 
REMARK  10 active torsions:
REMARK  status: ('A' for Active; 'I' for Inactive)
REMARK    1  A    between atoms: C_1  and  C_2
REMARK    2  A    between atoms: N_4  and  C_5
REMARK    3  A    between atoms: C_5  and  C_6
REMARK    4  A    between atoms: C_5  and  C_7
REMARK    5  A    between atoms: C_7  and  O_8
REMARK    6  A    between atoms: C_21  and  C_22
REMARK    7  A    between atoms: C_22  and  N_23
REMARK    8  A    between atoms: N_23  and  C_24
REMARK    9  A    between atoms: N_23  and  S_25
REMARK   10  A    between atoms: S_25  and  C_28
REMARK                            x       y       z     vdW  Elec       q    Type
REMARK                         _______ _______ _______ _____ _____    ______ ____
ROOT
ATOM      1  C   UNL     1       2.078   9.546  18.325  0.00  0.00    +0.000 C 
ATOM      2  C   UNL     1       2.148   8.019  18.519  0.00  0.00    +0.000 C 
ATOM      3  C   UNL     1       3.692   7.603  17.668  0.00  0.00    +0.000 C 
ATOM      4  N   UNL     1       4.059   6.134  17.304  0.00  0.00    +0.000 N 
ATOM      5  C   UNL     1       5.405   5.497  17.174  0.00  0.00    +0.000 C 
ATOM      6  O   UNL     1       6.335   6.110  16.644  0.00  0.00    +0.000 OA
ATOM      7  C   UNL     1       5.715   3.799  17.737  0.00  0.00    +0.000 C 
ATOM      8  C   UNL     1       4.979   3.225  19.030  0.00  0.00    +0.000 C 
ATOM      9  C   UNL     1       4.359   2.038  19.835  0.00  0.00    +0.000 C 
ATOM     10  N   UNL     1       3.063   2.482  20.532  0.00  0.00    +0.000 N 
ATOM     11  C   UNL     1       1.933   3.081  19.970  0.00  0.00    +0.000 A 
ATOM     12  C   UNL     1       1.539   4.047  20.895  0.00  0.00    +0.000 A 
ATOM     13  N   UNL     1       2.159   3.729  22.082  0.00  0.00    +0.000 NA
ATOM     14  N   UNL     1       3.057   2.762  21.858  0.00  0.00    +0.000 NA
ATOM     15  C   UNL     1       0.867   5.413  20.659  0.00  0.00    +0.000 C 
ATOM     16  O   UNL     1       1.825   6.488  20.758  0.00  0.00    +0.000 OA
ATOM     17  C   UNL     1       1.587   7.781  20.181  0.00  0.00    +0.000 C 
ENDROOT
BRANCH   4  18
ATOM     18  C   UNL     1       3.151   5.276  17.926  0.00  0.00    +0.000 C 
ATOM     19  C   UNL     1       3.872   5.415  19.326  0.00  0.00    +0.000 C 
BRANCH  18  20
ATOM     20  C   UNL     1       2.859   4.166  16.811  0.00  0.00    +0.000 C 
BRANCH  20  21
ATOM     21  O   UNL     1       1.616   3.499  17.092  0.00  0.00    +0.000 OA
ATOM     22  H   UNL     1       1.787   2.927  17.865  0.00  0.00    +0.000 HD
ENDBRANCH  20  21
ENDBRANCH  18  20
ENDBRANCH   4  18
BRANCH  17  23
ATOM     23  C   UNL     1       0.056   8.326  20.567  0.00  0.00    +0.000 C 
BRANCH  23  24
ATOM     24  N   UNL     1      -0.057   9.488  21.632  0.00  0.00    +0.000 NA
ATOM     25  C   UNL     1       1.087   9.418  22.622  0.00  0.00    +0.000 C 
BRANCH  24  26
ATOM     26  S   UNL     1      -0.010  11.190  21.031  0.00  0.00    +0.000 S 
ATOM     27  O   UNL     1       1.352  11.657  21.212  0.00  0.00    +0.000 OA
ATOM     28  O   UNL     1      -0.604  11.130  19.694  0.00  0.00    +0.000 OA
BRANCH  26  29
ATOM     29  C   UNL     1      -1.034  12.282  22.010  0.00  0.00    +0.000 A 
ATOM     30  C   UNL     1      -2.209  11.791  22.597  0.00  0.00    +0.000 A 
ATOM     31  C   UNL     1      -2.878  12.557  23.574  0.00  0.00    +0.000 A 
ATOM     32  C   UNL     1      -2.365  13.791  23.980  0.00  0.00    +0.000 A 
ATOM     33  C   UNL     1      -1.171  14.242  23.438  0.00  0.00    +0.000 A 
ATOM     34  F   UNL     1      -0.631  15.391  23.883  0.00  0.00    +0.000 F 
ATOM     35  C   UNL     1      -0.497  13.492  22.474  0.00  0.00    +0.000 A 
ENDBRANCH  26  29
ENDBRANCH  24  26
ENDBRANCH  23  24
ENDBRANCH  17  23
TORSDOF 7
ENDMDL
MODEL 5
REMARK VINA RESULT:      -6.8      1.032      1.193
REMARK  Name = 
REMARK  10 active torsions:
REMARK  status: ('A' for Active; 'I' for Inactive)
REMARK    1  A    between atoms: C_1  and  C_2
REMARK    2  A    between atoms: N_4  and  C_5
REMARK    3  A    between atoms: C_5  and  C_6
REMARK    4  A    between atoms: C_5  and  C_7
REMARK    5  A    between atoms: C_7  and  O_8
REMARK    6  A    between atoms: C_21  and  C_22
REMARK    7  A    between atoms: C_22  and  N_23
REMARK    8  A    between atoms: N_23  and  C_24
REMARK    9  A    between atoms: N_23  and  S_25
REMARK   10  A    between atoms: S_25  and  C_28
REMARK                            x       y       z     vdW  Elec       q    Type
REMARK                         _______ _______ _______ _____ _____    ______ ____
ROOT
ATOM      1  C   UNL     1       2.058   9.496  18.347  0.00  0.00    +0.000 C 
ATOM      2  C   UNL     1       2.145   7.970  18.536  0.00  0.00    +0.000 C 
ATOM      3  C   UNL     1       3.708   7.577  17.706  0.00  0.00    +0.000 C 
ATOM      4  N   UNL     1       4.099   6.115  17.343  0.00  0.00    +0.000 N 
ATOM      5  C   UNL     1       5.455   5.496  17.230  0.00  0.00    +0.000 C 
ATOM      6  O   UNL     1       6.385   6.125  16.717  0.00  0.00    +0.000 OA
ATOM      7  C   UNL     1       5.779   3.800  17.791  0.00  0.00    +0.000 C 
ATOM      8  C   UNL     1       5.032   3.212  19.071  0.00  0.00    +0.000 C 
ATOM      9  C   UNL     1       4.415   2.014  19.861  0.00  0.00    +0.000 C 
ATOM     10  N   UNL     1       3.103   2.437  20.541  0.00  0.00    +0.000 N 
ATOM     11  C   UNL     1       1.974   3.024  19.964  0.00  0.00    +0.000 A 
ATOM     12  C   UNL     1       1.554   3.980  20.887  0.00  0.00    +0.000 A 
ATOM     13  N   UNL     1       2.160   3.665  22.081  0.00  0.00    +0.000 NA
ATOM     14  N   UNL     1       3.074   2.711  21.868  0.00  0.00    +0.000 NA
ATOM     15  C   UNL     1       0.867   5.338  20.646  0.00  0.00    +0.000 C 
ATOM     16  O   UNL     1       1.809   6.426  20.763  0.00  0.00    +0.000 OA
ATOM     17  C   UNL     1       1.563   7.717  20.189  0.00  0.00    +0.000 C 
ENDROOT
BRANCH   4  18
ATOM     18  C   UNL     1       3.193   5.243  17.947  0.00  0.00    +0.000 C 
ATOM     19  C   UNL     1       3.887   5.391  19.360  0.00  0.00    +0.000 C 
BRANCH  18  20
ATOM     20  C   UNL     1       2.938   4.131  16.826  0.00  0.00    +0.000 C 
BRANCH  20  21
ATOM     21  O   UNL     1       1.620   3.574  16.973  0.00  0.00    +0.000 OA
ATOM     22  H   UNL     1       1.255   3.959  17.793  0.00  0.00    +0.000 HD
ENDBRANCH  20  21
ENDBRANCH  18  20
ENDBRANCH   4  18
BRANCH  17  23
ATOM     23  C   UNL     1       0.020   8.241  20.554  0.00  0.00    +0.000 C 
BRANCH  23  24
ATOM     24  N   UNL     1      -0.129   9.359  21.661  0.00  0.00    +0.000 NA
ATOM     25  C   UNL     1       1.107   9.412  22.534  0.00  0.00    +0.000 C 
BRANCH  24  26
ATOM     26  S   UNL     1      -0.348  11.065  21.112  0.00  0.00    +0.000 S 
ATOM     27  O   UNL     1       0.736  11.832  21.698  0.00  0.00    +0.000 OA
ATOM     28  O   UNL     1      -0.491  10.973  19.658  0.00  0.00    +0.000 OA
BRANCH  26  29
ATOM     29  C   UNL     1      -1.857  11.790  21.743  0.00  0.00    +0.000 A 
ATOM     30  C   UNL     1      -2.104  11.790  23.122  0.00  0.00    +0.000 A 
ATOM     31  C   UNL     1      -3.147  12.580  23.648  0.00  0.00    +0.000 A 
ATOM     32  C   UNL     1      -3.921  13.383  22.805  0.00  0.00    +0.000 A 
ATOM     33  C   UNL     1      -3.631  13.422  21.450  0.00  0.00    +0.000 A 
ATOM     34  F   UNL     1      -4.321  14.254  20.648  0.00  0.00    +0.000 F 
ATOM     35  C   UNL     1      -2.599  12.649  20.919  0.00  0.00    +0.000 A 
ENDBRANCH  26  29
ENDBRANCH  24  26
ENDBRANCH  23  24
ENDBRANCH  17  23
TORSDOF 7
ENDMDL
MODEL 6
REMARK VINA RESULT:      -6.7      2.634      3.138
REMARK  Name = 
REMARK  10 active torsions:
REMARK  status: ('A' for Active; 'I' for Inactive)
REMARK    1  A    between atoms: C_1  and  C_2
REMARK    2  A    between atoms: N_4  and  C_5
REMARK    3  A    between atoms: C_5  and  C_6
REMARK    4  A    between atoms: C_5  and  C_7
REMARK    5  A    between atoms: C_7  and  O_8
REMARK    6  A    between atoms: C_21  and  C_22
REMARK    7  A    between atoms: C_22  and  N_23
REMARK    8  A    between atoms: N_23  and  C_24
REMARK    9  A    between atoms: N_23  and  S_25
REMARK   10  A    between atoms: S_25  and  C_28
REMARK                            x       y       z     vdW  Elec       q    Type
REMARK                         _______ _______ _______ _____ _____    ______ ____
ROOT
ATOM      1  C   UNL     1       2.125   9.559  18.007  0.00  0.00    +0.000 C 
ATOM      2  C   UNL     1       2.200   8.044  18.279  0.00  0.00    +0.000 C 
ATOM      3  C   UNL     1       3.793   7.607  17.534  0.00  0.00    +0.000 C 
ATOM      4  N   UNL     1       4.193   6.127  17.265  0.00  0.00    +0.000 N 
ATOM      5  C   UNL     1       5.551   5.501  17.239  0.00  0.00    +0.000 C 
ATOM      6  O   UNL     1       6.503   6.100  16.730  0.00  0.00    +0.000 OA
ATOM      7  C   UNL     1       5.847   3.837  17.901  0.00  0.00    +0.000 C 
ATOM      8  C   UNL     1       5.047   3.318  19.180  0.00  0.00    +0.000 C 
ATOM      9  C   UNL     1       4.396   2.164  20.008  0.00  0.00    +0.000 C 
ATOM     10  N   UNL     1       3.060   2.625  20.612  0.00  0.00    +0.000 N 
ATOM     11  C   UNL     1       1.956   3.182  19.960  0.00  0.00    +0.000 A 
ATOM     12  C   UNL     1       1.503   4.186  20.814  0.00  0.00    +0.000 A 
ATOM     13  N   UNL     1       2.060   3.934  22.046  0.00  0.00    +0.000 NA
ATOM     14  N   UNL     1       2.979   2.969  21.920  0.00  0.00    +0.000 NA
ATOM     15  C   UNL     1       0.831   5.530  20.474  0.00  0.00    +0.000 C 
ATOM     16  O   UNL     1       1.771   6.621  20.571  0.00  0.00    +0.000 OA
ATOM     17  C   UNL     1       1.552   7.881  19.919  0.00  0.00    +0.000 C 
ENDROOT
BRANCH   4  18
ATOM     18  C   UNL     1       3.261   5.289  17.878  0.00  0.00    +0.000 C 
ATOM     19  C   UNL     1       3.897   5.514  19.309  0.00  0.00    +0.000 C 
BRANCH  18  20
ATOM     20  C   UNL     1       3.050   4.116  16.811  0.00  0.00    +0.000 C 
BRANCH  20  21
ATOM     21  O   UNL     1       1.727   3.567  16.935  0.00  0.00    +0.000 OA
ATOM     22  H   UNL     1       1.688   3.157  17.820  0.00  0.00    +0.000 HD
ENDBRANCH  20  21
ENDBRANCH  18  20
ENDBRANCH   4  18
BRANCH  17  23
ATOM     23  C   UNL     1      -0.003   8.425  20.195  0.00  0.00    +0.000 C 
BRANCH  23  24
ATOM     24  N   UNL     1      -0.172   9.756  21.029  0.00  0.00    +0.000 NA
ATOM     25  C   UNL     1       1.135  10.143  21.688  0.00  0.00    +0.000 C 
BRANCH  24  26
ATOM     26  S   UNL     1      -0.672  11.249  20.143  0.00  0.00    +0.000 S 
ATOM     27  O   UNL     1      -1.290  12.125  21.121  0.00  0.00    +0.000 OA
ATOM     28  O   UNL     1       0.529  11.672  19.420  0.00  0.00    +0.000 OA
BRANCH  26  29
ATOM     29  C   UNL     1      -1.932  10.918  18.918  0.00  0.00    +0.000 A 
ATOM     30  C   UNL     1      -3.123  11.656  18.929  0.00  0.00    +0.000 A 
ATOM     31  C   UNL     1      -4.000  11.590  17.826  0.00  0.00    +0.000 A 
ATOM     32  C   UNL     1      -3.678  10.813  16.711  0.00  0.00    +0.000 A 
ATOM     33  C   UNL     1      -2.470  10.133  16.683  0.00  0.00    +0.000 A 
ATOM     34  F   UNL     1      -2.119   9.448  15.579  0.00  0.00    +0.000 F 
ATOM     35  C   UNL     1      -1.592  10.193  17.766  0.00  0.00    +0.000 A 
ENDBRANCH  26  29
ENDBRANCH  24  26
ENDBRANCH  23  24
ENDBRANCH  17  23
TORSDOF 7
ENDMDL
MODEL 7
REMARK VINA RESULT:      -6.5      7.435     10.264
REMARK  Name = 
REMARK  10 active torsions:
REMARK  status: ('A' for Active; 'I' for Inactive)
REMARK    1  A    between atoms: C_1  and  C_2
REMARK    2  A    between atoms: N_4  and  C_5
REMARK    3  A    between atoms: C_5  and  C_6
REMARK    4  A    between atoms: C_5  and  C_7
REMARK    5  A    between atoms: C_7  and  O_8
REMARK    6  A    between atoms: C_21  and  C_22
REMARK    7  A    between atoms: C_22  and  N_23
REMARK    8  A    between atoms: N_23  and  C_24
REMARK    9  A    between atoms: N_23  and  S_25
REMARK   10  A    between atoms: S_25  and  C_28
REMARK                            x       y       z     vdW  Elec       q    Type
REMARK                         _______ _______ _______ _____ _____    ______ ____
ROOT
ATOM      1  C   UNL     1      -1.450  11.813  18.203  0.00  0.00    +0.000 C 
ATOM      2  C   UNL     1      -2.439  12.348  19.256  0.00  0.00    +0.000 C 
ATOM      3  C   UNL     1      -4.039  11.955  18.503  0.00  0.00    +0.000 C 
ATOM      4  N   UNL     1      -5.367  12.575  19.027  0.00  0.00    +0.000 N 
ATOM      5  C   UNL     1      -6.752  12.012  19.004  0.00  0.00    +0.000 C 
ATOM      6  O   UNL     1      -7.155  11.392  18.015  0.00  0.00    +0.000 OA
ATOM      7  C   UNL     1      -7.903  12.251  20.387  0.00  0.00    +0.000 C 
ATOM      8  C   UNL     1      -7.370  12.287  21.890  0.00  0.00    +0.000 C 
ATOM      9  C   UNL     1      -7.471  12.798  23.363  0.00  0.00    +0.000 C 
ATOM     10  N   UNL     1      -6.071  13.094  23.925  0.00  0.00    +0.000 N 
ATOM     11  C   UNL     1      -5.076  13.918  23.393  0.00  0.00    +0.000 A 
ATOM     12  C   UNL     1      -3.884  13.227  23.607  0.00  0.00    +0.000 A 
ATOM     13  N   UNL     1      -4.150  12.274  24.564  0.00  0.00    +0.000 NA
ATOM     14  N   UNL     1      -5.471  12.221  24.770  0.00  0.00    +0.000 NA
ATOM     15  C   UNL     1      -2.600  13.203  22.757  0.00  0.00    +0.000 C 
ATOM     16  O   UNL     1      -2.523  11.999  21.964  0.00  0.00    +0.000 OA
ATOM     17  C   UNL     1      -1.692  11.902  20.798  0.00  0.00    +0.000 C 
ENDROOT
BRANCH   4  18
ATOM     18  C   UNL     1      -5.112  13.238  20.228  0.00  0.00    +0.000 C 
ATOM     19  C   UNL     1      -5.294  11.917  21.077  0.00  0.00    +0.000 C 
BRANCH  18  20
ATOM     20  C   UNL     1      -5.811  14.663  20.027  0.00  0.00    +0.000 C 
BRANCH  20  21
ATOM     21  O   UNL     1      -4.819  15.667  19.755  0.00  0.00    +0.000 OA
ATOM     22  H   UNL     1      -4.930  16.349  20.445  0.00  0.00    +0.000 HD
ENDBRANCH  20  21
ENDBRANCH  18  20
ENDBRANCH   4  18
BRANCH  17  23
ATOM     23  C   UNL     1      -0.161  12.490  21.115  0.00  0.00    +0.000 C 
BRANCH  23  24
ATOM     24  N   UNL     1       0.140  13.991  20.725  0.00  0.00    +0.000 NA
ATOM     25  C   UNL     1       0.473  14.806  21.957  0.00  0.00    +0.000 C 
BRANCH  24  26
ATOM     26  S   UNL     1       1.520  14.312  19.605  0.00  0.00    +0.000 S 
ATOM     27  O   UNL     1       2.712  14.396  20.428  0.00  0.00    +0.000 OA
ATOM     28  O   UNL     1       1.404  13.284  18.567  0.00  0.00    +0.000 OA
BRANCH  26  29
ATOM     29  C   UNL     1       1.375  15.897  18.790  0.00  0.00    +0.000 A 
ATOM     30  C   UNL     1       2.449  16.393  18.038  0.00  0.00    +0.000 A 
ATOM     31  C   UNL     1       2.258  17.500  17.186  0.00  0.00    +0.000 A 
ATOM     32  C   UNL     1       0.998  18.092  17.067  0.00  0.00    +0.000 A 
ATOM     33  C   UNL     1      -0.073  17.558  17.768  0.00  0.00    +0.000 A 
ATOM     34  F   UNL     1      -1.304  18.074  17.594  0.00  0.00    +0.000 F 
ATOM     35  C   UNL     1       0.103  16.461  18.611  0.00  0.00    +0.000 A 
ENDBRANCH  26  29
ENDBRANCH  24  26
ENDBRANCH  23  24
ENDBRANCH  17  23
TORSDOF 7
ENDMDL
MODEL 8
REMARK VINA RESULT:      -6.5      4.196     10.263
REMARK  Name = 
REMARK  10 active torsions:
REMARK  status: ('A' for Active; 'I' for Inactive)
REMARK    1  A    between atoms: C_1  and  C_2
REMARK    2  A    between atoms: N_4  and  C_5
REMARK    3  A    between atoms: C_5  and  C_6
REMARK    4  A    between atoms: C_5  and  C_7
REMARK    5  A    between atoms: C_7  and  O_8
REMARK    6  A    between atoms: C_21  and  C_22
REMARK    7  A    between atoms: C_22  and  N_23
REMARK    8  A    between atoms: N_23  and  C_24
REMARK    9  A    between atoms: N_23  and  S_25
REMARK   10  A    between atoms: S_25  and  C_28
REMARK                            x       y       z     vdW  Elec       q    Type
REMARK                         _______ _______ _______ _____ _____    ______ ____
ROOT
ATOM      1  C   UNL     1      -0.550   9.238  22.453  0.00  0.00    +0.000 C 
ATOM      2  C   UNL     1      -0.449  10.559  21.665  0.00  0.00    +0.000 C 
ATOM      3  C   UNL     1      -0.861  11.785  22.933  0.00  0.00    +0.000 C 
ATOM      4  N   UNL     1      -1.207  13.259  22.568  0.00  0.00    +0.000 N 
ATOM      5  C   UNL     1      -1.000  14.507  23.363  0.00  0.00    +0.000 C 
ATOM      6  O   UNL     1      -1.205  14.511  24.580  0.00  0.00    +0.000 OA
ATOM      7  C   UNL     1      -0.490  16.064  22.579  0.00  0.00    +0.000 C 
ATOM      8  C   UNL     1       0.504  16.057  21.332  0.00  0.00    +0.000 C 
ATOM      9  C   UNL     1       1.019  16.677  19.994  0.00  0.00    +0.000 C 
ATOM     10  N   UNL     1       1.356  15.568  18.984  0.00  0.00    +0.000 N 
ATOM     11  C   UNL     1       0.542  14.526  18.533  0.00  0.00    +0.000 A 
ATOM     12  C   UNL     1       1.384  13.417  18.462  0.00  0.00    +0.000 A 
ATOM     13  N   UNL     1       2.672  13.902  18.474  0.00  0.00    +0.000 NA
ATOM     14  N   UNL     1       2.643  15.209  18.761  0.00  0.00    +0.000 NA
ATOM     15  C   UNL     1       1.064  11.928  18.690  0.00  0.00    +0.000 C 
ATOM     16  O   UNL     1       1.500  11.496  19.997  0.00  0.00    +0.000 OA
ATOM     17  C   UNL     1       0.970  10.324  20.632  0.00  0.00    +0.000 C 
ENDROOT
BRANCH   4  18
ATOM     18  C   UNL     1      -0.925  13.466  21.217  0.00  0.00    +0.000 C 
ATOM     19  C   UNL     1       0.610  13.717  21.505  0.00  0.00    +0.000 C 
BRANCH  18  20
ATOM     20  C   UNL     1      -2.208  14.257  20.682  0.00  0.00    +0.000 C 
BRANCH  20  21
ATOM     21  O   UNL     1      -3.098  13.353  20.004  0.00  0.00    +0.000 OA
ATOM     22  H   UNL     1      -2.528  12.749  19.490  0.00  0.00    +0.000 HD
ENDBRANCH  20  21
ENDBRANCH  18  20
ENDBRANCH   4  18
BRANCH  17  23
ATOM     23  C   UNL     1       0.949   9.035  19.570  0.00  0.00    +0.000 C 
BRANCH  23  24
ATOM     24  N   UNL     1       2.086   7.948  19.719  0.00  0.00    +0.000 NA
ATOM     25  C   UNL     1       1.621   6.809  20.602  0.00  0.00    +0.000 C 
BRANCH  24  26
ATOM     26  S   UNL     1       2.670   7.127  18.221  0.00  0.00    +0.000 S 
ATOM     27  O   UNL     1       1.820   5.968  18.023  0.00  0.00    +0.000 OA
ATOM     28  O   UNL     1       2.726   8.188  17.212  0.00  0.00    +0.000 OA
BRANCH  26  29
ATOM     29  C   UNL     1       4.332   6.490  18.403  0.00  0.00    +0.000 A 
ATOM     30  C   UNL     1       4.557   5.352  19.189  0.00  0.00    +0.000 A 
ATOM     31  C   UNL     1       5.802   4.693  19.128  0.00  0.00    +0.000 A 
ATOM     32  C   UNL     1       6.805   5.152  18.271  0.00  0.00    +0.000 A 
ATOM     33  C   UNL     1       6.554   6.243  17.453  0.00  0.00    +0.000 A 
ATOM     34  F   UNL     1       7.487   6.640  16.569  0.00  0.00    +0.000 F 
ATOM     35  C   UNL     1       5.324   6.901  17.500  0.00  0.00    +0.000 A 
ENDBRANCH  26  29
ENDBRANCH  24  26
ENDBRANCH  23  24
ENDBRANCH  17  23
TORSDOF 7
ENDMDL
MODEL 9
REMARK VINA RESULT:      -6.4      2.333      2.774
REMARK  Name = 
REMARK  10 active torsions:
REMARK  status: ('A' for Active; 'I' for Inactive)
REMARK    1  A    between atoms: C_1  and  C_2
REMARK    2  A    between atoms: N_4  and  C_5
REMARK    3  A    between atoms: C_5  and  C_6
REMARK    4  A    between atoms: C_5  and  C_7
REMARK    5  A    between atoms: C_7  and  O_8
REMARK    6  A    between atoms: C_21  and  C_22
REMARK    7  A    between atoms: C_22  and  N_23
REMARK    8  A    between atoms: N_23  and  C_24
REMARK    9  A    between atoms: N_23  and  S_25
REMARK   10  A    between atoms: S_25  and  C_28
REMARK                            x       y       z     vdW  Elec       q    Type
REMARK                         _______ _______ _______ _____ _____    ______ ____
ROOT
ATOM      1  C   UNL     1       2.213   9.613  18.173  0.00  0.00    +0.000 C 
ATOM      2  C   UNL     1       2.248   8.090  18.404  0.00  0.00    +0.000 C 
ATOM      3  C   UNL     1       3.797   7.622  17.589  0.00  0.00    +0.000 C 
ATOM      4  N   UNL     1       4.139   6.137  17.266  0.00  0.00    +0.000 N 
ATOM      5  C   UNL     1       5.472   5.469  17.173  0.00  0.00    +0.000 C 
ATOM      6  O   UNL     1       6.425   6.051  16.645  0.00  0.00    +0.000 OA
ATOM      7  C   UNL     1       5.737   3.779  17.781  0.00  0.00    +0.000 C 
ATOM      8  C   UNL     1       4.968   3.252  19.075  0.00  0.00    +0.000 C 
ATOM      9  C   UNL     1       4.310   2.097  19.896  0.00  0.00    +0.000 C 
ATOM     10  N   UNL     1       3.012   2.584  20.561  0.00  0.00    +0.000 N 
ATOM     11  C   UNL     1       1.905   3.193  19.966  0.00  0.00    +0.000 A 
ATOM     12  C   UNL     1       1.517   4.189  20.861  0.00  0.00    +0.000 A 
ATOM     13  N   UNL     1       2.109   3.885  22.065  0.00  0.00    +0.000 NA
ATOM     14  N   UNL     1       2.991   2.895  21.880  0.00  0.00    +0.000 NA
ATOM     15  C   UNL     1       0.877   5.562  20.582  0.00  0.00    +0.000 C 
ATOM     16  O   UNL     1       1.856   6.619  20.672  0.00  0.00    +0.000 OA
ATOM     17  C   UNL     1       1.655   7.902  20.062  0.00  0.00    +0.000 C 
ENDROOT
BRANCH   4  18
ATOM     18  C   UNL     1       3.202   5.313  17.892  0.00  0.00    +0.000 C 
ATOM     19  C   UNL     1       3.886   5.494  19.306  0.00  0.00    +0.000 C 
BRANCH  18  20
ATOM     20  C   UNL     1       2.927   4.168  16.810  0.00  0.00    +0.000 C 
BRANCH  20  21
ATOM     21  O   UNL     1       1.590   3.660  16.957  0.00  0.00    +0.000 OA
ATOM     22  H   UNL     1       1.176   3.732  16.075  0.00  0.00    +0.000 HD
ENDBRANCH  20  21
ENDBRANCH  18  20
ENDBRANCH   4  18
BRANCH  17  23
ATOM     23  C   UNL     1       0.130   8.489  20.409  0.00  0.00    +0.000 C 
BRANCH  23  24
ATOM     24  N   UNL     1      -0.045   9.325  21.738  0.00  0.00    +0.000 NA
ATOM     25  C   UNL     1       1.251   9.360  22.521  0.00  0.00    +0.000 C 
BRANCH  24  26
ATOM     26  S   UNL     1      -0.509  11.063  21.586  0.00  0.00    +0.000 S 
ATOM     27  O   UNL     1      -1.870  11.087  21.083  0.00  0.00    +0.000 OA
ATOM     28  O   UNL     1      -0.189  11.650  22.890  0.00  0.00    +0.000 OA
BRANCH  26  29
ATOM     29  C   UNL     1       0.479  11.923  20.368  0.00  0.00    +0.000 A 
ATOM     30  C   UNL     1      -0.104  12.326  19.159  0.00  0.00    +0.000 A 
ATOM     31  C   UNL     1       0.581  13.223  18.314  0.00  0.00    +0.000 A 
ATOM     32  C   UNL     1       1.827  13.733  18.686  0.00  0.00    +0.000 A 
ATOM     33  C   UNL     1       2.370  13.377  19.911  0.00  0.00    +0.000 A 
ATOM     34  F   UNL     1       3.532  13.927  20.308  0.00  0.00    +0.000 F 
ATOM     35  C   UNL     1       1.700  12.493  20.757  0.00  0.00    +0.000 A 
ENDBRANCH  26  29
ENDBRANCH  24  26
ENDBRANCH  23  24
ENDBRANCH  17  23
TORSDOF 7
ENDMDL
