MODEL 1
REMARK VINA RESULT:      -8.4      0.000      0.000
REMARK  Name = 
REMARK  13 active torsions:
REMARK  status: ('A' for Active; 'I' for Inactive)
REMARK    1  A    between atoms: C_1  and  C_2
REMARK    2  A    between atoms: C_2  and  O_3
REMARK    3  A    between atoms: O_3  and  C_4
REMARK    4  A    between atoms: C_4  and  C_6
REMARK    5  A    between atoms: C_7  and  S_8
REMARK    6  A    between atoms: S_8  and  N_11
REMARK    7  A    between atoms: C_14  and  C_15
REMARK    8  A    between atoms: N_17  and  C_18
REMARK    9  A    between atoms: C_18  and  C_19
REMARK   10  A    between atoms: C_23  and  C_24
REMARK   11  A    between atoms: C_28  and  C_29
REMARK   12  A    between atoms: N_30  and  C_31
REMARK   13  A    between atoms: C_32  and  C_33
REMARK                            x       y       z     vdW  Elec       q    Type
REMARK                         _______ _______ _______ _____ _____    ______ ____
ROOT
ATOM      1  N   UNL     1       5.725   4.246  18.475  0.00  0.00    +0.000 NA
ATOM      2  C   UNL     1       6.507   4.379  17.213  0.00  0.00    +0.000 C 
ATOM      3  C   UNL     1       7.972   4.728  17.455  0.00  0.00    +0.000 C 
ATOM      4  C   UNL     1       8.186   5.913  18.393  0.00  0.00    +0.000 C 
ATOM      5  C   UNL     1       7.416   5.639  19.692  0.00  0.00    +0.000 C 
ATOM      6  C   UNL     1       5.931   5.385  19.431  0.00  0.00    +0.000 C 
ENDROOT
BRANCH   4   7
ATOM      7  C   UNL     1       7.877   7.323  17.857  0.00  0.00    +0.000 C 
ATOM      8  O   UNL     1       6.975   7.507  17.041  0.00  0.00    +0.000 OA
ATOM      9  N   UNL     1       8.540   8.378  18.447  0.00  0.00    +0.000 N 
ATOM     10  H   UNL     1       9.451   8.234  18.854  0.00  0.00    +0.000 HD
BRANCH   9  11
ATOM     11  C   UNL     1       8.210   9.742  18.067  0.00  0.00    +0.000 C 
BRANCH  11  12
ATOM     12  C   UNL     1       9.175  10.781  18.592  0.00  0.00    +0.000 A 
ATOM     13  C   UNL     1       9.574  10.734  19.938  0.00  0.00    +0.000 A 
ATOM     14  C   UNL     1      10.554  11.603  20.423  0.00  0.00    +0.000 A 
ATOM     15  C   UNL     1      11.153  12.530  19.573  0.00  0.00    +0.000 A 
ATOM     16  C   UNL     1      10.777  12.595  18.230  0.00  0.00    +0.000 A 
ATOM     17  C   UNL     1      11.400  13.587  17.292  0.00  0.00    +0.000 C 
ATOM     18  C   UNL     1       9.794  11.713  17.747  0.00  0.00    +0.000 A 
ENDBRANCH  11  12
ENDBRANCH   9  11
ENDBRANCH   4   7
BRANCH   1  19
ATOM     19  S   UNL     1       4.022   3.988  18.170  0.00  0.00    +0.000 S 
ATOM     20  O   UNL     1       3.653   2.814  18.943  0.00  0.00    +0.000 OA
ATOM     21  O   UNL     1       3.797   4.060  16.745  0.00  0.00    +0.000 OA
BRANCH  19  23
ATOM     22  C   UNL     1       2.237   5.318  19.988  0.00  0.00    +0.000 A 
ATOM     23  C   UNL     1       3.089   5.314  18.824  0.00  0.00    +0.000 A 
ATOM     24  C   UNL     1       3.083   6.602  18.287  0.00  0.00    +0.000 A 
ATOM     25  C   UNL     1       3.780   7.150  17.085  0.00  0.00    +0.000 C 
ATOM     26  N   UNL     1       2.273   7.383  19.083  0.00  0.00    +0.000 N 
ATOM     27  C   UNL     1       1.987   8.793  18.894  0.00  0.00    +0.000 C 
ATOM     28  C   UNL     1       1.777   6.632  20.124  0.00  0.00    +0.000 A 
ATOM     29  C   UNL     1       0.887   7.194  21.191  0.00  0.00    +0.000 C 
BRANCH  22  30
ATOM     30  C   UNL     1       1.899   4.291  20.982  0.00  0.00    +0.000 C 
ATOM     31  O   UNL     1       2.608   4.091  21.965  0.00  0.00    +0.000 OA
BRANCH  30  32
ATOM     32  O   UNL     1       0.738   3.618  20.762  0.00  0.00    +0.000 OA
BRANCH  32  34
ATOM     33  C   UNL     1       0.666   2.008  18.871  0.00  0.00    +0.000 C 
ATOM     34  C   UNL     1       0.428   3.426  19.370  0.00  0.00    +0.000 C 
ENDBRANCH  32  34
ENDBRANCH  30  32
ENDBRANCH  22  30
ENDBRANCH  19  23
ENDBRANCH   1  19
TORSDOF 8
ENDMDL
MODEL 2
REMARK VINA RESULT:      -8.1      0.801      1.158
REMARK  Name = 
REMARK  13 active torsions:
REMARK  status: ('A' for Active; 'I' for Inactive)
REMARK    1  A    between atoms: C_1  and  C_2
REMARK    2  A    between atoms: C_2  and  O_3
REMARK    3  A    between atoms: O_3  and  C_4
REMARK    4  A    between atoms: C_4  and  C_6
REMARK    5  A    between atoms: C_7  and  S_8
REMARK    6  A    between atoms: S_8  and  N_11
REMARK    7  A    between atoms: C_14  and  C_15
REMARK    8  A    between atoms: N_17  and  C_18
REMARK    9  A    between atoms: C_18  and  C_19
REMARK   10  A    between atoms: C_23  and  C_24
REMARK   11  A    between atoms: C_28  and  C_29
REMARK   12  A    between atoms: N_30  and  C_31
REMARK   13  A    between atoms: C_32  and  C_33
REMARK                            x       y       z     vdW  Elec       q    Type
REMARK                         _______ _______ _______ _____ _____    ______ ____
ROOT
ATOM      1  N   UNL     1       5.314   4.360  18.203  0.00  0.00    +0.000 NA
ATOM      2  C   UNL     1       6.147   4.416  16.969  0.00  0.00    +0.000 C 
ATOM      3  C   UNL     1       7.632   4.610  17.261  0.00  0.00    +0.000 C 
ATOM      4  C   UNL     1       7.936   5.762  18.215  0.00  0.00    +0.000 C 
ATOM      5  C   UNL     1       7.099   5.564  19.486  0.00  0.00    +0.000 C 
ATOM      6  C   UNL     1       5.606   5.467  19.175  0.00  0.00    +0.000 C 
ENDROOT
BRANCH   4   7
ATOM      7  C   UNL     1       7.794   7.198  17.680  0.00  0.00    +0.000 C 
ATOM      8  O   UNL     1       7.026   7.457  16.754  0.00  0.00    +0.000 OA
ATOM      9  N   UNL     1       8.433   8.196  18.383  0.00  0.00    +0.000 N 
ATOM     10  H   UNL     1       9.268   7.985  18.907  0.00  0.00    +0.000 HD
BRANCH   9  11
ATOM     11  C   UNL     1       8.246   9.586  17.998  0.00  0.00    +0.000 C 
BRANCH  11  12
ATOM     12  C   UNL     1       9.223  10.543  18.643  0.00  0.00    +0.000 A 
ATOM     13  C   UNL     1       9.259  10.654  20.043  0.00  0.00    +0.000 A 
ATOM     14  C   UNL     1      10.229  11.438  20.673  0.00  0.00    +0.000 A 
ATOM     15  C   UNL     1      11.180  12.120  19.917  0.00  0.00    +0.000 A 
ATOM     16  C   UNL     1      11.168  12.024  18.523  0.00  0.00    +0.000 A 
ATOM     17  C   UNL     1      12.174  12.753  17.682  0.00  0.00    +0.000 C 
ATOM     18  C   UNL     1      10.192  11.229  17.896  0.00  0.00    +0.000 A 
ENDBRANCH  11  12
ENDBRANCH   9  11
ENDBRANCH   4   7
BRANCH   1  19
ATOM     19  S   UNL     1       3.604   4.282  17.842  0.00  0.00    +0.000 S 
ATOM     20  O   UNL     1       3.122   3.059  18.461  0.00  0.00    +0.000 OA
ATOM     21  O   UNL     1       3.424   4.541  16.432  0.00  0.00    +0.000 OA
BRANCH  19  23
ATOM     22  C   UNL     1       1.895   5.532  19.785  0.00  0.00    +0.000 A 
ATOM     23  C   UNL     1       2.764   5.594  18.634  0.00  0.00    +0.000 A 
ATOM     24  C   UNL     1       2.864   6.931  18.247  0.00  0.00    +0.000 A 
ATOM     25  C   UNL     1       3.620   7.555  17.121  0.00  0.00    +0.000 C 
ATOM     26  N   UNL     1       2.103   7.677  19.121  0.00  0.00    +0.000 N 
ATOM     27  C   UNL     1       1.927   9.117  19.091  0.00  0.00    +0.000 C 
ATOM     28  C   UNL     1       1.534   6.854  20.066  0.00  0.00    +0.000 A 
ATOM     29  C   UNL     1       0.672   7.359  21.183  0.00  0.00    +0.000 C 
BRANCH  22  30
ATOM     30  C   UNL     1       1.465   4.429  20.653  0.00  0.00    +0.000 C 
ATOM     31  O   UNL     1       0.379   3.876  20.499  0.00  0.00    +0.000 OA
BRANCH  30  32
ATOM     32  O   UNL     1       2.362   4.040  21.599  0.00  0.00    +0.000 OA
BRANCH  32  34
ATOM     33  C   UNL     1       3.866   2.098  21.225  0.00  0.00    +0.000 C 
ATOM     34  C   UNL     1       2.518   2.614  21.708  0.00  0.00    +0.000 C 
ENDBRANCH  32  34
ENDBRANCH  30  32
ENDBRANCH  22  30
ENDBRANCH  19  23
ENDBRANCH   1  19
TORSDOF 8
ENDMDL
MODEL 3
REMARK VINA RESULT:      -7.7      6.202     10.757
REMARK  Name = 
REMARK  13 active torsions:
REMARK  status: ('A' for Active; 'I' for Inactive)
REMARK    1  A    between atoms: C_1  and  C_2
REMARK    2  A    between atoms: C_2  and  O_3
REMARK    3  A    between atoms: O_3  and  C_4
REMARK    4  A    between atoms: C_4  and  C_6
REMARK    5  A    between atoms: C_7  and  S_8
REMARK    6  A    between atoms: S_8  and  N_11
REMARK    7  A    between atoms: C_14  and  C_15
REMARK    8  A    between atoms: N_17  and  C_18
REMARK    9  A    between atoms: C_18  and  C_19
REMARK   10  A    between atoms: C_23  and  C_24
REMARK   11  A    between atoms: C_28  and  C_29
REMARK   12  A    between atoms: N_30  and  C_31
REMARK   13  A    between atoms: C_32  and  C_33
REMARK                            x       y       z     vdW  Elec       q    Type
REMARK                         _______ _______ _______ _____ _____    ______ ____
ROOT
ATOM      1  N   UNL     1       0.711  12.459  19.917  0.00  0.00    +0.000 NA
ATOM      2  C   UNL     1       0.936  11.556  18.754  0.00  0.00    +0.000 C 
ATOM      3  C   UNL     1      -0.016  10.364  18.732  0.00  0.00    +0.000 C 
ATOM      4  C   UNL     1      -0.088   9.598  20.051  0.00  0.00    +0.000 C 
ATOM      5  C   UNL     1      -0.412  10.600  21.168  0.00  0.00    +0.000 C 
ATOM      6  C   UNL     1       0.612  11.734  21.228  0.00  0.00    +0.000 C 
ENDROOT
BRANCH   4   7
ATOM      7  C   UNL     1       1.108   8.711  20.436  0.00  0.00    +0.000 C 
ATOM      8  O   UNL     1       1.406   8.526  21.616  0.00  0.00    +0.000 OA
ATOM      9  N   UNL     1       1.724   8.010  19.422  0.00  0.00    +0.000 N 
ATOM     10  H   UNL     1       1.710   8.373  18.481  0.00  0.00    +0.000 HD
BRANCH   9  11
ATOM     11  C   UNL     1       2.787   7.068  19.734  0.00  0.00    +0.000 C 
BRANCH  11  12
ATOM     12  C   UNL     1       2.367   5.617  19.664  0.00  0.00    +0.000 A 
ATOM     13  C   UNL     1       1.518   5.096  20.655  0.00  0.00    +0.000 A 
ATOM     14  C   UNL     1       1.016   3.796  20.553  0.00  0.00    +0.000 A 
ATOM     15  C   UNL     1       1.350   2.997  19.462  0.00  0.00    +0.000 A 
ATOM     16  C   UNL     1       2.190   3.493  18.462  0.00  0.00    +0.000 A 
ATOM     17  C   UNL     1       2.573   2.655  17.278  0.00  0.00    +0.000 C 
ATOM     18  C   UNL     1       2.686   4.804  18.567  0.00  0.00    +0.000 A 
ENDBRANCH  11  12
ENDBRANCH   9  11
ENDBRANCH   4   7
BRANCH   1  19
ATOM     19  S   UNL     1       1.903  13.736  19.999  0.00  0.00    +0.000 S 
ATOM     20  O   UNL     1       2.963  13.352  19.082  0.00  0.00    +0.000 OA
ATOM     21  O   UNL     1       2.170  14.022  21.390  0.00  0.00    +0.000 OA
BRANCH  19  23
ATOM     22  C   UNL     1       1.869  16.205  18.528  0.00  0.00    +0.000 A 
ATOM     23  C   UNL     1       1.232  15.224  19.373  0.00  0.00    +0.000 A 
ATOM     24  C   UNL     1      -0.079  15.644  19.599  0.00  0.00    +0.000 A 
ATOM     25  C   UNL     1      -1.168  15.016  20.405  0.00  0.00    +0.000 C 
ATOM     26  N   UNL     1      -0.262  16.830  18.920  0.00  0.00    +0.000 N 
ATOM     27  C   UNL     1      -1.481  17.614  18.877  0.00  0.00    +0.000 C 
ATOM     28  C   UNL     1       0.893  17.167  18.251  0.00  0.00    +0.000 A 
ATOM     29  C   UNL     1       1.016  18.387  17.389  0.00  0.00    +0.000 C 
BRANCH  22  30
ATOM     30  C   UNL     1       3.203  16.281  17.916  0.00  0.00    +0.000 C 
ATOM     31  O   UNL     1       3.475  15.662  16.891  0.00  0.00    +0.000 OA
BRANCH  30  32
ATOM     32  O   UNL     1       4.087  17.109  18.534  0.00  0.00    +0.000 OA
BRANCH  32  34
ATOM     33  C   UNL     1       4.603  16.987  20.961  0.00  0.00    +0.000 C 
ATOM     34  C   UNL     1       4.873  16.470  19.556  0.00  0.00    +0.000 C 
ENDBRANCH  32  34
ENDBRANCH  30  32
ENDBRANCH  22  30
ENDBRANCH  19  23
ENDBRANCH   1  19
TORSDOF 8
ENDMDL
MODEL 4
REMARK VINA RESULT:      -7.6      6.375     10.444
REMARK  Name = 
REMARK  13 active torsions:
REMARK  status: ('A' for Active; 'I' for Inactive)
REMARK    1  A    between atoms: C_1  and  C_2
REMARK    2  A    between atoms: C_2  and  O_3
REMARK    3  A    between atoms: O_3  and  C_4
REMARK    4  A    between atoms: C_4  and  C_6
REMARK    5  A    between atoms: C_7  and  S_8
REMARK    6  A    between atoms: S_8  and  N_11
REMARK    7  A    between atoms: C_14  and  C_15
REMARK    8  A    between atoms: N_17  and  C_18
REMARK    9  A    between atoms: C_18  and  C_19
REMARK   10  A    between atoms: C_23  and  C_24
REMARK   11  A    between atoms: C_28  and  C_29
REMARK   12  A    between atoms: N_30  and  C_31
REMARK   13  A    between atoms: C_32  and  C_33
REMARK                            x       y       z     vdW  Elec       q    Type
REMARK                         _______ _______ _______ _____ _____    ______ ____
ROOT
ATOM      1  N   UNL     1       0.452  12.585  20.267  0.00  0.00    +0.000 NA
ATOM      2  C   UNL     1       0.148  12.532  18.809  0.00  0.00    +0.000 C 
ATOM      3  C   UNL     1      -0.550  11.242  18.393  0.00  0.00    +0.000 C 
ATOM      4  C   UNL     1       0.140   9.972  18.883  0.00  0.00    +0.000 C 
ATOM      5  C   UNL     1       0.326  10.085  20.402  0.00  0.00    +0.000 C 
ATOM      6  C   UNL     1       1.111  11.340  20.787  0.00  0.00    +0.000 C 
ENDROOT
BRANCH   4   7
ATOM      7  C   UNL     1       1.453   9.553  18.197  0.00  0.00    +0.000 C 
ATOM      8  O   UNL     1       2.146  10.375  17.599  0.00  0.00    +0.000 OA
ATOM      9  N   UNL     1       1.894   8.266  18.419  0.00  0.00    +0.000 N 
ATOM     10  H   UNL     1       1.229   7.534  18.617  0.00  0.00    +0.000 HD
BRANCH   9  11
ATOM     11  C   UNL     1       3.183   7.843  17.894  0.00  0.00    +0.000 C 
BRANCH  11  12
ATOM     12  C   UNL     1       3.313   6.348  17.704  0.00  0.00    +0.000 A 
ATOM     13  C   UNL     1       2.267   5.507  18.118  0.00  0.00    +0.000 A 
ATOM     14  C   UNL     1       2.304   4.137  17.849  0.00  0.00    +0.000 A 
ATOM     15  C   UNL     1       3.382   3.585  17.159  0.00  0.00    +0.000 A 
ATOM     16  C   UNL     1       4.433   4.401  16.734  0.00  0.00    +0.000 A 
ATOM     17  C   UNL     1       5.610   3.835  15.996  0.00  0.00    +0.000 C 
ATOM     18  C   UNL     1       4.387   5.780  17.004  0.00  0.00    +0.000 A 
ENDBRANCH  11  12
ENDBRANCH   9  11
ENDBRANCH   4   7
BRANCH   1  19
ATOM     19  S   UNL     1       1.378  14.006  20.696  0.00  0.00    +0.000 S 
ATOM     20  O   UNL     1       2.725  13.767  20.207  0.00  0.00    +0.000 OA
ATOM     21  O   UNL     1       1.118  14.317  22.083  0.00  0.00    +0.000 OA
BRANCH  19  23
ATOM     22  C   UNL     1       1.486  16.225  18.873  0.00  0.00    +0.000 A 
ATOM     23  C   UNL     1       0.781  15.397  19.821  0.00  0.00    +0.000 A 
ATOM     24  C   UNL     1      -0.526  15.875  19.915  0.00  0.00    +0.000 A 
ATOM     25  C   UNL     1      -1.670  15.400  20.749  0.00  0.00    +0.000 C 
ATOM     26  N   UNL     1      -0.641  16.949  19.058  0.00  0.00    +0.000 N 
ATOM     27  C   UNL     1      -1.833  17.745  18.836  0.00  0.00    +0.000 C 
ATOM     28  C   UNL     1       0.553  17.157  18.407  0.00  0.00    +0.000 A 
ATOM     29  C   UNL     1       0.753  18.229  17.379  0.00  0.00    +0.000 C 
BRANCH  22  30
ATOM     30  C   UNL     1       2.849  16.179  18.326  0.00  0.00    +0.000 C 
ATOM     31  O   UNL     1       3.162  15.377  17.450  0.00  0.00    +0.000 OA
BRANCH  30  32
ATOM     32  O   UNL     1       3.713  17.104  18.821  0.00  0.00    +0.000 OA
BRANCH  32  34
ATOM     33  C   UNL     1       5.487  16.549  20.470  0.00  0.00    +0.000 C 
ATOM     34  C   UNL     1       5.052  16.612  19.013  0.00  0.00    +0.000 C 
ENDBRANCH  32  34
ENDBRANCH  30  32
ENDBRANCH  22  30
ENDBRANCH  19  23
ENDBRANCH   1  19
TORSDOF 8
ENDMDL
MODEL 5
REMARK VINA RESULT:      -7.5      6.247     10.094
REMARK  Name = 
REMARK  13 active torsions:
REMARK  status: ('A' for Active; 'I' for Inactive)
REMARK    1  A    between atoms: C_1  and  C_2
REMARK    2  A    between atoms: C_2  and  O_3
REMARK    3  A    between atoms: O_3  and  C_4
REMARK    4  A    between atoms: C_4  and  C_6
REMARK    5  A    between atoms: C_7  and  S_8
REMARK    6  A    between atoms: S_8  and  N_11
REMARK    7  A    between atoms: C_14  and  C_15
REMARK    8  A    between atoms: N_17  and  C_18
REMARK    9  A    between atoms: C_18  and  C_19
REMARK   10  A    between atoms: C_23  and  C_24
REMARK   11  A    between atoms: C_28  and  C_29
REMARK   12  A    between atoms: N_30  and  C_31
REMARK   13  A    between atoms: C_32  and  C_33
REMARK                            x       y       z     vdW  Elec       q    Type
REMARK                         _______ _______ _______ _____ _____    ______ ____
ROOT
ATOM      1  N   UNL     1       0.310  11.712  19.477  0.00  0.00    +0.000 NA
ATOM      2  C   UNL     1       1.756  11.691  19.120  0.00  0.00    +0.000 C 
ATOM      3  C   UNL     1       2.047  10.882  17.860  0.00  0.00    +0.000 C 
ATOM      4  C   UNL     1       1.433   9.485  17.859  0.00  0.00    +0.000 C 
ATOM      5  C   UNL     1      -0.068   9.623  18.145  0.00  0.00    +0.000 C 
ATOM      6  C   UNL     1      -0.331  10.354  19.462  0.00  0.00    +0.000 C 
ENDROOT
BRANCH   4   7
ATOM      7  C   UNL     1       2.070   8.415  18.763  0.00  0.00    +0.000 C 
ATOM      8  O   UNL     1       1.730   8.295  19.940  0.00  0.00    +0.000 OA
ATOM      9  N   UNL     1       2.910   7.503  18.162  0.00  0.00    +0.000 N 
ATOM     10  H   UNL     1       3.421   7.763  17.332  0.00  0.00    +0.000 HD
BRANCH   9  11
ATOM     11  C   UNL     1       3.454   6.400  18.937  0.00  0.00    +0.000 C 
BRANCH  11  12
ATOM     12  C   UNL     1       2.532   5.207  19.047  0.00  0.00    +0.000 A 
ATOM     13  C   UNL     1       1.989   4.646  17.880  0.00  0.00    +0.000 A 
ATOM     14  C   UNL     1       1.231   3.473  17.937  0.00  0.00    +0.000 A 
ATOM     15  C   UNL     1       1.007   2.841  19.158  0.00  0.00    +0.000 A 
ATOM     16  C   UNL     1       1.539   3.377  20.333  0.00  0.00    +0.000 A 
ATOM     17  C   UNL     1       1.309   2.722  21.663  0.00  0.00    +0.000 C 
ATOM     18  C   UNL     1       2.305   4.554  20.267  0.00  0.00    +0.000 A 
ENDBRANCH  11  12
ENDBRANCH   9  11
ENDBRANCH   4   7
BRANCH   1  19
ATOM     19  S   UNL     1       0.018  12.522  21.000  0.00  0.00    +0.000 S 
ATOM     20  O   UNL     1       1.311  13.014  21.443  0.00  0.00    +0.000 OA
ATOM     21  O   UNL     1      -0.790  11.658  21.829  0.00  0.00    +0.000 OA
BRANCH  19  23
ATOM     22  C   UNL     1      -2.319  14.180  21.220  0.00  0.00    +0.000 A 
ATOM     23  C   UNL     1      -0.979  13.935  20.745  0.00  0.00    +0.000 A 
ATOM     24  C   UNL     1      -0.562  15.067  20.044  0.00  0.00    +0.000 A 
ATOM     25  C   UNL     1       0.724  15.347  19.340  0.00  0.00    +0.000 C 
ATOM     26  N   UNL     1      -1.589  15.986  20.085  0.00  0.00    +0.000 N 
ATOM     27  C   UNL     1      -1.582  17.307  19.486  0.00  0.00    +0.000 C 
ATOM     28  C   UNL     1      -2.643  15.477  20.809  0.00  0.00    +0.000 A 
ATOM     29  C   UNL     1      -3.906  16.241  21.071  0.00  0.00    +0.000 C 
BRANCH  22  30
ATOM     30  C   UNL     1      -3.243  13.396  22.051  0.00  0.00    +0.000 C 
ATOM     31  O   UNL     1      -4.095  12.667  21.551  0.00  0.00    +0.000 OA
BRANCH  30  32
ATOM     32  O   UNL     1      -3.060  13.501  23.394  0.00  0.00    +0.000 OA
BRANCH  32  34
ATOM     33  C   UNL     1      -4.666  12.344  24.896  0.00  0.00    +0.000 C 
ATOM     34  C   UNL     1      -4.282  13.611  24.146  0.00  0.00    +0.000 C 
ENDBRANCH  32  34
ENDBRANCH  30  32
ENDBRANCH  22  30
ENDBRANCH  19  23
ENDBRANCH   1  19
TORSDOF 8
ENDMDL
MODEL 6
REMARK VINA RESULT:      -7.5      6.287     10.174
REMARK  Name = 
REMARK  13 active torsions:
REMARK  status: ('A' for Active; 'I' for Inactive)
REMARK    1  A    between atoms: C_1  and  C_2
REMARK    2  A    between atoms: C_2  and  O_3
REMARK    3  A    between atoms: O_3  and  C_4
REMARK    4  A    between atoms: C_4  and  C_6
REMARK    5  A    between atoms: C_7  and  S_8
REMARK    6  A    between atoms: S_8  and  N_11
REMARK    7  A    between atoms: C_14  and  C_15
REMARK    8  A    between atoms: N_17  and  C_18
REMARK    9  A    between atoms: C_18  and  C_19
REMARK   10  A    between atoms: C_23  and  C_24
REMARK   11  A    between atoms: C_28  and  C_29
REMARK   12  A    between atoms: N_30  and  C_31
REMARK   13  A    between atoms: C_32  and  C_33
REMARK                            x       y       z     vdW  Elec       q    Type
REMARK                         _______ _______ _______ _____ _____    ______ ____
ROOT
ATOM      1  N   UNL     1      -0.365  11.441  19.776  0.00  0.00    +0.000 NA
ATOM      2  C   UNL     1       1.100  11.684  19.655  0.00  0.00    +0.000 C 
ATOM      3  C   UNL     1       1.694  11.118  18.368  0.00  0.00    +0.000 C 
ATOM      4  C   UNL     1       1.328   9.661  18.101  0.00  0.00    +0.000 C 
ATOM      5  C   UNL     1      -0.201   9.533  18.159  0.00  0.00    +0.000 C 
ATOM      6  C   UNL     1      -0.761  10.020  19.495  0.00  0.00    +0.000 C 
ENDROOT
BRANCH   4   7
ATOM      7  C   UNL     1       2.004   8.577  18.959  0.00  0.00    +0.000 C 
ATOM      8  O   UNL     1       1.734   8.455  20.154  0.00  0.00    +0.000 OA
ATOM      9  N   UNL     1       2.793   7.657  18.303  0.00  0.00    +0.000 N 
ATOM     10  H   UNL     1       3.256   7.914  17.446  0.00  0.00    +0.000 HD
BRANCH   9  11
ATOM     11  C   UNL     1       3.367   6.542  19.039  0.00  0.00    +0.000 C 
BRANCH  11  12
ATOM     12  C   UNL     1       2.480   5.318  19.099  0.00  0.00    +0.000 A 
ATOM     13  C   UNL     1       1.971   4.777  17.908  0.00  0.00    +0.000 A 
ATOM     14  C   UNL     1       1.249   3.580  17.919  0.00  0.00    +0.000 A 
ATOM     15  C   UNL     1       1.028   2.905  19.117  0.00  0.00    +0.000 A 
ATOM     16  C   UNL     1       1.527   3.420  20.315  0.00  0.00    +0.000 A 
ATOM     17  C   UNL     1       1.299   2.719  21.621  0.00  0.00    +0.000 C 
ATOM     18  C   UNL     1       2.257   4.622  20.296  0.00  0.00    +0.000 A 
ENDBRANCH  11  12
ENDBRANCH   9  11
ENDBRANCH   4   7
BRANCH   1  19
ATOM     19  S   UNL     1      -0.995  11.971  21.319  0.00  0.00    +0.000 S 
ATOM     20  O   UNL     1      -0.327  13.227  21.613  0.00  0.00    +0.000 OA
ATOM     21  O   UNL     1      -0.952  10.856  22.237  0.00  0.00    +0.000 OA
BRANCH  19  23
ATOM     22  C   UNL     1      -3.640  12.635  22.227  0.00  0.00    +0.000 A 
ATOM     23  C   UNL     1      -2.696  12.347  21.174  0.00  0.00    +0.000 A 
ATOM     24  C   UNL     1      -3.371  12.452  19.957  0.00  0.00    +0.000 A 
ATOM     25  C   UNL     1      -2.880  12.249  18.562  0.00  0.00    +0.000 C 
ATOM     26  N   UNL     1      -4.676  12.800  20.230  0.00  0.00    +0.000 N 
ATOM     27  C   UNL     1      -5.727  13.019  19.255  0.00  0.00    +0.000 C 
ATOM     28  C   UNL     1      -4.848  12.938  21.589  0.00  0.00    +0.000 A 
ATOM     29  C   UNL     1      -6.147  13.343  22.216  0.00  0.00    +0.000 C 
BRANCH  22  30
ATOM     30  C   UNL     1      -3.509  12.735  23.686  0.00  0.00    +0.000 C 
ATOM     31  O   UNL     1      -4.059  11.935  24.437  0.00  0.00    +0.000 OA
BRANCH  30  32
ATOM     32  O   UNL     1      -2.708  13.738  24.137  0.00  0.00    +0.000 OA
BRANCH  32  34
ATOM     33  C   UNL     1      -2.801  15.952  25.261  0.00  0.00    +0.000 C 
ATOM     34  C   UNL     1      -3.352  15.023  24.188  0.00  0.00    +0.000 C 
ENDBRANCH  32  34
ENDBRANCH  30  32
ENDBRANCH  22  30
ENDBRANCH  19  23
ENDBRANCH   1  19
TORSDOF 8
ENDMDL
MODEL 7
REMARK VINA RESULT:      -7.4      6.024     10.140
REMARK  Name = 
REMARK  13 active torsions:
REMARK  status: ('A' for Active; 'I' for Inactive)
REMARK    1  A    between atoms: C_1  and  C_2
REMARK    2  A    between atoms: C_2  and  O_3
REMARK    3  A    between atoms: O_3  and  C_4
REMARK    4  A    between atoms: C_4  and  C_6
REMARK    5  A    between atoms: C_7  and  S_8
REMARK    6  A    between atoms: S_8  and  N_11
REMARK    7  A    between atoms: C_14  and  C_15
REMARK    8  A    between atoms: N_17  and  C_18
REMARK    9  A    between atoms: C_18  and  C_19
REMARK   10  A    between atoms: C_23  and  C_24
REMARK   11  A    between atoms: C_28  and  C_29
REMARK   12  A    between atoms: N_30  and  C_31
REMARK   13  A    between atoms: C_32  and  C_33
REMARK                            x       y       z     vdW  Elec       q    Type
REMARK                         _______ _______ _______ _____ _____    ______ ____
ROOT
ATOM      1  N   UNL     1       0.113  12.458  20.481  0.00  0.00    +0.000 NA
ATOM      2  C   UNL     1      -0.040  12.564  19.002  0.00  0.00    +0.000 C 
ATOM      3  C   UNL     1      -0.661  11.319  18.377  0.00  0.00    +0.000 C 
ATOM      4  C   UNL     1       0.006  10.011  18.794  0.00  0.00    +0.000 C 
ATOM      5  C   UNL     1       0.034   9.957  20.328  0.00  0.00    +0.000 C 
ATOM      6  C   UNL     1       0.745  11.171  20.927  0.00  0.00    +0.000 C 
ENDROOT
BRANCH   4   7
ATOM      7  C   UNL     1       1.391   9.688  18.207  0.00  0.00    +0.000 C 
ATOM      8  O   UNL     1       2.167  10.585  17.881  0.00  0.00    +0.000 OA
ATOM      9  N   UNL     1       1.784   8.366  18.214  0.00  0.00    +0.000 N 
ATOM     10  H   UNL     1       1.089   7.636  18.175  0.00  0.00    +0.000 HD
BRANCH   9  11
ATOM     11  C   UNL     1       3.124   8.008  17.780  0.00  0.00    +0.000 C 
BRANCH  11  12
ATOM     12  C   UNL     1       3.365   6.518  17.683  0.00  0.00    +0.000 A 
ATOM     13  C   UNL     1       2.412   5.630  18.208  0.00  0.00    +0.000 A 
ATOM     14  C   UNL     1       2.546   4.250  18.028  0.00  0.00    +0.000 A 
ATOM     15  C   UNL     1       3.631   3.737  17.320  0.00  0.00    +0.000 A 
ATOM     16  C   UNL     1       4.590   4.599  16.785  0.00  0.00    +0.000 A 
ATOM     17  C   UNL     1       5.772   4.075  16.024  0.00  0.00    +0.000 C 
ATOM     18  C   UNL     1       4.446   5.986  16.965  0.00  0.00    +0.000 A 
ENDBRANCH  11  12
ENDBRANCH   9  11
ENDBRANCH   4   7
BRANCH   1  19
ATOM     19  S   UNL     1       0.955  13.834  21.157  0.00  0.00    +0.000 S 
ATOM     20  O   UNL     1       2.288  13.360  21.491  0.00  0.00    +0.000 OA
ATOM     21  O   UNL     1       0.100  14.452  22.144  0.00  0.00    +0.000 OA
BRANCH  19  23
ATOM     22  C   UNL     1       2.312  15.291  19.084  0.00  0.00    +0.000 A 
ATOM     23  C   UNL     1       1.168  15.065  19.935  0.00  0.00    +0.000 A 
ATOM     24  C   UNL     1       0.194  16.005  19.597  0.00  0.00    +0.000 A 
ATOM     25  C   UNL     1      -1.169  16.228  20.163  0.00  0.00    +0.000 C 
ATOM     26  N   UNL     1       0.697  16.780  18.574  0.00  0.00    +0.000 N 
ATOM     27  C   UNL     1       0.014  17.876  17.913  0.00  0.00    +0.000 C 
ATOM     28  C   UNL     1       1.959  16.347  18.238  0.00  0.00    +0.000 A 
ATOM     29  C   UNL     1       2.771  16.959  17.136  0.00  0.00    +0.000 C 
BRANCH  22  30
ATOM     30  C   UNL     1       3.598  14.597  18.935  0.00  0.00    +0.000 C 
ATOM     31  O   UNL     1       3.747  13.692  18.119  0.00  0.00    +0.000 OA
BRANCH  30  32
ATOM     32  O   UNL     1       4.607  15.054  19.723  0.00  0.00    +0.000 OA
BRANCH  32  34
ATOM     33  C   UNL     1       5.817  17.182  19.298  0.00  0.00    +0.000 C 
ATOM     34  C   UNL     1       5.671  15.697  18.998  0.00  0.00    +0.000 C 
ENDBRANCH  32  34
ENDBRANCH  30  32
ENDBRANCH  22  30
ENDBRANCH  19  23
ENDBRANCH   1  19
TORSDOF 8
ENDMDL
MODEL 8
REMARK VINA RESULT:      -7.4      6.530      9.914
REMARK  Name = 
REMARK  13 active torsions:
REMARK  status: ('A' for Active; 'I' for Inactive)
REMARK    1  A    between atoms: C_1  and  C_2
REMARK    2  A    between atoms: C_2  and  O_3
REMARK    3  A    between atoms: O_3  and  C_4
REMARK    4  A    between atoms: C_4  and  C_6
REMARK    5  A    between atoms: C_7  and  S_8
REMARK    6  A    between atoms: S_8  and  N_11
REMARK    7  A    between atoms: C_14  and  C_15
REMARK    8  A    between atoms: N_17  and  C_18
REMARK    9  A    between atoms: C_18  and  C_19
REMARK   10  A    between atoms: C_23  and  C_24
REMARK   11  A    between atoms: C_28  and  C_29
REMARK   12  A    between atoms: N_30  and  C_31
REMARK   13  A    between atoms: C_32  and  C_33
REMARK                            x       y       z     vdW  Elec       q    Type
REMARK                         _______ _______ _______ _____ _____    ______ ____
ROOT
ATOM      1  N   UNL     1      -0.122  12.382  20.487  0.00  0.00    +0.000 NA
ATOM      2  C   UNL     1      -0.311  12.387  19.009  0.00  0.00    +0.000 C 
ATOM      3  C   UNL     1      -0.848  11.063  18.473  0.00  0.00    +0.000 C 
ATOM      4  C   UNL     1      -0.075   9.837  18.950  0.00  0.00    +0.000 C 
ATOM      5  C   UNL     1      -0.014   9.878  20.483  0.00  0.00    +0.000 C 
ATOM      6  C   UNL     1       0.614  11.175  20.993  0.00  0.00    +0.000 C 
ENDROOT
BRANCH   4   7
ATOM      7  C   UNL     1       1.319   9.582  18.351  0.00  0.00    +0.000 C 
ATOM      8  O   UNL     1       2.054  10.518  18.036  0.00  0.00    +0.000 OA
ATOM      9  N   UNL     1       1.767   8.279  18.333  0.00  0.00    +0.000 N 
ATOM     10  H   UNL     1       1.104   7.521  18.283  0.00  0.00    +0.000 HD
BRANCH   9  11
ATOM     11  C   UNL     1       3.119   7.985  17.885  0.00  0.00    +0.000 C 
BRANCH  11  12
ATOM     12  C   UNL     1       3.353   6.532  17.538  0.00  0.00    +0.000 A 
ATOM     13  C   UNL     1       4.540   6.162  16.884  0.00  0.00    +0.000 A 
ATOM     14  C   UNL     1       4.841   4.816  16.657  0.00  0.00    +0.000 A 
ATOM     15  C   UNL     1       3.964   3.820  17.082  0.00  0.00    +0.000 A 
ATOM     16  C   UNL     1       2.779   4.162  17.737  0.00  0.00    +0.000 A 
ATOM     17  C   UNL     1       1.813   3.111  18.199  0.00  0.00    +0.000 C 
ATOM     18  C   UNL     1       2.486   5.517  17.967  0.00  0.00    +0.000 A 
ENDBRANCH  11  12
ENDBRANCH   9  11
ENDBRANCH   4   7
BRANCH   1  19
ATOM     19  S   UNL     1       0.626  13.855  21.061  0.00  0.00    +0.000 S 
ATOM     20  O   UNL     1       0.499  14.815  19.978  0.00  0.00    +0.000 OA
ATOM     21  O   UNL     1       1.911  13.521  21.632  0.00  0.00    +0.000 OA
BRANCH  19  23
ATOM     22  C   UNL     1      -1.419  13.926  23.079  0.00  0.00    +0.000 A 
ATOM     23  C   UNL     1      -0.287  14.508  22.401  0.00  0.00    +0.000 A 
ATOM     24  C   UNL     1       0.008  15.720  23.027  0.00  0.00    +0.000 A 
ATOM     25  C   UNL     1       1.067  16.729  22.729  0.00  0.00    +0.000 C 
ATOM     26  N   UNL     1      -0.891  15.887  24.059  0.00  0.00    +0.000 N 
ATOM     27  C   UNL     1      -0.946  17.009  24.976  0.00  0.00    +0.000 C 
ATOM     28  C   UNL     1      -1.740  14.805  24.118  0.00  0.00    +0.000 A 
ATOM     29  C   UNL     1      -2.816  14.660  25.152  0.00  0.00    +0.000 C 
BRANCH  22  30
ATOM     30  C   UNL     1      -2.136  12.654  22.914  0.00  0.00    +0.000 C 
ATOM     31  O   UNL     1      -1.664  11.594  23.317  0.00  0.00    +0.000 OA
BRANCH  30  32
ATOM     32  O   UNL     1      -3.361  12.741  22.330  0.00  0.00    +0.000 OA
BRANCH  32  34
ATOM     33  C   UNL     1      -3.975  12.595  19.927  0.00  0.00    +0.000 C 
ATOM     34  C   UNL     1      -3.357  13.408  21.055  0.00  0.00    +0.000 C 
ENDBRANCH  32  34
ENDBRANCH  30  32
ENDBRANCH  22  30
ENDBRANCH  19  23
ENDBRANCH   1  19
TORSDOF 8
ENDMDL
MODEL 9
REMARK VINA RESULT:      -7.3      6.612     10.112
REMARK  Name = 
REMARK  13 active torsions:
REMARK  status: ('A' for Active; 'I' for Inactive)
REMARK    1  A    between atoms: C_1  and  C_2
REMARK    2  A    between atoms: C_2  and  O_3
REMARK    3  A    between atoms: O_3  and  C_4
REMARK    4  A    between atoms: C_4  and  C_6
REMARK    5  A    between atoms: C_7  and  S_8
REMARK    6  A    between atoms: S_8  and  N_11
REMARK    7  A    between atoms: C_14  and  C_15
REMARK    8  A    between atoms: N_17  and  C_18
REMARK    9  A    between atoms: C_18  and  C_19
REMARK   10  A    between atoms: C_23  and  C_24
REMARK   11  A    between atoms: C_28  and  C_29
REMARK   12  A    between atoms: N_30  and  C_31
REMARK   13  A    between atoms: C_32  and  C_33
REMARK                            x       y       z     vdW  Elec       q    Type
REMARK                         _______ _______ _______ _____ _____    ______ ____
ROOT
ATOM      1  N   UNL     1       0.424  12.410  20.327  0.00  0.00    +0.000 NA
ATOM      2  C   UNL     1       0.047  12.316  18.889  0.00  0.00    +0.000 C 
ATOM      3  C   UNL     1      -0.638  10.999  18.537  0.00  0.00    +0.000 C 
ATOM      4  C   UNL     1       0.110   9.759  19.018  0.00  0.00    +0.000 C 
ATOM      5  C   UNL     1       0.371   9.912  20.523  0.00  0.00    +0.000 C 
ATOM      6  C   UNL     1       1.141  11.194  20.839  0.00  0.00    +0.000 C 
ENDROOT
BRANCH   4   7
ATOM      7  C   UNL     1       1.396   9.357  18.275  0.00  0.00    +0.000 C 
ATOM      8  O   UNL     1       1.994  10.162  17.563  0.00  0.00    +0.000 OA
ATOM      9  N   UNL     1       1.930   8.120  18.567  0.00  0.00    +0.000 N 
ATOM     10  H   UNL     1       1.327   7.372  18.871  0.00  0.00    +0.000 HD
BRANCH   9  11
ATOM     11  C   UNL     1       3.203   7.727  17.985  0.00  0.00    +0.000 C 
BRANCH  11  12
ATOM     12  C   UNL     1       3.306   6.254  17.659  0.00  0.00    +0.000 A 
ATOM     13  C   UNL     1       4.462   5.767  17.027  0.00  0.00    +0.000 A 
ATOM     14  C   UNL     1       4.638   4.396  16.821  0.00  0.00    +0.000 A 
ATOM     15  C   UNL     1       3.667   3.491  17.245  0.00  0.00    +0.000 A 
ATOM     16  C   UNL     1       2.511   3.950  17.879  0.00  0.00    +0.000 A 
ATOM     17  C   UNL     1       1.445   3.001  18.340  0.00  0.00    +0.000 C 
ATOM     18  C   UNL     1       2.342   5.330  18.088  0.00  0.00    +0.000 A 
ENDBRANCH  11  12
ENDBRANCH   9  11
ENDBRANCH   4   7
BRANCH   1  19
ATOM     19  S   UNL     1       1.333  13.863  20.677  0.00  0.00    +0.000 S 
ATOM     20  O   UNL     1       2.640  13.671  20.072  0.00  0.00    +0.000 OA
ATOM     21  O   UNL     1       1.184  14.167  22.082  0.00  0.00    +0.000 OA
BRANCH  19  23
ATOM     22  C   UNL     1      -0.685  15.819  20.076  0.00  0.00    +0.000 A 
ATOM     23  C   UNL     1       0.614  15.231  19.860  0.00  0.00    +0.000 A 
ATOM     24  C   UNL     1       1.260  15.975  18.872  0.00  0.00    +0.000 A 
ATOM     25  C   UNL     1       2.611  15.802  18.261  0.00  0.00    +0.000 C 
ATOM     26  N   UNL     1       0.410  16.992  18.492  0.00  0.00    +0.000 N 
ATOM     27  C   UNL     1       0.680  18.008  17.492  0.00  0.00    +0.000 C 
ATOM     28  C   UNL     1      -0.754  16.926  19.224  0.00  0.00    +0.000 A 
ATOM     29  C   UNL     1      -1.874  17.911  19.077  0.00  0.00    +0.000 C 
BRANCH  22  30
ATOM     30  C   UNL     1      -1.775  15.516  21.014  0.00  0.00    +0.000 C 
ATOM     31  O   UNL     1      -1.851  16.066  22.109  0.00  0.00    +0.000 OA
BRANCH  30  32
ATOM     32  O   UNL     1      -2.703  14.628  20.569  0.00  0.00    +0.000 OA
BRANCH  32  34
ATOM     33  C   UNL     1      -4.161  12.867  21.543  0.00  0.00    +0.000 C 
ATOM     34  C   UNL     1      -2.754  13.405  21.325  0.00  0.00    +0.000 C 
ENDBRANCH  32  34
ENDBRANCH  30  32
ENDBRANCH  22  30
ENDBRANCH  19  23
ENDBRANCH   1  19
TORSDOF 8
ENDMDL
