MODEL 1
REMARK VINA RESULT:      -8.1      0.000      0.000
REMARK  Name = 
REMARK  7 active torsions:
REMARK  status: ('A' for Active; 'I' for Inactive)
REMARK    1  A    between atoms: C_1  and  O_2
REMARK    2  A    between atoms: O_2  and  C_3
REMARK    3  A    between atoms: C_3  and  C_4
REMARK    4  A    between atoms: C_3  and  C_5
REMARK    5  A    between atoms: N_7  and  S_8
REMARK    6  A    between atoms: S_8  and  C_11
REMARK    7  A    between atoms: C_17  and  C_18
REMARK                            x       y       z     vdW  Elec       q    Type
REMARK                         _______ _______ _______ _____ _____    ______ ____
ROOT
ATOM      1  S   UNL     1       6.440   5.304  16.677  0.00  0.00    +0.000 S 
ATOM      2  O   UNL     1       6.990   4.398  17.669  0.00  0.00    +0.000 OA
ATOM      3  O   UNL     1       7.211   6.459  16.276  0.00  0.00    +0.000 OA
ENDROOT
BRANCH   1   4
ATOM      4  C   UNL     1       4.849   5.842  17.239  0.00  0.00    +0.000 A 
ATOM      5  C   UNL     1       4.628   7.225  17.348  0.00  0.00    +0.000 A 
ATOM      6  C   UNL     1       3.405   7.700  17.799  0.00  0.00    +0.000 A 
ATOM      7  C   UNL     1       2.409   6.792  18.134  0.00  0.00    +0.000 A 
ATOM      8  C   UNL     1       2.634   5.409  18.031  0.00  0.00    +0.000 A 
ATOM      9  C   UNL     1       1.623   4.509  18.396  0.00  0.00    +0.000 A 
ATOM     10  C   UNL     1       1.835   3.137  18.314  0.00  0.00    +0.000 A 
ATOM     11  C   UNL     1       0.794   2.148  18.732  0.00  0.00    +0.000 C 
ATOM     12  C   UNL     1       3.071   2.723  17.850  0.00  0.00    +0.000 A 
ATOM     13  N   UNL     1       4.078   3.561  17.507  0.00  0.00    +0.000 NA
ATOM     14  C   UNL     1       3.874   4.897  17.576  0.00  0.00    +0.000 A 
ENDBRANCH   1   4
BRANCH   1  17
ATOM     15  C   UNL     1       6.822   4.545  14.101  0.00  0.00    +0.000 C 
ATOM     16  O   UNL     1       7.726   5.359  13.937  0.00  0.00    +0.000 OA
ATOM     17  N   UNL     1       6.146   4.401  15.320  0.00  0.00    +0.000 N 
ATOM     18  H   UNL     1       5.508   3.618  15.439  0.00  0.00    +0.000 HD
BRANCH  15  19
ATOM     19  C   UNL     1       6.357   3.607  12.973  0.00  0.00    +0.000 C 
ATOM     20  C   UNL     1       7.097   4.009  11.699  0.00  0.00    +0.000 C 
BRANCH  19  22
ATOM     21  C   UNL     1       4.495   3.222  11.528  0.00  0.00    +0.000 C 
ATOM     22  O   UNL     1       4.935   3.656  12.810  0.00  0.00    +0.000 OA
ENDBRANCH  19  22
ENDBRANCH  15  19
ENDBRANCH   1  17
TORSDOF 4
ENDMDL
MODEL 2
REMARK VINA RESULT:      -7.7      1.180      1.180
REMARK  Name = 
REMARK  7 active torsions:
REMARK  status: ('A' for Active; 'I' for Inactive)
REMARK    1  A    between atoms: C_1  and  O_2
REMARK    2  A    between atoms: O_2  and  C_3
REMARK    3  A    between atoms: C_3  and  C_4
REMARK    4  A    between atoms: C_3  and  C_5
REMARK    5  A    between atoms: N_7  and  S_8
REMARK    6  A    between atoms: S_8  and  C_11
REMARK    7  A    between atoms: C_17  and  C_18
REMARK                            x       y       z     vdW  Elec       q    Type
REMARK                         _______ _______ _______ _____ _____    ______ ____
ROOT
ATOM      1  S   UNL     1       6.696   5.221  16.932  0.00  0.00    +0.000 S 
ATOM      2  O   UNL     1       7.308   4.336  17.905  0.00  0.00    +0.000 OA
ATOM      3  O   UNL     1       7.434   6.375  16.470  0.00  0.00    +0.000 OA
ENDROOT
BRANCH   1   4
ATOM      4  C   UNL     1       5.134   5.756  17.573  0.00  0.00    +0.000 A 
ATOM      5  C   UNL     1       4.649   7.006  17.152  0.00  0.00    +0.000 A 
ATOM      6  C   UNL     1       3.439   7.480  17.637  0.00  0.00    +0.000 A 
ATOM      7  C   UNL     1       2.718   6.702  18.534  0.00  0.00    +0.000 A 
ATOM      8  C   UNL     1       3.208   5.456  18.958  0.00  0.00    +0.000 A 
ATOM      9  C   UNL     1       2.476   4.697  19.883  0.00  0.00    +0.000 A 
ATOM     10  C   UNL     1       2.954   3.468  20.324  0.00  0.00    +0.000 A 
ATOM     11  C   UNL     1       2.220   2.651  21.338  0.00  0.00    +0.000 C 
ATOM     12  C   UNL     1       4.163   3.044  19.800  0.00  0.00    +0.000 A 
ATOM     13  N   UNL     1       4.907   3.757  18.922  0.00  0.00    +0.000 NA
ATOM     14  C   UNL     1       4.442   4.950  18.482  0.00  0.00    +0.000 A 
ENDBRANCH   1   4
BRANCH   1  17
ATOM     15  C   UNL     1       6.720   4.591  14.293  0.00  0.00    +0.000 C 
ATOM     16  O   UNL     1       7.393   5.577  14.007  0.00  0.00    +0.000 OA
ATOM     17  N   UNL     1       6.334   4.294  15.607  0.00  0.00    +0.000 N 
ATOM     18  H   UNL     1       5.902   3.394  15.802  0.00  0.00    +0.000 HD
BRANCH  15  19
ATOM     19  C   UNL     1       6.246   3.591  13.224  0.00  0.00    +0.000 C 
ATOM     20  C   UNL     1       7.115   3.788  11.984  0.00  0.00    +0.000 C 
BRANCH  19  22
ATOM     21  C   UNL     1       4.474   3.279  11.653  0.00  0.00    +0.000 C 
ATOM     22  O   UNL     1       4.852   3.758  12.939  0.00  0.00    +0.000 OA
ENDBRANCH  19  22
ENDBRANCH  15  19
ENDBRANCH   1  17
TORSDOF 4
ENDMDL
MODEL 3
REMARK VINA RESULT:      -7.6      0.981      1.090
REMARK  Name = 
REMARK  7 active torsions:
REMARK  status: ('A' for Active; 'I' for Inactive)
REMARK    1  A    between atoms: C_1  and  O_2
REMARK    2  A    between atoms: O_2  and  C_3
REMARK    3  A    between atoms: C_3  and  C_4
REMARK    4  A    between atoms: C_3  and  C_5
REMARK    5  A    between atoms: N_7  and  S_8
REMARK    6  A    between atoms: S_8  and  C_11
REMARK    7  A    between atoms: C_17  and  C_18
REMARK                            x       y       z     vdW  Elec       q    Type
REMARK                         _______ _______ _______ _____ _____    ______ ____
ROOT
ATOM      1  S   UNL     1       5.996   4.917  15.744  0.00  0.00    +0.000 S 
ATOM      2  O   UNL     1       6.724   3.961  16.559  0.00  0.00    +0.000 OA
ATOM      3  O   UNL     1       6.713   6.022  15.151  0.00  0.00    +0.000 OA
ENDROOT
BRANCH   1   4
ATOM      4  C   UNL     1       4.651   5.552  16.704  0.00  0.00    +0.000 A 
ATOM      5  C   UNL     1       4.614   6.937  16.940  0.00  0.00    +0.000 A 
ATOM      6  C   UNL     1       3.591   7.485  17.701  0.00  0.00    +0.000 A 
ATOM      7  C   UNL     1       2.609   6.649  18.216  0.00  0.00    +0.000 A 
ATOM      8  C   UNL     1       2.651   5.264  17.984  0.00  0.00    +0.000 A 
ATOM      9  C   UNL     1       1.663   4.435  18.533  0.00  0.00    +0.000 A 
ATOM     10  C   UNL     1       1.698   3.060  18.326  0.00  0.00    +0.000 A 
ATOM     11  C   UNL     1       0.684   2.142  18.929  0.00  0.00    +0.000 C 
ATOM     12  C   UNL     1       2.738   2.572  17.554  0.00  0.00    +0.000 A 
ATOM     13  N   UNL     1       3.721   3.339  17.024  0.00  0.00    +0.000 NA
ATOM     14  C   UNL     1       3.686   4.678  17.215  0.00  0.00    +0.000 A 
ENDBRANCH   1   4
BRANCH   1  17
ATOM     15  C   UNL     1       5.890   3.802  13.273  0.00  0.00    +0.000 C 
ATOM     16  O   UNL     1       7.020   4.189  12.989  0.00  0.00    +0.000 OA
ATOM     17  N   UNL     1       5.293   4.056  14.516  0.00  0.00    +0.000 N 
ATOM     18  H   UNL     1       4.418   3.592  14.746  0.00  0.00    +0.000 HD
BRANCH  15  19
ATOM     19  C   UNL     1       5.031   2.999  12.281  0.00  0.00    +0.000 C 
ATOM     20  C   UNL     1       5.958   2.046  11.529  0.00  0.00    +0.000 C 
BRANCH  19  22
ATOM     21  C   UNL     1       3.359   3.187  10.586  0.00  0.00    +0.000 C 
ATOM     22  O   UNL     1       4.314   3.866  11.394  0.00  0.00    +0.000 OA
ENDBRANCH  19  22
ENDBRANCH  15  19
ENDBRANCH   1  17
TORSDOF 4
ENDMDL
MODEL 4
REMARK VINA RESULT:      -7.4      3.072      4.748
REMARK  Name = 
REMARK  7 active torsions:
REMARK  status: ('A' for Active; 'I' for Inactive)
REMARK    1  A    between atoms: C_1  and  O_2
REMARK    2  A    between atoms: O_2  and  C_3
REMARK    3  A    between atoms: C_3  and  C_4
REMARK    4  A    between atoms: C_3  and  C_5
REMARK    5  A    between atoms: N_7  and  S_8
REMARK    6  A    between atoms: S_8  and  C_11
REMARK    7  A    between atoms: C_17  and  C_18
REMARK                            x       y       z     vdW  Elec       q    Type
REMARK                         _______ _______ _______ _____ _____    ______ ____
ROOT
ATOM      1  S   UNL     1       4.599   3.070  18.840  0.00  0.00    +0.000 S 
ATOM      2  O   UNL     1       4.159   2.767  17.490  0.00  0.00    +0.000 OA
ATOM      3  O   UNL     1       4.962   1.983  19.720  0.00  0.00    +0.000 OA
ENDROOT
BRANCH   1   4
ATOM      4  C   UNL     1       3.351   4.052  19.622  0.00  0.00    +0.000 A 
ATOM      5  C   UNL     1       2.625   3.468  20.675  0.00  0.00    +0.000 A 
ATOM      6  C   UNL     1       1.624   4.188  21.311  0.00  0.00    +0.000 A 
ATOM      7  C   UNL     1       1.358   5.487  20.898  0.00  0.00    +0.000 A 
ATOM      8  C   UNL     1       2.081   6.066  19.841  0.00  0.00    +0.000 A 
ATOM      9  C   UNL     1       1.780   7.371  19.424  0.00  0.00    +0.000 A 
ATOM     10  C   UNL     1       2.476   7.954  18.370  0.00  0.00    +0.000 A 
ATOM     11  C   UNL     1       2.156   9.327  17.873  0.00  0.00    +0.000 C 
ATOM     12  C   UNL     1       3.467   7.190  17.779  0.00  0.00    +0.000 A 
ATOM     13  N   UNL     1       3.772   5.922  18.142  0.00  0.00    +0.000 NA
ATOM     14  C   UNL     1       3.105   5.353  19.172  0.00  0.00    +0.000 A 
ENDBRANCH   1   4
BRANCH   1  17
ATOM     15  C   UNL     1       6.493   4.461  17.485  0.00  0.00    +0.000 C 
ATOM     16  O   UNL     1       6.047   4.116  16.395  0.00  0.00    +0.000 OA
ATOM     17  N   UNL     1       5.918   4.063  18.699  0.00  0.00    +0.000 N 
ATOM     18  H   UNL     1       6.242   4.493  19.562  0.00  0.00    +0.000 HD
BRANCH  15  19
ATOM     19  C   UNL     1       7.729   5.370  17.607  0.00  0.00    +0.000 C 
ATOM     20  C   UNL     1       7.864   5.777  19.072  0.00  0.00    +0.000 C 
BRANCH  19  22
ATOM     21  C   UNL     1       7.544   7.745  17.431  0.00  0.00    +0.000 C 
ATOM     22  O   UNL     1       7.628   6.504  16.738  0.00  0.00    +0.000 OA
ENDBRANCH  19  22
ENDBRANCH  15  19
ENDBRANCH   1  17
TORSDOF 4
ENDMDL
MODEL 5
REMARK VINA RESULT:      -7.4      2.658      4.644
REMARK  Name = 
REMARK  7 active torsions:
REMARK  status: ('A' for Active; 'I' for Inactive)
REMARK    1  A    between atoms: C_1  and  O_2
REMARK    2  A    between atoms: O_2  and  C_3
REMARK    3  A    between atoms: C_3  and  C_4
REMARK    4  A    between atoms: C_3  and  C_5
REMARK    5  A    between atoms: N_7  and  S_8
REMARK    6  A    between atoms: S_8  and  C_11
REMARK    7  A    between atoms: C_17  and  C_18
REMARK                            x       y       z     vdW  Elec       q    Type
REMARK                         _______ _______ _______ _____ _____    ______ ____
ROOT
ATOM      1  S   UNL     1       3.871   3.077  17.628  0.00  0.00    +0.000 S 
ATOM      2  O   UNL     1       3.095   3.614  16.525  0.00  0.00    +0.000 OA
ATOM      3  O   UNL     1       4.197   1.670  17.638  0.00  0.00    +0.000 OA
ENDROOT
BRANCH   1   4
ATOM      4  C   UNL     1       3.043   3.486  19.139  0.00  0.00    +0.000 A 
ATOM      5  C   UNL     1       2.760   2.440  20.033  0.00  0.00    +0.000 A 
ATOM      6  C   UNL     1       2.098   2.703  21.224  0.00  0.00    +0.000 A 
ATOM      7  C   UNL     1       1.727   4.008  21.517  0.00  0.00    +0.000 A 
ATOM      8  C   UNL     1       2.005   5.052  20.618  0.00  0.00    +0.000 A 
ATOM      9  C   UNL     1       1.600   6.360  20.923  0.00  0.00    +0.000 A 
ATOM     10  C   UNL     1       1.854   7.403  20.038  0.00  0.00    +0.000 A 
ATOM     11  C   UNL     1       1.403   8.801  20.312  0.00  0.00    +0.000 C 
ATOM     12  C   UNL     1       2.524   7.081  18.871  0.00  0.00    +0.000 A 
ATOM     13  N   UNL     1       2.913   5.828  18.534  0.00  0.00    +0.000 NA
ATOM     14  C   UNL     1       2.676   4.811  19.395  0.00  0.00    +0.000 A 
ENDBRANCH   1   4
BRANCH   1  17
ATOM     15  C   UNL     1       6.164   4.073  16.574  0.00  0.00    +0.000 C 
ATOM     16  O   UNL     1       5.928   3.595  15.468  0.00  0.00    +0.000 OA
ATOM     17  N   UNL     1       5.295   3.923  17.664  0.00  0.00    +0.000 N 
ATOM     18  H   UNL     1       5.471   4.457  18.511  0.00  0.00    +0.000 HD
BRANCH  15  19
ATOM     19  C   UNL     1       7.441   4.883  16.855  0.00  0.00    +0.000 C 
ATOM     20  C   UNL     1       7.669   4.885  18.365  0.00  0.00    +0.000 C 
BRANCH  19  22
ATOM     21  C   UNL     1       7.299   7.222  17.323  0.00  0.00    +0.000 C 
ATOM     22  O   UNL     1       7.342   6.210  16.322  0.00  0.00    +0.000 OA
ENDBRANCH  19  22
ENDBRANCH  15  19
ENDBRANCH   1  17
TORSDOF 4
ENDMDL
MODEL 6
REMARK VINA RESULT:      -7.3      2.464      4.600
REMARK  Name = 
REMARK  7 active torsions:
REMARK  status: ('A' for Active; 'I' for Inactive)
REMARK    1  A    between atoms: C_1  and  O_2
REMARK    2  A    between atoms: O_2  and  C_3
REMARK    3  A    between atoms: C_3  and  C_4
REMARK    4  A    between atoms: C_3  and  C_5
REMARK    5  A    between atoms: N_7  and  S_8
REMARK    6  A    between atoms: S_8  and  C_11
REMARK    7  A    between atoms: C_17  and  C_18
REMARK                            x       y       z     vdW  Elec       q    Type
REMARK                         _______ _______ _______ _____ _____    ______ ____
ROOT
ATOM      1  S   UNL     1       3.419   2.889  17.829  0.00  0.00    +0.000 S 
ATOM      2  O   UNL     1       2.473   2.852  16.729  0.00  0.00    +0.000 OA
ATOM      3  O   UNL     1       3.823   1.648  18.450  0.00  0.00    +0.000 OA
ENDROOT
BRANCH   1   4
ATOM      4  C   UNL     1       2.779   3.974  19.074  0.00  0.00    +0.000 A 
ATOM      5  C   UNL     1       2.386   3.404  20.297  0.00  0.00    +0.000 A 
ATOM      6  C   UNL     1       1.862   4.207  21.300  0.00  0.00    +0.000 A 
ATOM      7  C   UNL     1       1.740   5.572  21.079  0.00  0.00    +0.000 A 
ATOM      8  C   UNL     1       2.127   6.138  19.853  0.00  0.00    +0.000 A 
ATOM      9  C   UNL     1       1.973   7.516  19.642  0.00  0.00    +0.000 A 
ATOM     10  C   UNL     1       2.338   8.090  18.428  0.00  0.00    +0.000 A 
ATOM     11  C   UNL     1       2.151   9.548  18.154  0.00  0.00    +0.000 C 
ATOM     12  C   UNL     1       2.861   7.241  17.469  0.00  0.00    +0.000 A 
ATOM     13  N   UNL     1       3.007   5.904  17.630  0.00  0.00    +0.000 NA
ATOM     14  C   UNL     1       2.661   5.342  18.810  0.00  0.00    +0.000 A 
ENDBRANCH   1   4
BRANCH   1  17
ATOM     15  C   UNL     1       5.842   4.088  18.056  0.00  0.00    +0.000 C 
ATOM     16  O   UNL     1       5.855   3.957  19.276  0.00  0.00    +0.000 OA
ATOM     17  N   UNL     1       4.785   3.631  17.257  0.00  0.00    +0.000 N 
ATOM     18  H   UNL     1       4.893   3.639  16.245  0.00  0.00    +0.000 HD
BRANCH  15  19
ATOM     19  C   UNL     1       6.995   4.769  17.298  0.00  0.00    +0.000 C 
ATOM     20  C   UNL     1       7.652   5.767  18.249  0.00  0.00    +0.000 C 
BRANCH  19  22
ATOM     21  C   UNL     1       7.113   4.855  14.914  0.00  0.00    +0.000 C 
ATOM     22  O   UNL     1       6.530   5.394  16.096  0.00  0.00    +0.000 OA
ENDBRANCH  19  22
ENDBRANCH  15  19
ENDBRANCH   1  17
TORSDOF 4
ENDMDL
MODEL 7
REMARK VINA RESULT:      -7.2      1.564      1.676
REMARK  Name = 
REMARK  7 active torsions:
REMARK  status: ('A' for Active; 'I' for Inactive)
REMARK    1  A    between atoms: C_1  and  O_2
REMARK    2  A    between atoms: O_2  and  C_3
REMARK    3  A    between atoms: C_3  and  C_4
REMARK    4  A    between atoms: C_3  and  C_5
REMARK    5  A    between atoms: N_7  and  S_8
REMARK    6  A    between atoms: S_8  and  C_11
REMARK    7  A    between atoms: C_17  and  C_18
REMARK                            x       y       z     vdW  Elec       q    Type
REMARK                         _______ _______ _______ _____ _____    ______ ____
ROOT
ATOM      1  S   UNL     1       7.032   5.555  17.602  0.00  0.00    +0.000 S 
ATOM      2  O   UNL     1       7.385   4.348  18.327  0.00  0.00    +0.000 OA
ATOM      3  O   UNL     1       7.802   6.757  17.821  0.00  0.00    +0.000 OA
ENDROOT
BRANCH   1   4
ATOM      4  C   UNL     1       5.322   5.904  17.906  0.00  0.00    +0.000 A 
ATOM      5  C   UNL     1       4.780   7.066  17.330  0.00  0.00    +0.000 A 
ATOM      6  C   UNL     1       3.451   7.395  17.551  0.00  0.00    +0.000 A 
ATOM      7  C   UNL     1       2.669   6.560  18.340  0.00  0.00    +0.000 A 
ATOM      8  C   UNL     1       3.215   5.403  18.920  0.00  0.00    +0.000 A 
ATOM      9  C   UNL     1       2.414   4.587  19.732  0.00  0.00    +0.000 A 
ATOM     10  C   UNL     1       2.943   3.445  20.326  0.00  0.00    +0.000 A 
ATOM     11  C   UNL     1       2.130   2.574  21.228  0.00  0.00    +0.000 C 
ATOM     12  C   UNL     1       4.272   3.164  20.063  0.00  0.00    +0.000 A 
ATOM     13  N   UNL     1       5.081   3.938  19.301  0.00  0.00    +0.000 NA
ATOM     14  C   UNL     1       4.570   5.045  18.714  0.00  0.00    +0.000 A 
ENDBRANCH   1   4
BRANCH   1  17
ATOM     15  C   UNL     1       6.402   4.164  15.359  0.00  0.00    +0.000 C 
ATOM     16  O   UNL     1       5.603   3.451  15.958  0.00  0.00    +0.000 OA
ATOM     17  N   UNL     1       7.126   5.186  15.990  0.00  0.00    +0.000 N 
ATOM     18  H   UNL     1       7.664   5.833  15.419  0.00  0.00    +0.000 HD
BRANCH  15  19
ATOM     19  C   UNL     1       6.675   3.995  13.854  0.00  0.00    +0.000 C 
ATOM     20  C   UNL     1       7.519   5.182  13.397  0.00  0.00    +0.000 C 
BRANCH  19  22
ATOM     21  C   UNL     1       5.542   3.003  12.000  0.00  0.00    +0.000 C 
ATOM     22  O   UNL     1       5.453   3.884  13.114  0.00  0.00    +0.000 OA
ENDBRANCH  19  22
ENDBRANCH  15  19
ENDBRANCH   1  17
TORSDOF 4
ENDMDL
MODEL 8
REMARK VINA RESULT:      -7.2      1.500      2.829
REMARK  Name = 
REMARK  7 active torsions:
REMARK  status: ('A' for Active; 'I' for Inactive)
REMARK    1  A    between atoms: C_1  and  O_2
REMARK    2  A    between atoms: O_2  and  C_3
REMARK    3  A    between atoms: C_3  and  C_4
REMARK    4  A    between atoms: C_3  and  C_5
REMARK    5  A    between atoms: N_7  and  S_8
REMARK    6  A    between atoms: S_8  and  C_11
REMARK    7  A    between atoms: C_17  and  C_18
REMARK                            x       y       z     vdW  Elec       q    Type
REMARK                         _______ _______ _______ _____ _____    ______ ____
ROOT
ATOM      1  S   UNL     1       6.849   5.128  16.957  0.00  0.00    +0.000 S 
ATOM      2  O   UNL     1       7.940   4.399  17.579  0.00  0.00    +0.000 OA
ATOM      3  O   UNL     1       7.044   6.515  16.602  0.00  0.00    +0.000 OA
ENDROOT
BRANCH   1   4
ATOM      4  C   UNL     1       5.427   4.996  18.003  0.00  0.00    +0.000 A 
ATOM      5  C   UNL     1       5.296   3.835  18.785  0.00  0.00    +0.000 A 
ATOM      6  C   UNL     1       4.192   3.673  19.609  0.00  0.00    +0.000 A 
ATOM      7  C   UNL     1       3.229   4.673  19.653  0.00  0.00    +0.000 A 
ATOM      8  C   UNL     1       3.358   5.829  18.865  0.00  0.00    +0.000 A 
ATOM      9  C   UNL     1       2.361   6.815  18.907  0.00  0.00    +0.000 A 
ATOM     10  C   UNL     1       2.466   7.959  18.123  0.00  0.00    +0.000 A 
ATOM     11  C   UNL     1       1.405   9.012  18.112  0.00  0.00    +0.000 C 
ATOM     12  C   UNL     1       3.593   8.069  17.326  0.00  0.00    +0.000 A 
ATOM     13  N   UNL     1       4.565   7.129  17.246  0.00  0.00    +0.000 NA
ATOM     14  C   UNL     1       4.473   6.018  18.012  0.00  0.00    +0.000 A 
ENDBRANCH   1   4
BRANCH   1  17
ATOM     15  C   UNL     1       6.968   4.592  14.300  0.00  0.00    +0.000 C 
ATOM     16  O   UNL     1       7.787   5.485  14.100  0.00  0.00    +0.000 OA
ATOM     17  N   UNL     1       6.456   4.306  15.573  0.00  0.00    +0.000 N 
ATOM     18  H   UNL     1       5.894   3.469  15.701  0.00  0.00    +0.000 HD
BRANCH  15  19
ATOM     19  C   UNL     1       6.437   3.706  13.161  0.00  0.00    +0.000 C 
ATOM     20  C   UNL     1       7.203   4.070  11.891  0.00  0.00    +0.000 C 
BRANCH  19  22
ATOM     21  C   UNL     1       4.524   3.306  11.787  0.00  0.00    +0.000 C 
ATOM     22  O   UNL     1       5.021   3.859  13.000  0.00  0.00    +0.000 OA
ENDBRANCH  19  22
ENDBRANCH  15  19
ENDBRANCH   1  17
TORSDOF 4
ENDMDL
MODEL 9
REMARK VINA RESULT:      -7.1      2.830      4.997
REMARK  Name = 
REMARK  7 active torsions:
REMARK  status: ('A' for Active; 'I' for Inactive)
REMARK    1  A    between atoms: C_1  and  O_2
REMARK    2  A    between atoms: O_2  and  C_3
REMARK    3  A    between atoms: C_3  and  C_4
REMARK    4  A    between atoms: C_3  and  C_5
REMARK    5  A    between atoms: N_7  and  S_8
REMARK    6  A    between atoms: S_8  and  C_11
REMARK    7  A    between atoms: C_17  and  C_18
REMARK                            x       y       z     vdW  Elec       q    Type
REMARK                         _______ _______ _______ _____ _____    ______ ____
ROOT
ATOM      1  S   UNL     1       3.311   2.778  17.676  0.00  0.00    +0.000 S 
ATOM      2  O   UNL     1       2.324   3.000  16.636  0.00  0.00    +0.000 OA
ATOM      3  O   UNL     1       3.751   1.429  17.951  0.00  0.00    +0.000 OA
ENDROOT
BRANCH   1   4
ATOM      4  C   UNL     1       2.710   3.504  19.175  0.00  0.00    +0.000 A 
ATOM      5  C   UNL     1       2.476   2.650  20.266  0.00  0.00    +0.000 A 
ATOM      6  C   UNL     1       1.989   3.164  21.459  0.00  0.00    +0.000 A 
ATOM      7  C   UNL     1       1.743   4.527  21.557  0.00  0.00    +0.000 A 
ATOM      8  C   UNL     1       1.971   5.378  20.463  0.00  0.00    +0.000 A 
ATOM      9  C   UNL     1       1.694   6.748  20.576  0.00  0.00    +0.000 A 
ATOM     10  C   UNL     1       1.900   7.602  19.497  0.00  0.00    +0.000 A 
ATOM     11  C   UNL     1       1.579   9.061  19.569  0.00  0.00    +0.000 C 
ATOM     12  C   UNL     1       2.395   7.034  18.337  0.00  0.00    +0.000 A 
ATOM     13  N   UNL     1       2.655   5.713  18.184  0.00  0.00    +0.000 NA
ATOM     14  C   UNL     1       2.465   4.879  19.232  0.00  0.00    +0.000 A 
ENDBRANCH   1   4
BRANCH   1  17
ATOM     15  C   UNL     1       5.688   4.002  18.136  0.00  0.00    +0.000 C 
ATOM     16  O   UNL     1       5.710   3.641  19.309  0.00  0.00    +0.000 OA
ATOM     17  N   UNL     1       4.647   3.666  17.261  0.00  0.00    +0.000 N 
ATOM     18  H   UNL     1       4.751   3.871  16.270  0.00  0.00    +0.000 HD
BRANCH  15  19
ATOM     19  C   UNL     1       6.813   4.857  17.527  0.00  0.00    +0.000 C 
ATOM     20  C   UNL     1       7.058   4.358  16.104  0.00  0.00    +0.000 C 
BRANCH  19  22
ATOM     21  C   UNL     1       8.092   5.862  19.275  0.00  0.00    +0.000 C 
ATOM     22  O   UNL     1       7.999   4.803  18.329  0.00  0.00    +0.000 OA
ENDBRANCH  19  22
ENDBRANCH  15  19
ENDBRANCH   1  17
TORSDOF 4
ENDMDL
