MODEL 1
REMARK VINA RESULT:      -8.9      0.000      0.000
REMARK  Name = 
REMARK  7 active torsions:
REMARK  status: ('A' for Active; 'I' for Inactive)
REMARK    1  A    between atoms: N_1  and  C_2
REMARK    2  A    between atoms: C_6  and  C_7
REMARK    3  A    between atoms: C_15  and  C_16
REMARK    4  A    between atoms: N_18  and  C_19
REMARK    5  A    between atoms: C_24  and  C_25
REMARK    6  A    between atoms: C_28  and  O_29
REMARK    7  A    between atoms: C_30  and  N_31
REMARK                            x       y       z     vdW  Elec       q    Type
REMARK                         _______ _______ _______ _____ _____    ______ ____
ROOT
ATOM      1  C   UNL     1       2.660   7.794  18.277  0.00  0.00    +0.000 C 
ATOM      2  O   UNL     1       2.689   8.107  17.086  0.00  0.00    +0.000 OA
ATOM      3  N   UNL     1       3.245   6.627  18.755  0.00  0.00    +0.000 N 
ATOM      4  H   UNL     1       2.898   6.351  19.657  0.00  0.00    +0.000 HD
ENDROOT
BRANCH   1  11
ATOM      5  C   UNL     1       1.451   8.140  20.500  0.00  0.00    +0.000 A 
ATOM      6  C   UNL     1       0.652   8.922  21.327  0.00  0.00    +0.000 A 
ATOM      7  C   UNL     1       0.377  10.229  20.982  0.00  0.00    +0.000 A 
ATOM      8  F   UNL     1      -0.392  10.944  21.817  0.00  0.00    +0.000 F 
ATOM      9  C   UNL     1       0.909  10.776  19.807  0.00  0.00    +0.000 A 
ATOM     10  N   UNL     1       1.630  10.009  18.902  0.00  0.00    +0.000 NA
ATOM     11  C   UNL     1       1.882   8.697  19.264  0.00  0.00    +0.000 A 
BRANCH   9  12
ATOM     12  C   UNL     1       0.735  12.229  19.540  0.00  0.00    +0.000 A 
ATOM     13  C   UNL     1       1.707  13.169  19.905  0.00  0.00    +0.000 A 
ATOM     14  C   UNL     1       1.551  14.533  19.591  0.00  0.00    +0.000 A 
ATOM     15  C   UNL     1       0.405  14.982  18.928  0.00  0.00    +0.000 A 
ATOM     16  C   UNL     1      -0.572  14.071  18.551  0.00  0.00    +0.000 A 
ATOM     17  C   UNL     1      -0.409  12.718  18.865  0.00  0.00    +0.000 A 
ATOM     18  F   UNL     1      -1.393  11.889  18.497  0.00  0.00    +0.000 F 
ENDBRANCH   9  12
BRANCH   5  19
ATOM     19  N   UNL     1       1.740   6.845  20.945  0.00  0.00    +0.000 N 
ATOM     20  H   UNL     1       1.299   6.523  21.796  0.00  0.00    +0.000 HD
ATOM     21  H   UNL     1       2.734   6.617  20.883  0.00  0.00    +0.000 HD
ENDBRANCH   5  19
ENDBRANCH   1  11
BRANCH   3  22
ATOM     22  C   UNL     1       4.116   5.778  17.984  0.00  0.00    +0.000 A 
ATOM     23  C   UNL     1       5.459   6.180  17.814  0.00  0.00    +0.000 A 
ATOM     24  N   UNL     1       6.428   5.511  17.139  0.00  0.00    +0.000 NA
ATOM     25  C   UNL     1       6.053   4.380  16.539  0.00  0.00    +0.000 A 
ATOM     26  C   UNL     1       4.765   3.882  16.626  0.00  0.00    +0.000 A 
ATOM     27  C   UNL     1       3.768   4.526  17.409  0.00  0.00    +0.000 A 
BRANCH  27  28
ATOM     28  C   UNL     1       2.411   3.796  17.406  0.00  0.00    +0.000 C 
ATOM     29  C   UNL     1       1.354   4.260  18.404  0.00  0.00    +0.000 C 
ATOM     30  C   UNL     1       1.780   3.969  19.841  0.00  0.00    +0.000 C 
ATOM     31  C   UNL     1       2.246   2.531  20.106  0.00  0.00    +0.000 C 
ATOM     32  C   UNL     1       2.972   1.786  18.948  0.00  0.00    +0.000 C 
ATOM     33  C   UNL     1       2.457   2.244  17.578  0.00  0.00    +0.000 C 
BRANCH  32  34
ATOM     34  N   UNL     1       4.441   1.797  18.939  0.00  0.00    +0.000 NA
ATOM     35  H   UNL     1       4.813   2.219  18.093  0.00  0.00    +0.000 HD
ATOM     36  H   UNL     1       4.788   2.350  19.722  0.00  0.00    +0.000 HD
ENDBRANCH  32  34
BRANCH  31  37
ATOM     37  O   UNL     1       3.036   2.515  21.302  0.00  0.00    +0.000 OA
ATOM     38  H   UNL     1       3.851   2.019  21.112  0.00  0.00    +0.000 HD
ENDBRANCH  31  37
ENDBRANCH  27  28
ENDBRANCH   3  22
TORSDOF 7
ENDMDL
MODEL 2
REMARK VINA RESULT:      -8.9      0.646      1.188
REMARK  Name = 
REMARK  7 active torsions:
REMARK  status: ('A' for Active; 'I' for Inactive)
REMARK    1  A    between atoms: N_1  and  C_2
REMARK    2  A    between atoms: C_6  and  C_7
REMARK    3  A    between atoms: C_15  and  C_16
REMARK    4  A    between atoms: N_18  and  C_19
REMARK    5  A    between atoms: C_24  and  C_25
REMARK    6  A    between atoms: C_28  and  O_29
REMARK    7  A    between atoms: C_30  and  N_31
REMARK                            x       y       z     vdW  Elec       q    Type
REMARK                         _______ _______ _______ _____ _____    ______ ____
ROOT
ATOM      1  C   UNL     1       2.634   7.820  18.272  0.00  0.00    +0.000 C 
ATOM      2  O   UNL     1       2.654   8.128  17.079  0.00  0.00    +0.000 OA
ATOM      3  N   UNL     1       3.224   6.656  18.750  0.00  0.00    +0.000 N 
ATOM      4  H   UNL     1       2.884   6.382  19.656  0.00  0.00    +0.000 HD
ENDROOT
BRANCH   1  11
ATOM      5  C   UNL     1       1.459   8.180  20.511  0.00  0.00    +0.000 A 
ATOM      6  C   UNL     1       0.666   8.963  21.342  0.00  0.00    +0.000 A 
ATOM      7  C   UNL     1       0.370  10.262  20.987  0.00  0.00    +0.000 A 
ATOM      8  F   UNL     1      -0.392  10.980  21.826  0.00  0.00    +0.000 F 
ATOM      9  C   UNL     1       0.875  10.801  19.796  0.00  0.00    +0.000 A 
ATOM     10  N   UNL     1       1.589  10.032  18.888  0.00  0.00    +0.000 NA
ATOM     11  C   UNL     1       1.863   8.726  19.261  0.00  0.00    +0.000 A 
BRANCH   9  12
ATOM     12  C   UNL     1       0.681  12.249  19.514  0.00  0.00    +0.000 A 
ATOM     13  C   UNL     1      -0.343  12.708  18.675  0.00  0.00    +0.000 A 
ATOM     14  C   UNL     1      -0.547  14.086  18.468  0.00  0.00    +0.000 A 
ATOM     15  C   UNL     1       0.288  15.027  19.078  0.00  0.00    +0.000 A 
ATOM     16  C   UNL     1       1.307  14.599  19.918  0.00  0.00    +0.000 A 
ATOM     17  C   UNL     1       1.502  13.230  20.120  0.00  0.00    +0.000 A 
ATOM     18  F   UNL     1       2.514  12.875  20.921  0.00  0.00    +0.000 F 
ENDBRANCH   9  12
BRANCH   5  19
ATOM     19  N   UNL     1       1.771   6.894  20.967  0.00  0.00    +0.000 N 
ATOM     20  H   UNL     1       1.457   6.626  21.890  0.00  0.00    +0.000 HD
ATOM     21  H   UNL     1       2.735   6.624  20.763  0.00  0.00    +0.000 HD
ENDBRANCH   5  19
ENDBRANCH   1  11
BRANCH   3  22
ATOM     22  C   UNL     1       4.089   5.804  17.976  0.00  0.00    +0.000 A 
ATOM     23  C   UNL     1       5.429   6.209  17.791  0.00  0.00    +0.000 A 
ATOM     24  N   UNL     1       6.394   5.537  17.110  0.00  0.00    +0.000 NA
ATOM     25  C   UNL     1       6.016   4.402  16.521  0.00  0.00    +0.000 A 
ATOM     26  C   UNL     1       4.730   3.902  16.624  0.00  0.00    +0.000 A 
ATOM     27  C   UNL     1       3.738   4.548  17.412  0.00  0.00    +0.000 A 
BRANCH  27  28
ATOM     28  C   UNL     1       2.384   3.814  17.427  0.00  0.00    +0.000 C 
ATOM     29  C   UNL     1       1.342   4.269  18.446  0.00  0.00    +0.000 C 
ATOM     30  C   UNL     1       1.793   3.970  19.873  0.00  0.00    +0.000 C 
ATOM     31  C   UNL     1       2.267   2.531  20.121  0.00  0.00    +0.000 C 
ATOM     32  C   UNL     1       2.975   1.795  18.946  0.00  0.00    +0.000 C 
ATOM     33  C   UNL     1       2.436   2.261  17.588  0.00  0.00    +0.000 C 
BRANCH  32  34
ATOM     34  N   UNL     1       4.444   1.810  18.912  0.00  0.00    +0.000 NA
ATOM     35  H   UNL     1       4.802   1.935  17.970  0.00  0.00    +0.000 HD
ATOM     36  H   UNL     1       4.795   2.590  19.467  0.00  0.00    +0.000 HD
ENDBRANCH  32  34
BRANCH  31  37
ATOM     37  O   UNL     1       3.077   2.510  21.303  0.00  0.00    +0.000 OA
ATOM     38  H   UNL     1       3.695   1.762  21.225  0.00  0.00    +0.000 HD
ENDBRANCH  31  37
ENDBRANCH  27  28
ENDBRANCH   3  22
TORSDOF 7
ENDMDL
MODEL 3
REMARK VINA RESULT:      -8.6      3.528      9.510
REMARK  Name = 
REMARK  7 active torsions:
REMARK  status: ('A' for Active; 'I' for Inactive)
REMARK    1  A    between atoms: N_1  and  C_2
REMARK    2  A    between atoms: C_6  and  C_7
REMARK    3  A    between atoms: C_15  and  C_16
REMARK    4  A    between atoms: N_18  and  C_19
REMARK    5  A    between atoms: C_24  and  C_25
REMARK    6  A    between atoms: C_28  and  O_29
REMARK    7  A    between atoms: C_30  and  N_31
REMARK                            x       y       z     vdW  Elec       q    Type
REMARK                         _______ _______ _______ _____ _____    ______ ____
ROOT
ATOM      1  C   UNL     1       0.414   9.979  19.829  0.00  0.00    +0.000 C 
ATOM      2  O   UNL     1      -0.496  10.433  19.132  0.00  0.00    +0.000 OA
ATOM      3  N   UNL     1       0.714  10.490  21.086  0.00  0.00    +0.000 N 
ATOM      4  H   UNL     1       1.635  10.244  21.405  0.00  0.00    +0.000 HD
ENDROOT
BRANCH   1  11
ATOM      5  C   UNL     1       2.226   9.167  18.223  0.00  0.00    +0.000 A 
ATOM      6  C   UNL     1       2.931   8.125  17.630  0.00  0.00    +0.000 A 
ATOM      7  C   UNL     1       2.788   6.839  18.108  0.00  0.00    +0.000 A 
ATOM      8  F   UNL     1       3.495   5.870  17.507  0.00  0.00    +0.000 F 
ATOM      9  C   UNL     1       1.944   6.580  19.195  0.00  0.00    +0.000 A 
ATOM     10  N   UNL     1       1.148   7.567  19.758  0.00  0.00    +0.000 NA
ATOM     11  C   UNL     1       1.299   8.848  19.253  0.00  0.00    +0.000 A 
BRANCH   9  12
ATOM     12  C   UNL     1       1.932   5.218  19.796  0.00  0.00    +0.000 A 
ATOM     13  C   UNL     1       2.359   4.985  21.109  0.00  0.00    +0.000 A 
ATOM     14  C   UNL     1       2.284   3.700  21.678  0.00  0.00    +0.000 A 
ATOM     15  C   UNL     1       1.804   2.619  20.932  0.00  0.00    +0.000 A 
ATOM     16  C   UNL     1       1.370   2.823  19.629  0.00  0.00    +0.000 A 
ATOM     17  C   UNL     1       1.446   4.103  19.072  0.00  0.00    +0.000 A 
ATOM     18  F   UNL     1       1.034   4.236  17.805  0.00  0.00    +0.000 F 
ENDBRANCH   9  12
BRANCH   5  19
ATOM     19  N   UNL     1       2.470  10.454  17.728  0.00  0.00    +0.000 N 
ATOM     20  H   UNL     1       2.892  10.541  16.814  0.00  0.00    +0.000 HD
ATOM     21  H   UNL     1       2.870  11.079  18.430  0.00  0.00    +0.000 HD
ENDBRANCH   5  19
ENDBRANCH   1  11
BRANCH   3  22
ATOM     22  C   UNL     1      -0.107  11.433  21.799  0.00  0.00    +0.000 A 
ATOM     23  C   UNL     1      -1.165  10.932  22.589  0.00  0.00    +0.000 A 
ATOM     24  N   UNL     1      -2.032  11.657  23.342  0.00  0.00    +0.000 NA
ATOM     25  C   UNL     1      -1.892  12.982  23.287  0.00  0.00    +0.000 A 
ATOM     26  C   UNL     1      -0.898  13.596  22.546  0.00  0.00    +0.000 A 
ATOM     27  C   UNL     1       0.073  12.843  21.831  0.00  0.00    +0.000 A 
BRANCH  27  28
ATOM     28  C   UNL     1       1.115  13.711  21.100  0.00  0.00    +0.000 C 
ATOM     29  C   UNL     1       1.182  15.192  21.462  0.00  0.00    +0.000 C 
ATOM     30  C   UNL     1      -0.086  15.928  21.035  0.00  0.00    +0.000 C 
ATOM     31  C   UNL     1      -0.515  15.698  19.579  0.00  0.00    +0.000 C 
ATOM     32  C   UNL     1      -0.213  14.306  18.951  0.00  0.00    +0.000 C 
ATOM     33  C   UNL     1       1.063  13.693  19.538  0.00  0.00    +0.000 C 
BRANCH  32  34
ATOM     34  N   UNL     1      -1.283  13.299  18.968  0.00  0.00    +0.000 NA
ATOM     35  H   UNL     1      -1.067  12.504  18.373  0.00  0.00    +0.000 HD
ATOM     36  H   UNL     1      -1.404  12.936  19.913  0.00  0.00    +0.000 HD
ENDBRANCH  32  34
BRANCH  31  37
ATOM     37  O   UNL     1      -1.903  16.030  19.450  0.00  0.00    +0.000 OA
ATOM     38  H   UNL     1      -2.400  15.477  20.079  0.00  0.00    +0.000 HD
ENDBRANCH  31  37
ENDBRANCH  27  28
ENDBRANCH   3  22
TORSDOF 7
ENDMDL
MODEL 4
REMARK VINA RESULT:      -8.4      1.372      1.768
REMARK  Name = 
REMARK  7 active torsions:
REMARK  status: ('A' for Active; 'I' for Inactive)
REMARK    1  A    between atoms: N_1  and  C_2
REMARK    2  A    between atoms: C_6  and  C_7
REMARK    3  A    between atoms: C_15  and  C_16
REMARK    4  A    between atoms: N_18  and  C_19
REMARK    5  A    between atoms: C_24  and  C_25
REMARK    6  A    between atoms: C_28  and  O_29
REMARK    7  A    between atoms: C_30  and  N_31
REMARK                            x       y       z     vdW  Elec       q    Type
REMARK                         _______ _______ _______ _____ _____    ______ ____
ROOT
ATOM      1  C   UNL     1       2.230   7.840  18.514  0.00  0.00    +0.000 C 
ATOM      2  O   UNL     1       1.612   7.562  17.485  0.00  0.00    +0.000 OA
ATOM      3  N   UNL     1       3.402   7.187  18.878  0.00  0.00    +0.000 N 
ATOM      4  H   UNL     1       3.628   7.293  19.852  0.00  0.00    +0.000 HD
ENDROOT
BRANCH   1  11
ATOM      5  C   UNL     1       1.222   8.498  20.767  0.00  0.00    +0.000 A 
ATOM      6  C   UNL     1       0.586   9.435  21.574  0.00  0.00    +0.000 A 
ATOM      7  C   UNL     1       0.462  10.740  21.146  0.00  0.00    +0.000 A 
ATOM      8  F   UNL     1      -0.151  11.608  21.965  0.00  0.00    +0.000 F 
ATOM      9  C   UNL     1       0.984  11.128  19.905  0.00  0.00    +0.000 A 
ATOM     10  N   UNL     1       1.539  10.212  19.024  0.00  0.00    +0.000 NA
ATOM     11  C   UNL     1       1.641   8.905  19.470  0.00  0.00    +0.000 A 
BRANCH   9  12
ATOM     12  C   UNL     1       0.984  12.570  19.538  0.00  0.00    +0.000 A 
ATOM     13  C   UNL     1       2.150  13.346  19.587  0.00  0.00    +0.000 A 
ATOM     14  C   UNL     1       2.141  14.693  19.179  0.00  0.00    +0.000 A 
ATOM     15  C   UNL     1       0.959  15.295  18.738  0.00  0.00    +0.000 A 
ATOM     16  C   UNL     1      -0.210  14.548  18.675  0.00  0.00    +0.000 A 
ATOM     17  C   UNL     1      -0.193  13.209  19.080  0.00  0.00    +0.000 A 
ATOM     18  F   UNL     1      -1.353  12.545  19.019  0.00  0.00    +0.000 F 
ENDBRANCH   9  12
BRANCH   5  19
ATOM     19  N   UNL     1       1.368   7.209  21.294  0.00  0.00    +0.000 N 
ATOM     20  H   UNL     1       1.783   7.112  22.211  0.00  0.00    +0.000 HD
ATOM     21  H   UNL     1       1.720   6.538  20.608  0.00  0.00    +0.000 HD
ENDBRANCH   5  19
ENDBRANCH   1  11
BRANCH   3  22
ATOM     22  C   UNL     1       4.133   6.289  18.023  0.00  0.00    +0.000 A 
ATOM     23  C   UNL     1       4.575   6.772  16.772  0.00  0.00    +0.000 A 
ATOM     24  N   UNL     1       5.287   6.086  15.841  0.00  0.00    +0.000 NA
ATOM     25  C   UNL     1       5.553   4.811  16.127  0.00  0.00    +0.000 A 
ATOM     26  C   UNL     1       5.169   4.219  17.317  0.00  0.00    +0.000 A 
ATOM     27  C   UNL     1       4.507   4.955  18.338  0.00  0.00    +0.000 A 
BRANCH  27  28
ATOM     28  C   UNL     1       4.198   4.125  19.598  0.00  0.00    +0.000 C 
ATOM     29  C   UNL     1       4.578   2.646  19.584  0.00  0.00    +0.000 C 
ATOM     30  C   UNL     1       3.742   1.867  18.572  0.00  0.00    +0.000 C 
ATOM     31  C   UNL     1       2.226   2.082  18.674  0.00  0.00    +0.000 C 
ATOM     32  C   UNL     1       1.728   3.485  19.130  0.00  0.00    +0.000 C 
ATOM     33  C   UNL     1       2.718   4.142  20.098  0.00  0.00    +0.000 C 
BRANCH  32  34
ATOM     34  N   UNL     1       1.355   4.452  18.090  0.00  0.00    +0.000 NA
ATOM     35  H   UNL     1       1.384   5.409  18.431  0.00  0.00    +0.000 HD
ATOM     36  H   UNL     1       2.014   4.397  17.313  0.00  0.00    +0.000 HD
ENDBRANCH  32  34
BRANCH  31  37
ATOM     37  O   UNL     1       1.621   1.701  17.432  0.00  0.00    +0.000 OA
ATOM     38  H   UNL     1       1.741   2.437  16.806  0.00  0.00    +0.000 HD
ENDBRANCH  31  37
ENDBRANCH  27  28
ENDBRANCH   3  22
TORSDOF 7
ENDMDL
MODEL 5
REMARK VINA RESULT:      -8.4      1.524      2.157
REMARK  Name = 
REMARK  7 active torsions:
REMARK  status: ('A' for Active; 'I' for Inactive)
REMARK    1  A    between atoms: N_1  and  C_2
REMARK    2  A    between atoms: C_6  and  C_7
REMARK    3  A    between atoms: C_15  and  C_16
REMARK    4  A    between atoms: N_18  and  C_19
REMARK    5  A    between atoms: C_24  and  C_25
REMARK    6  A    between atoms: C_28  and  O_29
REMARK    7  A    between atoms: C_30  and  N_31
REMARK                            x       y       z     vdW  Elec       q    Type
REMARK                         _______ _______ _______ _____ _____    ______ ____
ROOT
ATOM      1  C   UNL     1       2.204   7.911  18.487  0.00  0.00    +0.000 C 
ATOM      2  O   UNL     1       1.564   7.602  17.480  0.00  0.00    +0.000 OA
ATOM      3  N   UNL     1       3.410   7.305  18.818  0.00  0.00    +0.000 N 
ATOM      4  H   UNL     1       3.663   7.427  19.783  0.00  0.00    +0.000 HD
ENDROOT
BRANCH   1  11
ATOM      5  C   UNL     1       1.228   8.547  20.760  0.00  0.00    +0.000 A 
ATOM      6  C   UNL     1       0.585   9.468  21.579  0.00  0.00    +0.000 A 
ATOM      7  C   UNL     1       0.415  10.768  21.150  0.00  0.00    +0.000 A 
ATOM      8  F   UNL     1      -0.204  11.621  21.980  0.00  0.00    +0.000 F 
ATOM      9  C   UNL     1       0.898  11.168  19.897  0.00  0.00    +0.000 A 
ATOM     10  N   UNL     1       1.459  10.264  19.006  0.00  0.00    +0.000 NA
ATOM     11  C   UNL     1       1.607   8.962  19.453  0.00  0.00    +0.000 A 
BRANCH   9  12
ATOM     12  C   UNL     1       0.850  12.608  19.526  0.00  0.00    +0.000 A 
ATOM     13  C   UNL     1      -0.189  13.137  18.750  0.00  0.00    +0.000 A 
ATOM     14  C   UNL     1      -0.247  14.514  18.459  0.00  0.00    +0.000 A 
ATOM     15  C   UNL     1       0.749  15.380  18.920  0.00  0.00    +0.000 A 
ATOM     16  C   UNL     1       1.787  14.882  19.695  0.00  0.00    +0.000 A 
ATOM     17  C   UNL     1       1.837  13.514  19.981  0.00  0.00    +0.000 A 
ATOM     18  F   UNL     1       2.873  13.088  20.713  0.00  0.00    +0.000 F 
ENDBRANCH   9  12
BRANCH   5  19
ATOM     19  N   UNL     1       1.422   7.265  21.286  0.00  0.00    +0.000 N 
ATOM     20  H   UNL     1       2.369   6.922  21.372  0.00  0.00    +0.000 HD
ATOM     21  H   UNL     1       0.766   6.578  20.908  0.00  0.00    +0.000 HD
ENDBRANCH   5  19
ENDBRANCH   1  11
BRANCH   3  22
ATOM     22  C   UNL     1       4.146   6.427  17.946  0.00  0.00    +0.000 A 
ATOM     23  C   UNL     1       4.586   6.935  16.705  0.00  0.00    +0.000 A 
ATOM     24  N   UNL     1       5.302   6.270  15.762  0.00  0.00    +0.000 NA
ATOM     25  C   UNL     1       5.574   4.992  16.024  0.00  0.00    +0.000 A 
ATOM     26  C   UNL     1       5.193   4.375  17.202  0.00  0.00    +0.000 A 
ATOM     27  C   UNL     1       4.527   5.088  18.236  0.00  0.00    +0.000 A 
BRANCH  27  28
ATOM     28  C   UNL     1       4.222   4.233  19.481  0.00  0.00    +0.000 C 
ATOM     29  C   UNL     1       4.637   2.765  19.451  0.00  0.00    +0.000 C 
ATOM     30  C   UNL     1       3.832   1.980  18.417  0.00  0.00    +0.000 C 
ATOM     31  C   UNL     1       2.310   2.158  18.503  0.00  0.00    +0.000 C 
ATOM     32  C   UNL     1       1.773   3.542  18.972  0.00  0.00    +0.000 C 
ATOM     33  C   UNL     1       2.736   4.209  19.962  0.00  0.00    +0.000 C 
BRANCH  32  34
ATOM     34  N   UNL     1       1.391   4.516  17.941  0.00  0.00    +0.000 NA
ATOM     35  H   UNL     1       2.202   4.931  17.489  0.00  0.00    +0.000 HD
ATOM     36  H   UNL     1       0.852   4.053  17.209  0.00  0.00    +0.000 HD
ENDBRANCH  32  34
BRANCH  31  37
ATOM     37  O   UNL     1       1.731   1.781  17.248  0.00  0.00    +0.000 OA
ATOM     38  H   UNL     1       2.459   1.606  16.626  0.00  0.00    +0.000 HD
ENDBRANCH  31  37
ENDBRANCH  27  28
ENDBRANCH   3  22
TORSDOF 7
ENDMDL
MODEL 6
REMARK VINA RESULT:      -8.3      3.479      8.843
REMARK  Name = 
REMARK  7 active torsions:
REMARK  status: ('A' for Active; 'I' for Inactive)
REMARK    1  A    between atoms: N_1  and  C_2
REMARK    2  A    between atoms: C_6  and  C_7
REMARK    3  A    between atoms: C_15  and  C_16
REMARK    4  A    between atoms: N_18  and  C_19
REMARK    5  A    between atoms: C_24  and  C_25
REMARK    6  A    between atoms: C_28  and  O_29
REMARK    7  A    between atoms: C_30  and  N_31
REMARK                            x       y       z     vdW  Elec       q    Type
REMARK                         _______ _______ _______ _____ _____    ______ ____
ROOT
ATOM      1  C   UNL     1       1.768   8.836  18.236  0.00  0.00    +0.000 C 
ATOM      2  O   UNL     1       2.208   9.677  17.450  0.00  0.00    +0.000 OA
ATOM      3  N   UNL     1       0.570   9.010  18.918  0.00  0.00    +0.000 N 
ATOM      4  H   UNL     1       0.483   8.416  19.724  0.00  0.00    +0.000 HD
ENDROOT
BRANCH   1  11
ATOM      5  C   UNL     1       2.422   6.894  19.760  0.00  0.00    +0.000 A 
ATOM      6  C   UNL     1       3.269   5.834  20.064  0.00  0.00    +0.000 A 
ATOM      7  C   UNL     1       4.200   5.411  19.138  0.00  0.00    +0.000 A 
ATOM      8  F   UNL     1       4.988   4.378  19.474  0.00  0.00    +0.000 F 
ATOM      9  C   UNL     1       4.288   6.038  17.888  0.00  0.00    +0.000 A 
ATOM     10  N   UNL     1       3.534   7.160  17.576  0.00  0.00    +0.000 NA
ATOM     11  C   UNL     1       2.616   7.574  18.526  0.00  0.00    +0.000 A 
BRANCH   9  12
ATOM     12  C   UNL     1       5.183   5.462  16.849  0.00  0.00    +0.000 A 
ATOM     13  C   UNL     1       4.737   4.487  15.947  0.00  0.00    +0.000 A 
ATOM     14  C   UNL     1       5.583   3.997  14.933  0.00  0.00    +0.000 A 
ATOM     15  C   UNL     1       6.898   4.456  14.821  0.00  0.00    +0.000 A 
ATOM     16  C   UNL     1       7.364   5.426  15.699  0.00  0.00    +0.000 A 
ATOM     17  C   UNL     1       6.518   5.909  16.702  0.00  0.00    +0.000 A 
ATOM     18  F   UNL     1       7.028   6.825  17.533  0.00  0.00    +0.000 F 
ENDBRANCH   9  12
BRANCH   5  19
ATOM     19  N   UNL     1       1.461   7.226  20.722  0.00  0.00    +0.000 N 
ATOM     20  H   UNL     1       1.449   8.172  21.079  0.00  0.00    +0.000 HD
ATOM     21  H   UNL     1       1.357   6.510  21.443  0.00  0.00    +0.000 HD
ENDBRANCH   5  19
ENDBRANCH   1  11
BRANCH   3  22
ATOM     22  C   UNL     1      -0.381  10.054  18.639  0.00  0.00    +0.000 A 
ATOM     23  C   UNL     1      -1.277   9.869  17.563  0.00  0.00    +0.000 A 
ATOM     24  N   UNL     1      -2.250  10.727  17.159  0.00  0.00    +0.000 NA
ATOM     25  C   UNL     1      -2.329  11.881  17.823  0.00  0.00    +0.000 A 
ATOM     26  C   UNL     1      -1.504  12.184  18.892  0.00  0.00    +0.000 A 
ATOM     27  C   UNL     1      -0.548  11.253  19.383  0.00  0.00    +0.000 A 
BRANCH  27  28
ATOM     28  C   UNL     1       0.245  11.765  20.601  0.00  0.00    +0.000 C 
ATOM     29  C   UNL     1      -0.242  13.045  21.277  0.00  0.00    +0.000 C 
ATOM     30  C   UNL     1      -0.081  14.254  20.359  0.00  0.00    +0.000 C 
ATOM     31  C   UNL     1       1.310  14.416  19.729  0.00  0.00    +0.000 C 
ATOM     32  C   UNL     1       2.104  13.118  19.400  0.00  0.00    +0.000 C 
ATOM     33  C   UNL     1       1.776  11.994  20.389  0.00  0.00    +0.000 C 
BRANCH  32  34
ATOM     34  N   UNL     1       2.025  12.594  18.030  0.00  0.00    +0.000 NA
ATOM     35  H   UNL     1       2.778  11.942  17.827  0.00  0.00    +0.000 HD
ATOM     36  H   UNL     1       1.152  12.082  17.905  0.00  0.00    +0.000 HD
ENDBRANCH  32  34
BRANCH  31  37
ATOM     37  O   UNL     1       1.198  15.257  18.575  0.00  0.00    +0.000 OA
ATOM     38  H   UNL     1       0.252  15.427  18.422  0.00  0.00    +0.000 HD
ENDBRANCH  31  37
ENDBRANCH  27  28
ENDBRANCH   3  22
TORSDOF 7
ENDMDL
MODEL 7
REMARK VINA RESULT:      -8.3      3.466      8.829
REMARK  Name = 
REMARK  7 active torsions:
REMARK  status: ('A' for Active; 'I' for Inactive)
REMARK    1  A    between atoms: N_1  and  C_2
REMARK    2  A    between atoms: C_6  and  C_7
REMARK    3  A    between atoms: C_15  and  C_16
REMARK    4  A    between atoms: N_18  and  C_19
REMARK    5  A    between atoms: C_24  and  C_25
REMARK    6  A    between atoms: C_28  and  O_29
REMARK    7  A    between atoms: C_30  and  N_31
REMARK                            x       y       z     vdW  Elec       q    Type
REMARK                         _______ _______ _______ _____ _____    ______ ____
ROOT
ATOM      1  C   UNL     1       1.689   8.909  18.284  0.00  0.00    +0.000 C 
ATOM      2  O   UNL     1       2.153   9.774  17.539  0.00  0.00    +0.000 OA
ATOM      3  N   UNL     1       0.461   9.054  18.919  0.00  0.00    +0.000 N 
ATOM      4  H   UNL     1       0.347   8.439  19.706  0.00  0.00    +0.000 HD
ENDROOT
BRANCH   1  11
ATOM      5  C   UNL     1       2.366   6.990  19.827  0.00  0.00    +0.000 A 
ATOM      6  C   UNL     1       3.214   5.930  20.130  0.00  0.00    +0.000 A 
ATOM      7  C   UNL     1       4.123   5.487  19.193  0.00  0.00    +0.000 A 
ATOM      8  F   UNL     1       4.913   4.456  19.530  0.00  0.00    +0.000 F 
ATOM      9  C   UNL     1       4.188   6.092  17.931  0.00  0.00    +0.000 A 
ATOM     10  N   UNL     1       3.432   7.213  17.615  0.00  0.00    +0.000 NA
ATOM     11  C   UNL     1       2.536   7.648  18.578  0.00  0.00    +0.000 A 
BRANCH   9  12
ATOM     12  C   UNL     1       5.058   5.494  16.882  0.00  0.00    +0.000 A 
ATOM     13  C   UNL     1       6.272   6.081  16.506  0.00  0.00    +0.000 A 
ATOM     14  C   UNL     1       7.109   5.468  15.554  0.00  0.00    +0.000 A 
ATOM     15  C   UNL     1       6.731   4.268  14.943  0.00  0.00    +0.000 A 
ATOM     16  C   UNL     1       5.533   3.663  15.301  0.00  0.00    +0.000 A 
ATOM     17  C   UNL     1       4.709   4.277  16.249  0.00  0.00    +0.000 A 
ATOM     18  F   UNL     1       3.557   3.660  16.538  0.00  0.00    +0.000 F 
ENDBRANCH   9  12
BRANCH   5  19
ATOM     19  N   UNL     1       1.427   7.343  20.803  0.00  0.00    +0.000 N 
ATOM     20  H   UNL     1       0.633   6.734  20.944  0.00  0.00    +0.000 HD
ATOM     21  H   UNL     1       1.187   8.336  20.782  0.00  0.00    +0.000 HD
ENDBRANCH   5  19
ENDBRANCH   1  11
BRANCH   3  22
ATOM     22  C   UNL     1      -0.488  10.097  18.628  0.00  0.00    +0.000 A 
ATOM     23  C   UNL     1      -1.357   9.918  17.529  0.00  0.00    +0.000 A 
ATOM     24  N   UNL     1      -2.323  10.775  17.109  0.00  0.00    +0.000 NA
ATOM     25  C   UNL     1      -2.424  11.922  17.782  0.00  0.00    +0.000 A 
ATOM     26  C   UNL     1      -1.627  12.219  18.874  0.00  0.00    +0.000 A 
ATOM     27  C   UNL     1      -0.678  11.288  19.379  0.00  0.00    +0.000 A 
BRANCH  27  28
ATOM     28  C   UNL     1       0.083  11.792  20.620  0.00  0.00    +0.000 C 
ATOM     29  C   UNL     1      -0.430  13.060  21.298  0.00  0.00    +0.000 C 
ATOM     30  C   UNL     1      -0.256  14.281  20.398  0.00  0.00    +0.000 C 
ATOM     31  C   UNL     1       1.147  14.460  19.802  0.00  0.00    +0.000 C 
ATOM     32  C   UNL     1       1.959  13.172  19.477  0.00  0.00    +0.000 C 
ATOM     33  C   UNL     1       1.616  12.035  20.446  0.00  0.00    +0.000 C 
BRANCH  32  34
ATOM     34  N   UNL     1       1.915  12.662  18.100  0.00  0.00    +0.000 NA
ATOM     35  H   UNL     1       1.629  11.687  18.064  0.00  0.00    +0.000 HD
ATOM     36  H   UNL     1       1.231  13.189  17.557  0.00  0.00    +0.000 HD
ENDBRANCH  32  34
BRANCH  31  37
ATOM     37  O   UNL     1       1.055  15.313  18.655  0.00  0.00    +0.000 OA
ATOM     38  H   UNL     1       0.681  16.163  18.946  0.00  0.00    +0.000 HD
ENDBRANCH  31  37
ENDBRANCH  27  28
ENDBRANCH   3  22
TORSDOF 7
ENDMDL
MODEL 8
REMARK VINA RESULT:      -8.3      3.461      9.685
REMARK  Name = 
REMARK  7 active torsions:
REMARK  status: ('A' for Active; 'I' for Inactive)
REMARK    1  A    between atoms: N_1  and  C_2
REMARK    2  A    between atoms: C_6  and  C_7
REMARK    3  A    between atoms: C_15  and  C_16
REMARK    4  A    between atoms: N_18  and  C_19
REMARK    5  A    between atoms: C_24  and  C_25
REMARK    6  A    between atoms: C_28  and  O_29
REMARK    7  A    between atoms: C_30  and  N_31
REMARK                            x       y       z     vdW  Elec       q    Type
REMARK                         _______ _______ _______ _____ _____    ______ ____
ROOT
ATOM      1  C   UNL     1       1.000   9.730  21.297  0.00  0.00    +0.000 C 
ATOM      2  O   UNL     1       1.550   9.780  22.399  0.00  0.00    +0.000 OA
ATOM      3  N   UNL     1      -0.066  10.555  20.960  0.00  0.00    +0.000 N 
ATOM      4  H   UNL     1      -0.598  10.216  20.177  0.00  0.00    +0.000 HD
ENDROOT
BRANCH   1  11
ATOM      5  C   UNL     1       1.803   9.079  18.962  0.00  0.00    +0.000 A 
ATOM      6  C   UNL     1       2.108   8.100  18.023  0.00  0.00    +0.000 A 
ATOM      7  C   UNL     1       2.170   6.776  18.405  0.00  0.00    +0.000 A 
ATOM      8  F   UNL     1       2.476   5.870  17.465  0.00  0.00    +0.000 F 
ATOM      9  C   UNL     1       1.938   6.415  19.739  0.00  0.00    +0.000 A 
ATOM     10  N   UNL     1       1.536   7.341  20.691  0.00  0.00    +0.000 NA
ATOM     11  C   UNL     1       1.468   8.662  20.280  0.00  0.00    +0.000 A 
BRANCH   9  12
ATOM     12  C   UNL     1       2.171   5.007  20.160  0.00  0.00    +0.000 A 
ATOM     13  C   UNL     1       1.127   4.187  20.610  0.00  0.00    +0.000 A 
ATOM     14  C   UNL     1       1.358   2.840  20.948  0.00  0.00    +0.000 A 
ATOM     15  C   UNL     1       2.644   2.297  20.867  0.00  0.00    +0.000 A 
ATOM     16  C   UNL     1       3.695   3.087  20.421  0.00  0.00    +0.000 A 
ATOM     17  C   UNL     1       3.458   4.423  20.085  0.00  0.00    +0.000 A 
ATOM     18  F   UNL     1       4.513   5.142  19.683  0.00  0.00    +0.000 F 
ENDBRANCH   9  12
BRANCH   5  19
ATOM     19  N   UNL     1       1.822  10.405  18.516  0.00  0.00    +0.000 N 
ATOM     20  H   UNL     1       1.494  11.125  19.145  0.00  0.00    +0.000 HD
ATOM     21  H   UNL     1       1.481  10.507  17.558  0.00  0.00    +0.000 HD
ENDBRANCH   5  19
ENDBRANCH   1  11
BRANCH   3  22
ATOM     22  C   UNL     1      -0.506  11.680  21.744  0.00  0.00    +0.000 A 
ATOM     23  C   UNL     1      -1.551  11.477  22.671  0.00  0.00    +0.000 A 
ATOM     24  N   UNL     1      -2.088  12.404  23.506  0.00  0.00    +0.000 NA
ATOM     25  C   UNL     1      -1.603  13.641  23.400  0.00  0.00    +0.000 A 
ATOM     26  C   UNL     1      -0.582  13.969  22.526  0.00  0.00    +0.000 A 
ATOM     27  C   UNL     1       0.051  12.987  21.716  0.00  0.00    +0.000 A 
BRANCH  27  28
ATOM     28  C   UNL     1       1.188  13.546  20.839  0.00  0.00    +0.000 C 
ATOM     29  C   UNL     1       1.584  15.007  21.040  0.00  0.00    +0.000 C 
ATOM     30  C   UNL     1       0.463  15.951  20.612  0.00  0.00    +0.000 C 
ATOM     31  C   UNL     1      -0.116  15.687  19.216  0.00  0.00    +0.000 C 
ATOM     32  C   UNL     1      -0.155  14.211  18.721  0.00  0.00    +0.000 C 
ATOM     33  C   UNL     1       1.012  13.398  19.294  0.00  0.00    +0.000 C 
BRANCH  32  34
ATOM     34  N   UNL     1      -1.403  13.459  18.904  0.00  0.00    +0.000 NA
ATOM     35  H   UNL     1      -1.678  13.409  19.881  0.00  0.00    +0.000 HD
ATOM     36  H   UNL     1      -2.164  13.922  18.408  0.00  0.00    +0.000 HD
ENDBRANCH  32  34
BRANCH  31  37
ATOM     37  O   UNL     1      -1.413  16.291  19.133  0.00  0.00    +0.000 OA
ATOM     38  H   UNL     1      -1.577  16.758  19.972  0.00  0.00    +0.000 HD
ENDBRANCH  31  37
ENDBRANCH  27  28
ENDBRANCH   3  22
TORSDOF 7
ENDMDL
MODEL 9
REMARK VINA RESULT:      -8.2      3.338      8.329
REMARK  Name = 
REMARK  7 active torsions:
REMARK  status: ('A' for Active; 'I' for Inactive)
REMARK    1  A    between atoms: N_1  and  C_2
REMARK    2  A    between atoms: C_6  and  C_7
REMARK    3  A    between atoms: C_15  and  C_16
REMARK    4  A    between atoms: N_18  and  C_19
REMARK    5  A    between atoms: C_24  and  C_25
REMARK    6  A    between atoms: C_28  and  O_29
REMARK    7  A    between atoms: C_30  and  N_31
REMARK                            x       y       z     vdW  Elec       q    Type
REMARK                         _______ _______ _______ _____ _____    ______ ____
ROOT
ATOM      1  C   UNL     1       1.380   6.507  20.584  0.00  0.00    +0.000 C 
ATOM      2  O   UNL     1       0.221   6.135  20.778  0.00  0.00    +0.000 OA
ATOM      3  N   UNL     1       1.769   7.834  20.725  0.00  0.00    +0.000 N 
ATOM      4  H   UNL     1       2.635   8.044  20.259  0.00  0.00    +0.000 HD
ENDROOT
BRANCH   1  11
ATOM      5  C   UNL     1       2.356   4.147  20.614  0.00  0.00    +0.000 A 
ATOM      6  C   UNL     1       3.365   3.256  20.265  0.00  0.00    +0.000 A 
ATOM      7  C   UNL     1       4.340   3.640  19.368  0.00  0.00    +0.000 A 
ATOM      8  F   UNL     1       5.287   2.742  19.057  0.00  0.00    +0.000 F 
ATOM      9  C   UNL     1       4.312   4.920  18.799  0.00  0.00    +0.000 A 
ATOM     10  N   UNL     1       3.383   5.875  19.188  0.00  0.00    +0.000 NA
ATOM     11  C   UNL     1       2.422   5.471  20.099  0.00  0.00    +0.000 A 
BRANCH   9  12
ATOM     12  C   UNL     1       5.275   5.253  17.714  0.00  0.00    +0.000 A 
ATOM     13  C   UNL     1       6.383   6.080  17.938  0.00  0.00    +0.000 A 
ATOM     14  C   UNL     1       7.314   6.336  16.914  0.00  0.00    +0.000 A 
ATOM     15  C   UNL     1       7.138   5.788  15.640  0.00  0.00    +0.000 A 
ATOM     16  C   UNL     1       6.051   4.961  15.392  0.00  0.00    +0.000 A 
ATOM     17  C   UNL     1       5.131   4.710  16.415  0.00  0.00    +0.000 A 
ATOM     18  F   UNL     1       4.090   3.925  16.113  0.00  0.00    +0.000 F 
ENDBRANCH   9  12
BRANCH   5  19
ATOM     19  N   UNL     1       1.365   3.667  21.479  0.00  0.00    +0.000 N 
ATOM     20  H   UNL     1       0.631   4.302  21.764  0.00  0.00    +0.000 HD
ATOM     21  H   UNL     1       1.744   3.104  22.243  0.00  0.00    +0.000 HD
ENDBRANCH   5  19
ENDBRANCH   1  11
BRANCH   3  22
ATOM     22  C   UNL     1       0.949   8.866  21.303  0.00  0.00    +0.000 A 
ATOM     23  C   UNL     1       0.980   9.033  22.705  0.00  0.00    +0.000 A 
ATOM     24  N   UNL     1       0.294   9.955  23.429  0.00  0.00    +0.000 NA
ATOM     25  C   UNL     1      -0.525  10.751  22.741  0.00  0.00    +0.000 A 
ATOM     26  C   UNL     1      -0.648  10.683  21.365  0.00  0.00    +0.000 A 
ATOM     27  C   UNL     1       0.136   9.786  20.589  0.00  0.00    +0.000 A 
BRANCH  27  28
ATOM     28  C   UNL     1      -0.123   9.890  19.074  0.00  0.00    +0.000 C 
ATOM     29  C   UNL     1       1.023   9.526  18.132  0.00  0.00    +0.000 C 
ATOM     30  C   UNL     1       2.175  10.521  18.249  0.00  0.00    +0.000 C 
ATOM     31  C   UNL     1       1.774  11.999  18.142  0.00  0.00    +0.000 C 
ATOM     32  C   UNL     1       0.378  12.407  18.696  0.00  0.00    +0.000 C 
ATOM     33  C   UNL     1      -0.638  11.268  18.548  0.00  0.00    +0.000 C 
BRANCH  32  34
ATOM     34  N   UNL     1       0.311  12.938  20.064  0.00  0.00    +0.000 NA
ATOM     35  H   UNL     1       0.812  13.818  20.157  0.00  0.00    +0.000 HD
ATOM     36  H   UNL     1      -0.660  13.125  20.316  0.00  0.00    +0.000 HD
ENDBRANCH  32  34
BRANCH  31  37
ATOM     37  O   UNL     1       2.811  12.800  18.722  0.00  0.00    +0.000 OA
ATOM     38  H   UNL     1       3.220  12.283  19.439  0.00  0.00    +0.000 HD
ENDBRANCH  31  37
ENDBRANCH  27  28
ENDBRANCH   3  22
TORSDOF 7
ENDMDL
