MODEL 1
REMARK VINA RESULT:      -6.6      0.000      0.000
REMARK  Name = 
REMARK  7 active torsions:
REMARK  status: ('A' for Active; 'I' for Inactive)
REMARK    1  A    between atoms: S_2  and  O_4
REMARK    2  A    between atoms: S_2  and  C_5
REMARK    3  A    between atoms: C_8  and  N_9
REMARK    4  A    between atoms: N_10  and  C_11
REMARK    5  A    between atoms: C_15  and  S_16
REMARK    6  A    between atoms: S_16  and  O_19
REMARK    7  A    between atoms: C_24  and  O_25
REMARK                            x       y       z     vdW  Elec       q    Type
REMARK                         _______ _______ _______ _____ _____    ______ ____
ROOT
ATOM      1  N   UNL     1       1.372  12.283  20.985  0.00  0.00    +0.000 NA
ATOM      2  N   UNL     1       0.528  11.388  20.742  0.00  0.00    +0.000 NA
ENDROOT
BRANCH   1   6
ATOM      3  C   UNL     1       1.520  16.124  19.247  0.00  0.00    +0.000 A 
ATOM      4  C   UNL     1       2.139  15.043  18.611  0.00  0.00    +0.000 A 
ATOM      5  C   UNL     1       2.116  13.786  19.199  0.00  0.00    +0.000 A 
ATOM      6  C   UNL     1       1.408  13.561  20.386  0.00  0.00    +0.000 A 
ATOM      7  C   UNL     1       0.787  14.664  21.052  0.00  0.00    +0.000 A 
ATOM      8  C   UNL     1       0.116  14.497  22.287  0.00  0.00    +0.000 A 
ATOM      9  C   UNL     1      -0.494  15.561  22.954  0.00  0.00    +0.000 A 
ATOM     10  C   UNL     1      -0.448  16.830  22.403  0.00  0.00    +0.000 A 
ATOM     11  C   UNL     1       0.208  17.031  21.190  0.00  0.00    +0.000 A 
ATOM     12  C   UNL     1       0.839  15.968  20.482  0.00  0.00    +0.000 A 
BRANCH   3  14
ATOM     13  O   UNL     1       2.257  18.631  19.404  0.00  0.00    +0.000 OA
ATOM     14  S   UNL     1       1.648  17.714  18.466  0.00  0.00    +0.000 S 
ATOM     15  O   UNL     1       0.383  18.008  17.828  0.00  0.00    +0.000 OA
BRANCH  14  16
ATOM     16  O   UNL     1       2.722  17.536  17.274  0.00  0.00    +0.000 OA
ATOM     17  H   UNL     1       2.453  18.120  16.536  0.00  0.00    +0.000 HD
ENDBRANCH  14  16
ENDBRANCH   3  14
ENDBRANCH   1   6
BRANCH   2  18
ATOM     18  C   UNL     1      -0.678  11.529  20.016  0.00  0.00    +0.000 A 
ATOM     19  C   UNL     1      -1.852  12.062  20.535  0.00  0.00    +0.000 A 
ATOM     20  C   UNL     1      -3.019  12.128  19.770  0.00  0.00    +0.000 A 
ATOM     21  C   UNL     1      -3.115  11.550  18.484  0.00  0.00    +0.000 A 
ATOM     22  C   UNL     1      -4.319  11.507  17.727  0.00  0.00    +0.000 A 
ATOM     23  C   UNL     1      -4.380  10.904  16.465  0.00  0.00    +0.000 A 
ATOM     24  C   UNL     1      -3.238  10.340  15.924  0.00  0.00    +0.000 A 
ATOM     25  C   UNL     1      -2.040  10.378  16.641  0.00  0.00    +0.000 A 
ATOM     26  C   UNL     1      -1.945  10.963  17.933  0.00  0.00    +0.000 A 
ATOM     27  C   UNL     1      -0.746  10.982  18.711  0.00  0.00    +0.000 A 
BRANCH  22  28
ATOM     28  S   UNL     1      -5.835  12.161  18.393  0.00  0.00    +0.000 S 
ATOM     29  O   UNL     1      -6.751  12.371  17.288  0.00  0.00    +0.000 OA
ATOM     30  O   UNL     1      -6.181  11.374  19.550  0.00  0.00    +0.000 OA
BRANCH  28  31
ATOM     31  O   UNL     1      -5.478  13.653  18.894  0.00  0.00    +0.000 OA
ATOM     32  H   UNL     1      -5.398  13.618  19.872  0.00  0.00    +0.000 HD
ENDBRANCH  28  31
ENDBRANCH  22  28
BRANCH  27  33
ATOM     33  O   UNL     1       0.427  10.436  18.227  0.00  0.00    +0.000 OA
ATOM     34  H   UNL     1       0.680   9.658  18.743  0.00  0.00    +0.000 HD
ENDBRANCH  27  33
ENDBRANCH   2  18
TORSDOF 7
ENDMDL
MODEL 2
REMARK VINA RESULT:      -6.6      0.279      1.141
REMARK  Name = 
REMARK  7 active torsions:
REMARK  status: ('A' for Active; 'I' for Inactive)
REMARK    1  A    between atoms: S_2  and  O_4
REMARK    2  A    between atoms: S_2  and  C_5
REMARK    3  A    between atoms: C_8  and  N_9
REMARK    4  A    between atoms: N_10  and  C_11
REMARK    5  A    between atoms: C_15  and  S_16
REMARK    6  A    between atoms: S_16  and  O_19
REMARK    7  A    between atoms: C_24  and  O_25
REMARK                            x       y       z     vdW  Elec       q    Type
REMARK                         _______ _______ _______ _____ _____    ______ ____
ROOT
ATOM      1  N   UNL     1       1.453  12.055  20.784  0.00  0.00    +0.000 NA
ATOM      2  N   UNL     1       0.562  11.196  20.585  0.00  0.00    +0.000 NA
ENDROOT
BRANCH   1   6
ATOM      3  C   UNL     1       1.685  15.877  19.014  0.00  0.00    +0.000 A 
ATOM      4  C   UNL     1       2.236  14.769  18.362  0.00  0.00    +0.000 A 
ATOM      5  C   UNL     1       2.186  13.517  18.959  0.00  0.00    +0.000 A 
ATOM      6  C   UNL     1       1.516  13.327  20.175  0.00  0.00    +0.000 A 
ATOM      7  C   UNL     1       0.965  14.457  20.856  0.00  0.00    +0.000 A 
ATOM      8  C   UNL     1       0.337  14.325  22.118  0.00  0.00    +0.000 A 
ATOM      9  C   UNL     1      -0.204  15.415  22.800  0.00  0.00    +0.000 A 
ATOM     10  C   UNL     1      -0.130  16.679  22.238  0.00  0.00    +0.000 A 
ATOM     11  C   UNL     1       0.487  16.847  20.999  0.00  0.00    +0.000 A 
ATOM     12  C   UNL     1       1.047  15.755  20.275  0.00  0.00    +0.000 A 
BRANCH   3  14
ATOM     13  O   UNL     1       0.526  17.908  17.839  0.00  0.00    +0.000 OA
ATOM     14  S   UNL     1       1.846  17.456  18.217  0.00  0.00    +0.000 S 
ATOM     15  O   UNL     1       2.925  17.371  17.257  0.00  0.00    +0.000 OA
BRANCH  14  16
ATOM     16  O   UNL     1       2.342  18.481  19.361  0.00  0.00    +0.000 OA
ATOM     17  H   UNL     1       3.080  18.059  19.847  0.00  0.00    +0.000 HD
ENDBRANCH  14  16
ENDBRANCH   3  14
ENDBRANCH   1   6
BRANCH   2  18
ATOM     18  C   UNL     1      -0.669  11.384  19.913  0.00  0.00    +0.000 A 
ATOM     19  C   UNL     1      -1.820  11.894  20.504  0.00  0.00    +0.000 A 
ATOM     20  C   UNL     1      -3.013  12.010  19.787  0.00  0.00    +0.000 A 
ATOM     21  C   UNL     1      -3.160  11.506  18.475  0.00  0.00    +0.000 A 
ATOM     22  C   UNL     1      -4.392  11.513  17.761  0.00  0.00    +0.000 A 
ATOM     23  C   UNL     1      -4.503  10.982  16.471  0.00  0.00    +0.000 A 
ATOM     24  C   UNL     1      -3.386  10.442  15.858  0.00  0.00    +0.000 A 
ATOM     25  C   UNL     1      -2.162  10.433  16.531  0.00  0.00    +0.000 A 
ATOM     26  C   UNL     1      -2.016  10.943  17.849  0.00  0.00    +0.000 A 
ATOM     27  C   UNL     1      -0.789  10.912  18.583  0.00  0.00    +0.000 A 
BRANCH  22  28
ATOM     28  S   UNL     1      -5.876  12.137  18.519  0.00  0.00    +0.000 S 
ATOM     29  O   UNL     1      -6.260  11.214  19.569  0.00  0.00    +0.000 OA
ATOM     30  O   UNL     1      -5.690  13.547  18.754  0.00  0.00    +0.000 OA
BRANCH  28  31
ATOM     31  O   UNL     1      -7.032  11.967  17.406  0.00  0.00    +0.000 OA
ATOM     32  H   UNL     1      -7.452  12.847  17.288  0.00  0.00    +0.000 HD
ENDBRANCH  28  31
ENDBRANCH  22  28
BRANCH  27  33
ATOM     33  O   UNL     1       0.362  10.387  18.027  0.00  0.00    +0.000 OA
ATOM     34  H   UNL     1       0.243  10.233  17.080  0.00  0.00    +0.000 HD
ENDBRANCH  27  33
ENDBRANCH   2  18
TORSDOF 7
ENDMDL
MODEL 3
REMARK VINA RESULT:      -6.5      3.467      6.291
REMARK  Name = 
REMARK  7 active torsions:
REMARK  status: ('A' for Active; 'I' for Inactive)
REMARK    1  A    between atoms: S_2  and  O_4
REMARK    2  A    between atoms: S_2  and  C_5
REMARK    3  A    between atoms: C_8  and  N_9
REMARK    4  A    between atoms: N_10  and  C_11
REMARK    5  A    between atoms: C_15  and  S_16
REMARK    6  A    between atoms: S_16  and  O_19
REMARK    7  A    between atoms: C_24  and  O_25
REMARK                            x       y       z     vdW  Elec       q    Type
REMARK                         _______ _______ _______ _____ _____    ______ ____
ROOT
ATOM      1  N   UNL     1       0.746  13.716  21.698  0.00  0.00    +0.000 NA
ATOM      2  N   UNL     1       0.187  14.107  22.749  0.00  0.00    +0.000 NA
ENDROOT
BRANCH   1   6
ATOM      3  C   UNL     1      -1.123  11.402  18.706  0.00  0.00    +0.000 A 
ATOM      4  C   UNL     1      -1.118  12.798  18.611  0.00  0.00    +0.000 A 
ATOM      5  C   UNL     1      -0.529  13.559  19.611  0.00  0.00    +0.000 A 
ATOM      6  C   UNL     1       0.137  12.948  20.681  0.00  0.00    +0.000 A 
ATOM      7  C   UNL     1       0.122  11.523  20.795  0.00  0.00    +0.000 A 
ATOM      8  C   UNL     1       0.725  10.864  21.893  0.00  0.00    +0.000 A 
ATOM      9  C   UNL     1       0.719   9.474  22.024  0.00  0.00    +0.000 A 
ATOM     10  C   UNL     1       0.102   8.699  21.056  0.00  0.00    +0.000 A 
ATOM     11  C   UNL     1      -0.506   9.315  19.964  0.00  0.00    +0.000 A 
ATOM     12  C   UNL     1      -0.516  10.730  19.799  0.00  0.00    +0.000 A 
BRANCH   3  14
ATOM     13  O   UNL     1      -3.267  10.138  17.899  0.00  0.00    +0.000 OA
ATOM     14  S   UNL     1      -1.951  10.499  17.421  0.00  0.00    +0.000 S 
ATOM     15  O   UNL     1      -1.034   9.510  16.899  0.00  0.00    +0.000 OA
BRANCH  14  16
ATOM     16  O   UNL     1      -2.200  11.556  16.227  0.00  0.00    +0.000 OA
ATOM     17  H   UNL     1      -1.649  12.346  16.402  0.00  0.00    +0.000 HD
ENDBRANCH  14  16
ENDBRANCH   3  14
ENDBRANCH   1   6
BRANCH   2  18
ATOM     18  C   UNL     1      -1.197  14.075  23.041  0.00  0.00    +0.000 A 
ATOM     19  C   UNL     1      -1.919  12.916  23.310  0.00  0.00    +0.000 A 
ATOM     20  C   UNL     1      -3.295  12.958  23.545  0.00  0.00    +0.000 A 
ATOM     21  C   UNL     1      -4.052  14.142  23.402  0.00  0.00    +0.000 A 
ATOM     22  C   UNL     1      -5.469  14.193  23.530  0.00  0.00    +0.000 A 
ATOM     23  C   UNL     1      -6.187  15.382  23.356  0.00  0.00    +0.000 A 
ATOM     24  C   UNL     1      -5.507  16.551  23.062  0.00  0.00    +0.000 A 
ATOM     25  C   UNL     1      -4.116  16.532  22.942  0.00  0.00    +0.000 A 
ATOM     26  C   UNL     1      -3.356  15.341  23.091  0.00  0.00    +0.000 A 
ATOM     27  C   UNL     1      -1.937  15.278  22.933  0.00  0.00    +0.000 A 
BRANCH  22  28
ATOM     28  S   UNL     1      -6.405  12.712  23.847  0.00  0.00    +0.000 S 
ATOM     29  O   UNL     1      -6.722  12.106  22.568  0.00  0.00    +0.000 OA
ATOM     30  O   UNL     1      -5.742  11.991  24.904  0.00  0.00    +0.000 OA
BRANCH  28  31
ATOM     31  O   UNL     1      -7.832  13.215  24.406  0.00  0.00    +0.000 OA
ATOM     32  H   UNL     1      -8.122  12.566  25.084  0.00  0.00    +0.000 HD
ENDBRANCH  28  31
ENDBRANCH  22  28
BRANCH  27  33
ATOM     33  O   UNL     1      -1.201  16.410  22.640  0.00  0.00    +0.000 OA
ATOM     34  H   UNL     1      -0.831  16.795  23.446  0.00  0.00    +0.000 HD
ENDBRANCH  27  33
ENDBRANCH   2  18
TORSDOF 7
ENDMDL
MODEL 4
REMARK VINA RESULT:      -6.4      0.606      1.003
REMARK  Name = 
REMARK  7 active torsions:
REMARK  status: ('A' for Active; 'I' for Inactive)
REMARK    1  A    between atoms: S_2  and  O_4
REMARK    2  A    between atoms: S_2  and  C_5
REMARK    3  A    between atoms: C_8  and  N_9
REMARK    4  A    between atoms: N_10  and  C_11
REMARK    5  A    between atoms: C_15  and  S_16
REMARK    6  A    between atoms: S_16  and  O_19
REMARK    7  A    between atoms: C_24  and  O_25
REMARK                            x       y       z     vdW  Elec       q    Type
REMARK                         _______ _______ _______ _____ _____    ______ ____
ROOT
ATOM      1  N   UNL     1       0.969  11.959  21.436  0.00  0.00    +0.000 NA
ATOM      2  N   UNL     1       0.006  11.187  21.219  0.00  0.00    +0.000 NA
ENDROOT
BRANCH   1   6
ATOM      3  C   UNL     1       1.943  15.427  19.239  0.00  0.00    +0.000 A 
ATOM      4  C   UNL     1       2.373  14.173  18.794  0.00  0.00    +0.000 A 
ATOM      5  C   UNL     1       2.078  13.036  19.534  0.00  0.00    +0.000 A 
ATOM      6  C   UNL     1       1.281  13.113  20.683  0.00  0.00    +0.000 A 
ATOM      7  C   UNL     1       0.852  14.393  21.154  0.00  0.00    +0.000 A 
ATOM      8  C   UNL     1       0.100  14.527  22.347  0.00  0.00    +0.000 A 
ATOM      9  C   UNL     1      -0.325  15.767  22.825  0.00  0.00    +0.000 A 
ATOM     10  C   UNL     1      -0.008  16.917  22.121  0.00  0.00    +0.000 A 
ATOM     11  C   UNL     1       0.735  16.822  20.945  0.00  0.00    +0.000 A 
ATOM     12  C   UNL     1       1.184  15.573  20.429  0.00  0.00    +0.000 A 
BRANCH   3  14
ATOM     13  O   UNL     1       3.125  16.374  17.105  0.00  0.00    +0.000 OA
ATOM     14  S   UNL     1       2.414  16.841  18.274  0.00  0.00    +0.000 S 
ATOM     15  O   UNL     1       2.982  17.829  19.165  0.00  0.00    +0.000 OA
BRANCH  14  16
ATOM     16  O   UNL     1       1.038  17.477  17.718  0.00  0.00    +0.000 OA
ATOM     17  H   UNL     1       0.921  17.182  16.792  0.00  0.00    +0.000 HD
ENDBRANCH  14  16
ENDBRANCH   3  14
ENDBRANCH   1   6
BRANCH   2  18
ATOM     18  C   UNL     1      -1.088  11.413  20.352  0.00  0.00    +0.000 A 
ATOM     19  C   UNL     1      -2.264  12.058  20.719  0.00  0.00    +0.000 A 
ATOM     20  C   UNL     1      -3.323  12.204  19.818  0.00  0.00    +0.000 A 
ATOM     21  C   UNL     1      -3.316  11.605  18.539  0.00  0.00    +0.000 A 
ATOM     22  C   UNL     1      -4.422  11.646  17.644  0.00  0.00    +0.000 A 
ATOM     23  C   UNL     1      -4.386  11.019  16.393  0.00  0.00    +0.000 A 
ATOM     24  C   UNL     1      -3.243  10.344  16.001  0.00  0.00    +0.000 A 
ATOM     25  C   UNL     1      -2.140  10.298  16.856  0.00  0.00    +0.000 A 
ATOM     26  C   UNL     1      -2.146  10.905  18.141  0.00  0.00    +0.000 A 
ATOM     27  C   UNL     1      -1.051  10.840  19.057  0.00  0.00    +0.000 A 
BRANCH  22  28
ATOM     28  S   UNL     1      -5.942  12.445  18.114  0.00  0.00    +0.000 S 
ATOM     29  O   UNL     1      -6.647  12.805  16.899  0.00  0.00    +0.000 OA
ATOM     30  O   UNL     1      -6.546  11.658  19.159  0.00  0.00    +0.000 OA
BRANCH  28  31
ATOM     31  O   UNL     1      -5.505  13.863  18.748  0.00  0.00    +0.000 OA
ATOM     32  H   UNL     1      -6.264  14.476  18.634  0.00  0.00    +0.000 HD
ENDBRANCH  28  31
ENDBRANCH  22  28
BRANCH  27  33
ATOM     33  O   UNL     1       0.119  10.183  18.725  0.00  0.00    +0.000 OA
ATOM     34  H   UNL     1       0.280   9.447  19.330  0.00  0.00    +0.000 HD
ENDBRANCH  27  33
ENDBRANCH   2  18
TORSDOF 7
ENDMDL
MODEL 5
REMARK VINA RESULT:      -6.4      3.706      6.149
REMARK  Name = 
REMARK  7 active torsions:
REMARK  status: ('A' for Active; 'I' for Inactive)
REMARK    1  A    between atoms: S_2  and  O_4
REMARK    2  A    between atoms: S_2  and  C_5
REMARK    3  A    between atoms: C_8  and  N_9
REMARK    4  A    between atoms: N_10  and  C_11
REMARK    5  A    between atoms: C_15  and  S_16
REMARK    6  A    between atoms: S_16  and  O_19
REMARK    7  A    between atoms: C_24  and  O_25
REMARK                            x       y       z     vdW  Elec       q    Type
REMARK                         _______ _______ _______ _____ _____    ______ ____
ROOT
ATOM      1  N   UNL     1      -1.418  13.986  23.608  0.00  0.00    +0.000 NA
ATOM      2  N   UNL     1      -0.680  13.799  22.612  0.00  0.00    +0.000 NA
ENDROOT
BRANCH   1   6
ATOM      3  C   UNL     1      -5.575  13.268  23.677  0.00  0.00    +0.000 A 
ATOM      4  C   UNL     1      -4.681  12.233  23.969  0.00  0.00    +0.000 A 
ATOM      5  C   UNL     1      -3.313  12.462  23.916  0.00  0.00    +0.000 A 
ATOM      6  C   UNL     1      -2.809  13.743  23.654  0.00  0.00    +0.000 A 
ATOM      7  C   UNL     1      -3.715  14.802  23.338  0.00  0.00    +0.000 A 
ATOM      8  C   UNL     1      -3.250  16.097  23.003  0.00  0.00    +0.000 A 
ATOM      9  C   UNL     1      -4.118  17.144  22.689  0.00  0.00    +0.000 A 
ATOM     10  C   UNL     1      -5.486  16.924  22.699  0.00  0.00    +0.000 A 
ATOM     11  C   UNL     1      -5.978  15.660  23.020  0.00  0.00    +0.000 A 
ATOM     12  C   UNL     1      -5.120  14.571  23.347  0.00  0.00    +0.000 A 
BRANCH   3  14
ATOM     13  O   UNL     1      -7.826  13.036  22.361  0.00  0.00    +0.000 OA
ATOM     14  S   UNL     1      -7.308  12.882  23.702  0.00  0.00    +0.000 S 
ATOM     15  O   UNL     1      -7.907  13.560  24.831  0.00  0.00    +0.000 OA
BRANCH  14  16
ATOM     16  O   UNL     1      -7.405  11.303  24.025  0.00  0.00    +0.000 OA
ATOM     17  H   UNL     1      -8.250  11.141  24.491  0.00  0.00    +0.000 HD
ENDBRANCH  14  16
ENDBRANCH   3  14
ENDBRANCH   1   6
BRANCH   2  18
ATOM     18  C   UNL     1      -1.009  13.105  21.424  0.00  0.00    +0.000 A 
ATOM     19  C   UNL     1      -2.263  13.124  20.823  0.00  0.00    +0.000 A 
ATOM     20  C   UNL     1      -2.527  12.376  19.673  0.00  0.00    +0.000 A 
ATOM     21  C   UNL     1      -1.591  11.468  19.129  0.00  0.00    +0.000 A 
ATOM     22  C   UNL     1      -1.870  10.615  18.024  0.00  0.00    +0.000 A 
ATOM     23  C   UNL     1      -0.923   9.711  17.529  0.00  0.00    +0.000 A 
ATOM     24  C   UNL     1       0.328   9.644  18.117  0.00  0.00    +0.000 A 
ATOM     25  C   UNL     1       0.632  10.477  19.195  0.00  0.00    +0.000 A 
ATOM     26  C   UNL     1      -0.310  11.393  19.738  0.00  0.00    +0.000 A 
ATOM     27  C   UNL     1      -0.046  12.230  20.867  0.00  0.00    +0.000 A 
BRANCH  22  28
ATOM     28  S   UNL     1      -3.479  10.611  17.265  0.00  0.00    +0.000 S 
ATOM     29  O   UNL     1      -3.362   9.943  15.982  0.00  0.00    +0.000 OA
ATOM     30  O   UNL     1      -4.436  10.208  18.265  0.00  0.00    +0.000 OA
BRANCH  28  31
ATOM     31  O   UNL     1      -3.779  12.149  16.880  0.00  0.00    +0.000 OA
ATOM     32  H   UNL     1      -2.917  12.619  16.874  0.00  0.00    +0.000 HD
ENDBRANCH  28  31
ENDBRANCH  22  28
BRANCH  27  33
ATOM     33  O   UNL     1       1.183  12.210  21.498  0.00  0.00    +0.000 OA
ATOM     34  H   UNL     1       1.630  13.062  21.401  0.00  0.00    +0.000 HD
ENDBRANCH  27  33
ENDBRANCH   2  18
TORSDOF 7
ENDMDL
MODEL 6
REMARK VINA RESULT:      -6.3      3.773      7.160
REMARK  Name = 
REMARK  7 active torsions:
REMARK  status: ('A' for Active; 'I' for Inactive)
REMARK    1  A    between atoms: S_2  and  O_4
REMARK    2  A    between atoms: S_2  and  C_5
REMARK    3  A    between atoms: C_8  and  N_9
REMARK    4  A    between atoms: N_10  and  C_11
REMARK    5  A    between atoms: C_15  and  S_16
REMARK    6  A    between atoms: S_16  and  O_19
REMARK    7  A    between atoms: C_24  and  O_25
REMARK                            x       y       z     vdW  Elec       q    Type
REMARK                         _______ _______ _______ _____ _____    ______ ____
ROOT
ATOM      1  N   UNL     1      -2.766  14.225  22.294  0.00  0.00    +0.000 NA
ATOM      2  N   UNL     1      -1.523  14.065  22.274  0.00  0.00    +0.000 NA
ENDROOT
BRANCH   1   6
ATOM      3  C   UNL     1      -5.593  12.157  19.943  0.00  0.00    +0.000 A 
ATOM      4  C   UNL     1      -4.370  12.547  19.387  0.00  0.00    +0.000 A 
ATOM      5  C   UNL     1      -3.453  13.254  20.152  0.00  0.00    +0.000 A 
ATOM      6  C   UNL     1      -3.698  13.514  21.507  0.00  0.00    +0.000 A 
ATOM      7  C   UNL     1      -4.952  13.134  22.078  0.00  0.00    +0.000 A 
ATOM      8  C   UNL     1      -5.271  13.434  23.425  0.00  0.00    +0.000 A 
ATOM      9  C   UNL     1      -6.490  13.074  24.001  0.00  0.00    +0.000 A 
ATOM     10  C   UNL     1      -7.433  12.401  23.242  0.00  0.00    +0.000 A 
ATOM     11  C   UNL     1      -7.154  12.095  21.911  0.00  0.00    +0.000 A 
ATOM     12  C   UNL     1      -5.920  12.446  21.293  0.00  0.00    +0.000 A 
BRANCH   3  14
ATOM     13  O   UNL     1      -7.873  12.182  18.658  0.00  0.00    +0.000 OA
ATOM     14  S   UNL     1      -6.739  11.313  18.882  0.00  0.00    +0.000 S 
ATOM     15  O   UNL     1      -6.903   9.962  19.376  0.00  0.00    +0.000 OA
BRANCH  14  16
ATOM     16  O   UNL     1      -6.005  11.181  17.451  0.00  0.00    +0.000 OA
ATOM     17  H   UNL     1      -6.526  11.689  16.796  0.00  0.00    +0.000 HD
ENDBRANCH  14  16
ENDBRANCH   3  14
ENDBRANCH   1   6
BRANCH   2  18
ATOM     18  C   UNL     1      -0.810  13.010  21.657  0.00  0.00    +0.000 A 
ATOM     19  C   UNL     1      -0.310  13.052  20.360  0.00  0.00    +0.000 A 
ATOM     20  C   UNL     1       0.347  11.952  19.801  0.00  0.00    +0.000 A 
ATOM     21  C   UNL     1       0.431  10.706  20.460  0.00  0.00    +0.000 A 
ATOM     22  C   UNL     1       0.999   9.540  19.872  0.00  0.00    +0.000 A 
ATOM     23  C   UNL     1       1.043   8.315  20.549  0.00  0.00    +0.000 A 
ATOM     24  C   UNL     1       0.532   8.227  21.832  0.00  0.00    +0.000 A 
ATOM     25  C   UNL     1      -0.020   9.359  22.437  0.00  0.00    +0.000 A 
ATOM     26  C   UNL     1      -0.101  10.613  21.774  0.00  0.00    +0.000 A 
ATOM     27  C   UNL     1      -0.697  11.779  22.347  0.00  0.00    +0.000 A 
BRANCH  22  28
ATOM     28  S   UNL     1       1.616   9.573  18.203  0.00  0.00    +0.000 S 
ATOM     29  O   UNL     1       2.318  10.828  18.016  0.00  0.00    +0.000 OA
ATOM     30  O   UNL     1       2.226   8.295  17.935  0.00  0.00    +0.000 OA
BRANCH  28  31
ATOM     31  O   UNL     1       0.312   9.710  17.263  0.00  0.00    +0.000 OA
ATOM     32  H   UNL     1       0.346  10.599  16.848  0.00  0.00    +0.000 HD
ENDBRANCH  28  31
ENDBRANCH  22  28
BRANCH  27  33
ATOM     33  O   UNL     1      -1.224  11.756  23.624  0.00  0.00    +0.000 OA
ATOM     34  H   UNL     1      -0.832  11.041  24.142  0.00  0.00    +0.000 HD
ENDBRANCH  27  33
ENDBRANCH   2  18
TORSDOF 7
ENDMDL
MODEL 7
REMARK VINA RESULT:      -6.2      0.938      2.576
REMARK  Name = 
REMARK  7 active torsions:
REMARK  status: ('A' for Active; 'I' for Inactive)
REMARK    1  A    between atoms: S_2  and  O_4
REMARK    2  A    between atoms: S_2  and  C_5
REMARK    3  A    between atoms: C_8  and  N_9
REMARK    4  A    between atoms: N_10  and  C_11
REMARK    5  A    between atoms: C_15  and  S_16
REMARK    6  A    between atoms: S_16  and  O_19
REMARK    7  A    between atoms: C_24  and  O_25
REMARK                            x       y       z     vdW  Elec       q    Type
REMARK                         _______ _______ _______ _____ _____    ______ ____
ROOT
ATOM      1  N   UNL     1       1.162  12.141  21.207  0.00  0.00    +0.000 NA
ATOM      2  N   UNL     1       0.431  11.250  20.716  0.00  0.00    +0.000 NA
ENDROOT
BRANCH   1   6
ATOM      3  C   UNL     1       0.852  16.253  20.317  0.00  0.00    +0.000 A 
ATOM      4  C   UNL     1       0.152  15.717  21.402  0.00  0.00    +0.000 A 
ATOM      5  C   UNL     1       0.230  14.359  21.676  0.00  0.00    +0.000 A 
ATOM      6  C   UNL     1       1.070  13.523  20.929  0.00  0.00    +0.000 A 
ATOM      7  C   UNL     1       1.776  14.059  19.808  0.00  0.00    +0.000 A 
ATOM      8  C   UNL     1       2.586  13.240  18.984  0.00  0.00    +0.000 A 
ATOM      9  C   UNL     1       3.281  13.744  17.883  0.00  0.00    +0.000 A 
ATOM     10  C   UNL     1       3.184  15.090  17.571  0.00  0.00    +0.000 A 
ATOM     11  C   UNL     1       2.392  15.925  18.358  0.00  0.00    +0.000 A 
ATOM     12  C   UNL     1       1.671  15.443  19.488  0.00  0.00    +0.000 A 
BRANCH   3  14
ATOM     13  O   UNL     1      -0.132  18.133  18.784  0.00  0.00    +0.000 OA
ATOM     14  S   UNL     1       0.651  17.987  19.991  0.00  0.00    +0.000 S 
ATOM     15  O   UNL     1       1.938  18.630  20.144  0.00  0.00    +0.000 OA
BRANCH  14  16
ATOM     16  O   UNL     1      -0.279  18.557  21.182  0.00  0.00    +0.000 OA
ATOM     17  H   UNL     1      -0.116  18.013  21.979  0.00  0.00    +0.000 HD
ENDBRANCH  14  16
ENDBRANCH   3  14
ENDBRANCH   1   6
BRANCH   2  18
ATOM     18  C   UNL     1      -0.764  11.436  19.982  0.00  0.00    +0.000 A 
ATOM     19  C   UNL     1      -1.957  11.902  20.524  0.00  0.00    +0.000 A 
ATOM     20  C   UNL     1      -3.111  12.017  19.744  0.00  0.00    +0.000 A 
ATOM     21  C   UNL     1      -3.173  11.556  18.411  0.00  0.00    +0.000 A 
ATOM     22  C   UNL     1      -4.362  11.562  17.629  0.00  0.00    +0.000 A 
ATOM     23  C   UNL     1      -4.389  11.073  16.317  0.00  0.00    +0.000 A 
ATOM     24  C   UNL     1      -3.228  10.577  15.751  0.00  0.00    +0.000 A 
ATOM     25  C   UNL     1      -2.044  10.570  16.492  0.00  0.00    +0.000 A 
ATOM     26  C   UNL     1      -1.983  11.038  17.832  0.00  0.00    +0.000 A 
ATOM     27  C   UNL     1      -0.799  11.006  18.633  0.00  0.00    +0.000 A 
BRANCH  22  28
ATOM     28  S   UNL     1      -5.901  12.130  18.320  0.00  0.00    +0.000 S 
ATOM     29  O   UNL     1      -6.459  11.047  19.108  0.00  0.00    +0.000 OA
ATOM     30  O   UNL     1      -5.679  13.448  18.860  0.00  0.00    +0.000 OA
BRANCH  28  31
ATOM     31  O   UNL     1      -6.912  12.267  17.070  0.00  0.00    +0.000 OA
ATOM     32  H   UNL     1      -7.134  11.356  16.777  0.00  0.00    +0.000 HD
ENDBRANCH  28  31
ENDBRANCH  22  28
BRANCH  27  33
ATOM     33  O   UNL     1       0.392  10.524  18.126  0.00  0.00    +0.000 OA
ATOM     34  H   UNL     1       0.371   9.560  18.062  0.00  0.00    +0.000 HD
ENDBRANCH  27  33
ENDBRANCH   2  18
TORSDOF 7
ENDMDL
MODEL 8
REMARK VINA RESULT:      -6.1      3.500      4.971
REMARK  Name = 
REMARK  7 active torsions:
REMARK  status: ('A' for Active; 'I' for Inactive)
REMARK    1  A    between atoms: S_2  and  O_4
REMARK    2  A    between atoms: S_2  and  C_5
REMARK    3  A    between atoms: C_8  and  N_9
REMARK    4  A    between atoms: N_10  and  C_11
REMARK    5  A    between atoms: C_15  and  S_16
REMARK    6  A    between atoms: S_16  and  O_19
REMARK    7  A    between atoms: C_24  and  O_25
REMARK                            x       y       z     vdW  Elec       q    Type
REMARK                         _______ _______ _______ _____ _____    ______ ____
ROOT
ATOM      1  N   UNL     1      -0.674  16.394  20.839  0.00  0.00    +0.000 NA
ATOM      2  N   UNL     1      -1.332  15.436  21.308  0.00  0.00    +0.000 NA
ENDROOT
BRANCH   1   6
ATOM      3  C   UNL     1       3.261  16.227  19.329  0.00  0.00    +0.000 A 
ATOM      4  C   UNL     1       2.969  15.682  20.584  0.00  0.00    +0.000 A 
ATOM      5  C   UNL     1       1.680  15.764  21.093  0.00  0.00    +0.000 A 
ATOM      6  C   UNL     1       0.641  16.315  20.332  0.00  0.00    +0.000 A 
ATOM      7  C   UNL     1       0.935  16.889  19.056  0.00  0.00    +0.000 A 
ATOM      8  C   UNL     1      -0.070  17.515  18.279  0.00  0.00    +0.000 A 
ATOM      9  C   UNL     1       0.197  18.084  17.032  0.00  0.00    +0.000 A 
ATOM     10  C   UNL     1       1.485  18.046  16.525  0.00  0.00    +0.000 A 
ATOM     11  C   UNL     1       2.500  17.441  17.265  0.00  0.00    +0.000 A 
ATOM     12  C   UNL     1       2.261  16.850  18.539  0.00  0.00    +0.000 A 
BRANCH   3  14
ATOM     13  O   UNL     1       5.474  17.484  18.718  0.00  0.00    +0.000 OA
ATOM     14  S   UNL     1       4.946  16.140  18.774  0.00  0.00    +0.000 S 
ATOM     15  O   UNL     1       5.001  15.253  17.631  0.00  0.00    +0.000 OA
BRANCH  14  16
ATOM     16  O   UNL     1       5.764  15.401  19.954  0.00  0.00    +0.000 OA
ATOM     17  H   UNL     1       5.777  15.997  20.731  0.00  0.00    +0.000 HD
ENDBRANCH  14  16
ENDBRANCH   3  14
ENDBRANCH   1   6
BRANCH   2  18
ATOM     18  C   UNL     1      -1.014  14.060  21.223  0.00  0.00    +0.000 A 
ATOM     19  C   UNL     1      -0.685  13.259  22.311  0.00  0.00    +0.000 A 
ATOM     20  C   UNL     1      -0.337  11.916  22.144  0.00  0.00    +0.000 A 
ATOM     21  C   UNL     1      -0.176  11.329  20.869  0.00  0.00    +0.000 A 
ATOM     22  C   UNL     1       0.281   9.996  20.667  0.00  0.00    +0.000 A 
ATOM     23  C   UNL     1       0.450   9.457  19.386  0.00  0.00    +0.000 A 
ATOM     24  C   UNL     1       0.158  10.232  18.277  0.00  0.00    +0.000 A 
ATOM     25  C   UNL     1      -0.303  11.539  18.447  0.00  0.00    +0.000 A 
ATOM     26  C   UNL     1      -0.468  12.127  19.730  0.00  0.00    +0.000 A 
ATOM     27  C   UNL     1      -0.896  13.474  19.939  0.00  0.00    +0.000 A 
BRANCH  22  28
ATOM     28  S   UNL     1       0.731   8.971  22.051  0.00  0.00    +0.000 S 
ATOM     29  O   UNL     1       1.782   9.652  22.783  0.00  0.00    +0.000 OA
ATOM     30  O   UNL     1      -0.486   8.521  22.678  0.00  0.00    +0.000 OA
BRANCH  28  31
ATOM     31  O   UNL     1       1.468   7.685  21.413  0.00  0.00    +0.000 OA
ATOM     32  H   UNL     1       1.235   7.661  20.460  0.00  0.00    +0.000 HD
ENDBRANCH  28  31
ENDBRANCH  22  28
BRANCH  27  33
ATOM     33  O   UNL     1      -1.205  14.298  18.873  0.00  0.00    +0.000 OA
ATOM     34  H   UNL     1      -0.831  13.949  18.053  0.00  0.00    +0.000 HD
ENDBRANCH  27  33
ENDBRANCH   2  18
TORSDOF 7
ENDMDL
MODEL 9
REMARK VINA RESULT:      -6.0      3.548      6.274
REMARK  Name = 
REMARK  7 active torsions:
REMARK  status: ('A' for Active; 'I' for Inactive)
REMARK    1  A    between atoms: S_2  and  O_4
REMARK    2  A    between atoms: S_2  and  C_5
REMARK    3  A    between atoms: C_8  and  N_9
REMARK    4  A    between atoms: N_10  and  C_11
REMARK    5  A    between atoms: C_15  and  S_16
REMARK    6  A    between atoms: S_16  and  O_19
REMARK    7  A    between atoms: C_24  and  O_25
REMARK                            x       y       z     vdW  Elec       q    Type
REMARK                         _______ _______ _______ _____ _____    ______ ____
ROOT
ATOM      1  N   UNL     1       0.454  13.618  21.874  0.00  0.00    +0.000 NA
ATOM      2  N   UNL     1      -0.179  14.008  22.882  0.00  0.00    +0.000 NA
ENDROOT
BRANCH   1   6
ATOM      3  C   UNL     1      -1.199  11.322  18.745  0.00  0.00    +0.000 A 
ATOM      4  C   UNL     1      -1.210  12.718  18.670  0.00  0.00    +0.000 A 
ATOM      5  C   UNL     1      -0.694  13.473  19.714  0.00  0.00    +0.000 A 
ATOM      6  C   UNL     1      -0.082  12.856  20.812  0.00  0.00    +0.000 A 
ATOM      7  C   UNL     1      -0.081  11.429  20.905  0.00  0.00    +0.000 A 
ATOM      8  C   UNL     1       0.467  10.762  22.027  0.00  0.00    +0.000 A 
ATOM      9  C   UNL     1       0.474   9.371  22.138  0.00  0.00    +0.000 A 
ATOM     10  C   UNL     1      -0.072   8.601  21.124  0.00  0.00    +0.000 A 
ATOM     11  C   UNL     1      -0.624   9.225  20.006  0.00  0.00    +0.000 A 
ATOM     12  C   UNL     1      -0.647  10.642  19.861  0.00  0.00    +0.000 A 
BRANCH   3  14
ATOM     13  O   UNL     1      -1.019   9.386  16.993  0.00  0.00    +0.000 OA
ATOM     14  S   UNL     1      -1.937  10.426  17.401  0.00  0.00    +0.000 S 
ATOM     15  O   UNL     1      -2.468  11.384  16.455  0.00  0.00    +0.000 OA
BRANCH  14  16
ATOM     16  O   UNL     1      -3.212   9.658  18.026  0.00  0.00    +0.000 OA
ATOM     17  H   UNL     1      -3.900   9.599  17.332  0.00  0.00    +0.000 HD
ENDBRANCH  14  16
ENDBRANCH   3  14
ENDBRANCH   1   6
BRANCH   2  18
ATOM     18  C   UNL     1      -1.581  13.981  23.071  0.00  0.00    +0.000 A 
ATOM     19  C   UNL     1      -2.301  12.860  23.470  0.00  0.00    +0.000 A 
ATOM     20  C   UNL     1      -3.692  12.898  23.592  0.00  0.00    +0.000 A 
ATOM     21  C   UNL     1      -4.456  14.021  23.203  0.00  0.00    +0.000 A 
ATOM     22  C   UNL     1      -5.879  14.049  23.215  0.00  0.00    +0.000 A 
ATOM     23  C   UNL     1      -6.602  15.173  22.798  0.00  0.00    +0.000 A 
ATOM     24  C   UNL     1      -5.922  16.299  22.369  0.00  0.00    +0.000 A 
ATOM     25  C   UNL     1      -4.525  16.303  22.358  0.00  0.00    +0.000 A 
ATOM     26  C   UNL     1      -3.758  15.174  22.754  0.00  0.00    +0.000 A 
ATOM     27  C   UNL     1      -2.330  15.129  22.715  0.00  0.00    +0.000 A 
BRANCH  22  28
ATOM     28  S   UNL     1      -6.811  12.611  23.696  0.00  0.00    +0.000 S 
ATOM     29  O   UNL     1      -7.916  13.056  24.525  0.00  0.00    +0.000 OA
ATOM     30  O   UNL     1      -7.001  11.797  22.522  0.00  0.00    +0.000 OA
BRANCH  28  31
ATOM     31  O   UNL     1      -5.859  11.801  24.716  0.00  0.00    +0.000 OA
ATOM     32  H   UNL     1      -5.209  11.304  24.172  0.00  0.00    +0.000 HD
ENDBRANCH  28  31
ENDBRANCH  22  28
BRANCH  27  33
ATOM     33  O   UNL     1      -1.593  16.221  22.298  0.00  0.00    +0.000 OA
ATOM     34  H   UNL     1      -1.340  16.127  21.370  0.00  0.00    +0.000 HD
ENDBRANCH  27  33
ENDBRANCH   2  18
TORSDOF 7
ENDMDL
