MODEL 1
REMARK VINA RESULT:      -7.9      0.000      0.000
REMARK  Name = 
REMARK  5 active torsions:
REMARK  status: ('A' for Active; 'I' for Inactive)
REMARK    1  A    between atoms: C_2  and  C_3
REMARK    2  A    between atoms: C_3  and  C_4
REMARK    3  A    between atoms: N_11  and  C_12
REMARK    4  A    between atoms: C_12  and  C_13
REMARK    5  A    between atoms: N_15  and  C_16
REMARK                            x       y       z     vdW  Elec       q    Type
REMARK                         _______ _______ _______ _____ _____    ______ ____
ROOT
ATOM      1  C   UNL     1       8.044   7.098  18.425  0.00  0.00    +0.000 C 
ENDROOT
BRANCH   1   4
ATOM      2  O   UNL     1       7.600   4.862  16.665  0.00  0.00    +0.000 OA
ATOM      3  C   UNL     1       6.705   5.675  16.825  0.00  0.00    +0.000 C 
ATOM      4  N   UNL     1       6.860   6.755  17.656  0.00  0.00    +0.000 N 
ATOM      5  H   UNL     1       6.061   7.388  17.734  0.00  0.00    +0.000 HD
BRANCH   3   6
ATOM      6  C   UNL     1       5.341   5.556  16.129  0.00  0.00    +0.000 C 
BRANCH   6   7
ATOM      7  C   UNL     1       4.266   4.943  16.999  0.00  0.00    +0.000 A 
ATOM      8  C   UNL     1       3.376   5.758  17.714  0.00  0.00    +0.000 A 
ATOM      9  C   UNL     1       2.417   5.190  18.557  0.00  0.00    +0.000 A 
ATOM     10  C   UNL     1       2.334   3.805  18.679  0.00  0.00    +0.000 A 
ATOM     11 CL   UNL     1       1.172   3.109  19.742  0.00  0.00    +0.000 Cl
ATOM     12  C   UNL     1       3.194   2.981  17.958  0.00  0.00    +0.000 A 
ATOM     13  C   UNL     1       4.155   3.548  17.116  0.00  0.00    +0.000 A 
ENDBRANCH   6   7
ENDBRANCH   3   6
ENDBRANCH   1   4
BRANCH   1  14
ATOM     14  C   UNL     1       8.261   8.609  18.321  0.00  0.00    +0.000 C 
ATOM     15  O   UNL     1       7.641   9.252  17.468  0.00  0.00    +0.000 OA
ATOM     16  N   UNL     1       9.196   9.151  19.198  0.00  0.00    +0.000 N 
ATOM     17  H   UNL     1       9.818   8.510  19.682  0.00  0.00    +0.000 HD
BRANCH  16  18
ATOM     18  C   UNL     1       9.528  10.529  19.230  0.00  0.00    +0.000 A 
ATOM     19  C   UNL     1      10.067  11.179  18.114  0.00  0.00    +0.000 A 
ATOM     20  C   UNL     1      10.444  12.516  18.176  0.00  0.00    +0.000 A 
ATOM     21 CL   UNL     1      11.093  13.281  16.779  0.00  0.00    +0.000 Cl
ATOM     22  C   UNL     1      10.292  13.233  19.353  0.00  0.00    +0.000 A 
ATOM     23  C   UNL     1       9.740  12.600  20.464  0.00  0.00    +0.000 A 
ATOM     24 CL   UNL     1       9.586  13.474  21.940  0.00  0.00    +0.000 Cl
ATOM     25  C   UNL     1       9.339  11.258  20.407  0.00  0.00    +0.000 A 
ENDBRANCH  16  18
ENDBRANCH   1  14
TORSDOF 5
ENDMDL
MODEL 2
REMARK VINA RESULT:      -7.9      4.955      7.537
REMARK  Name = 
REMARK  5 active torsions:
REMARK  status: ('A' for Active; 'I' for Inactive)
REMARK    1  A    between atoms: C_2  and  C_3
REMARK    2  A    between atoms: C_3  and  C_4
REMARK    3  A    between atoms: N_11  and  C_12
REMARK    4  A    between atoms: C_12  and  C_13
REMARK    5  A    between atoms: N_15  and  C_16
REMARK                            x       y       z     vdW  Elec       q    Type
REMARK                         _______ _______ _______ _____ _____    ______ ____
ROOT
ATOM      1  C   UNL     1       2.828   3.246  20.109  0.00  0.00    +0.000 C 
ENDROOT
BRANCH   1   4
ATOM      2  O   UNL     1       2.231   3.017  17.301  0.00  0.00    +0.000 OA
ATOM      3  C   UNL     1       3.381   3.232  17.645  0.00  0.00    +0.000 C 
ATOM      4  N   UNL     1       3.722   3.356  18.968  0.00  0.00    +0.000 N 
ATOM      5  H   UNL     1       4.707   3.534  19.170  0.00  0.00    +0.000 HD
BRANCH   3   6
ATOM      6  C   UNL     1       4.533   3.391  16.641  0.00  0.00    +0.000 C 
BRANCH   6   7
ATOM      7  C   UNL     1       5.370   4.630  16.867  0.00  0.00    +0.000 A 
ATOM      8  C   UNL     1       6.690   4.526  17.328  0.00  0.00    +0.000 A 
ATOM      9  C   UNL     1       7.443   5.674  17.586  0.00  0.00    +0.000 A 
ATOM     10  C   UNL     1       6.887   6.932  17.370  0.00  0.00    +0.000 A 
ATOM     11 CL   UNL     1       7.806   8.345  17.717  0.00  0.00    +0.000 Cl
ATOM     12  C   UNL     1       5.585   7.054  16.890  0.00  0.00    +0.000 A 
ATOM     13  C   UNL     1       4.830   5.906  16.634  0.00  0.00    +0.000 A 
ENDBRANCH   6   7
ENDBRANCH   3   6
ENDBRANCH   1   4
BRANCH   1  14
ATOM     14  C   UNL     1       1.993   4.527  20.186  0.00  0.00    +0.000 C 
ATOM     15  O   UNL     1       0.765   4.443  20.278  0.00  0.00    +0.000 OA
ATOM     16  N   UNL     1       2.704   5.721  20.105  0.00  0.00    +0.000 N 
ATOM     17  H   UNL     1       3.667   5.679  19.789  0.00  0.00    +0.000 HD
BRANCH  16  18
ATOM     18  C   UNL     1       2.088   6.998  20.149  0.00  0.00    +0.000 A 
ATOM     19  C   UNL     1       1.324   7.406  21.248  0.00  0.00    +0.000 A 
ATOM     20  C   UNL     1       0.675   8.636  21.253  0.00  0.00    +0.000 A 
ATOM     21 CL   UNL     1      -0.247   9.104  22.627  0.00  0.00    +0.000 Cl
ATOM     22  C   UNL     1       0.775   9.485  20.162  0.00  0.00    +0.000 A 
ATOM     23  C   UNL     1       1.548   9.095  19.071  0.00  0.00    +0.000 A 
ATOM     24 CL   UNL     1       1.643  10.129  17.696  0.00  0.00    +0.000 Cl
ATOM     25  C   UNL     1       2.221   7.866  19.062  0.00  0.00    +0.000 A 
ENDBRANCH  16  18
ENDBRANCH   1  14
TORSDOF 5
ENDMDL
MODEL 3
REMARK VINA RESULT:      -7.8      0.243      2.142
REMARK  Name = 
REMARK  5 active torsions:
REMARK  status: ('A' for Active; 'I' for Inactive)
REMARK    1  A    between atoms: C_2  and  C_3
REMARK    2  A    between atoms: C_3  and  C_4
REMARK    3  A    between atoms: N_11  and  C_12
REMARK    4  A    between atoms: C_12  and  C_13
REMARK    5  A    between atoms: N_15  and  C_16
REMARK                            x       y       z     vdW  Elec       q    Type
REMARK                         _______ _______ _______ _____ _____    ______ ____
ROOT
ATOM      1  C   UNL     1       8.081   7.254  18.373  0.00  0.00    +0.000 C 
ENDROOT
BRANCH   1   4
ATOM      2  O   UNL     1       7.558   5.034  16.615  0.00  0.00    +0.000 OA
ATOM      3  C   UNL     1       6.692   5.877  16.775  0.00  0.00    +0.000 C 
ATOM      4  N   UNL     1       6.884   6.952  17.605  0.00  0.00    +0.000 N 
ATOM      5  H   UNL     1       6.109   7.612  17.683  0.00  0.00    +0.000 HD
BRANCH   3   6
ATOM      6  C   UNL     1       5.324   5.806  16.080  0.00  0.00    +0.000 C 
BRANCH   6   7
ATOM      7  C   UNL     1       4.258   5.118  16.904  0.00  0.00    +0.000 A 
ATOM      8  C   UNL     1       4.113   3.723  16.863  0.00  0.00    +0.000 A 
ATOM      9  C   UNL     1       3.095   3.095  17.584  0.00  0.00    +0.000 A 
ATOM     10  C   UNL     1       2.225   3.855  18.362  0.00  0.00    +0.000 A 
ATOM     11 CL   UNL     1       0.953   3.082  19.226  0.00  0.00    +0.000 Cl
ATOM     12  C   UNL     1       2.370   5.238  18.434  0.00  0.00    +0.000 A 
ATOM     13  C   UNL     1       3.387   5.868  17.711  0.00  0.00    +0.000 A 
ENDBRANCH   6   7
ENDBRANCH   3   6
ENDBRANCH   1   4
BRANCH   1  14
ATOM     14  C   UNL     1       8.296   8.769  18.346  0.00  0.00    +0.000 C 
ATOM     15  O   UNL     1       7.643   9.459  17.558  0.00  0.00    +0.000 OA
ATOM     16  N   UNL     1       9.270   9.259  19.211  0.00  0.00    +0.000 N 
ATOM     17  H   UNL     1       9.911   8.592  19.631  0.00  0.00    +0.000 HD
BRANCH  16  18
ATOM     18  C   UNL     1       9.606  10.634  19.307  0.00  0.00    +0.000 A 
ATOM     19  C   UNL     1       9.381  11.364  20.478  0.00  0.00    +0.000 A 
ATOM     20  C   UNL     1       9.658  12.725  20.540  0.00  0.00    +0.000 A 
ATOM     21 CL   UNL     1       9.376  13.584  22.003  0.00  0.00    +0.000 Cl
ATOM     22  C   UNL     1      10.166  13.387  19.433  0.00  0.00    +0.000 A 
ATOM     23  C   UNL     1      10.410  12.665  18.267  0.00  0.00    +0.000 A 
ATOM     24 CL   UNL     1      11.004  13.491  16.876  0.00  0.00    +0.000 Cl
ATOM     25  C   UNL     1      10.152  11.290  18.199  0.00  0.00    +0.000 A 
ENDBRANCH  16  18
ENDBRANCH   1  14
TORSDOF 5
ENDMDL
MODEL 4
REMARK VINA RESULT:      -7.7      0.379      1.912
REMARK  Name = 
REMARK  5 active torsions:
REMARK  status: ('A' for Active; 'I' for Inactive)
REMARK    1  A    between atoms: C_2  and  C_3
REMARK    2  A    between atoms: C_3  and  C_4
REMARK    3  A    between atoms: N_11  and  C_12
REMARK    4  A    between atoms: C_12  and  C_13
REMARK    5  A    between atoms: N_15  and  C_16
REMARK                            x       y       z     vdW  Elec       q    Type
REMARK                         _______ _______ _______ _____ _____    ______ ____
ROOT
ATOM      1  C   UNL     1       8.042   7.168  18.263  0.00  0.00    +0.000 C 
ENDROOT
BRANCH   1   4
ATOM      2  O   UNL     1       7.191   4.749  16.954  0.00  0.00    +0.000 OA
ATOM      3  C   UNL     1       6.445   5.713  16.955  0.00  0.00    +0.000 C 
ATOM      4  N   UNL     1       6.796   6.889  17.568  0.00  0.00    +0.000 N 
ATOM      5  H   UNL     1       6.115   7.649  17.523  0.00  0.00    +0.000 HD
BRANCH   3   6
ATOM      6  C   UNL     1       5.061   5.695  16.289  0.00  0.00    +0.000 C 
BRANCH   6   7
ATOM      7  C   UNL     1       3.963   5.160  17.182  0.00  0.00    +0.000 A 
ATOM      8  C   UNL     1       3.303   6.006  18.085  0.00  0.00    +0.000 A 
ATOM      9  C   UNL     1       2.326   5.498  18.946  0.00  0.00    +0.000 A 
ATOM     10  C   UNL     1       1.993   4.147  18.898  0.00  0.00    +0.000 A 
ATOM     11 CL   UNL     1       0.811   3.518  19.980  0.00  0.00    +0.000 Cl
ATOM     12  C   UNL     1       2.622   3.298  17.991  0.00  0.00    +0.000 A 
ATOM     13  C   UNL     1       3.601   3.804  17.131  0.00  0.00    +0.000 A 
ENDBRANCH   6   7
ENDBRANCH   3   6
ENDBRANCH   1   4
BRANCH   1  14
ATOM     14  C   UNL     1       8.245   8.685  18.290  0.00  0.00    +0.000 C 
ATOM     15  O   UNL     1       7.610   9.394  17.503  0.00  0.00    +0.000 OA
ATOM     16  N   UNL     1       9.187   9.156  19.199  0.00  0.00    +0.000 N 
ATOM     17  H   UNL     1       9.820   8.482  19.618  0.00  0.00    +0.000 HD
BRANCH  16  18
ATOM     18  C   UNL     1       9.508  10.530  19.347  0.00  0.00    +0.000 A 
ATOM     19  C   UNL     1       9.293  11.207  20.553  0.00  0.00    +0.000 A 
ATOM     20  C   UNL     1       9.555  12.567  20.667  0.00  0.00    +0.000 A 
ATOM     21 CL   UNL     1       9.287  13.361  22.169  0.00  0.00    +0.000 Cl
ATOM     22  C   UNL     1      10.035  13.282  19.581  0.00  0.00    +0.000 A 
ATOM     23  C   UNL     1      10.269  12.613  18.382  0.00  0.00    +0.000 A 
ATOM     24 CL   UNL     1      10.829  13.504  17.018  0.00  0.00    +0.000 Cl
ATOM     25  C   UNL     1      10.027  11.239  18.260  0.00  0.00    +0.000 A 
ENDBRANCH  16  18
ENDBRANCH   1  14
TORSDOF 5
ENDMDL
MODEL 5
REMARK VINA RESULT:      -7.6      4.918      7.334
REMARK  Name = 
REMARK  5 active torsions:
REMARK  status: ('A' for Active; 'I' for Inactive)
REMARK    1  A    between atoms: C_2  and  C_3
REMARK    2  A    between atoms: C_3  and  C_4
REMARK    3  A    between atoms: N_11  and  C_12
REMARK    4  A    between atoms: C_12  and  C_13
REMARK    5  A    between atoms: N_15  and  C_16
REMARK                            x       y       z     vdW  Elec       q    Type
REMARK                         _______ _______ _______ _____ _____    ______ ____
ROOT
ATOM      1  C   UNL     1       2.719   3.582  20.478  0.00  0.00    +0.000 C 
ENDROOT
BRANCH   1   4
ATOM      2  O   UNL     1       2.214   3.198  17.669  0.00  0.00    +0.000 OA
ATOM      3  C   UNL     1       3.355   3.413  18.040  0.00  0.00    +0.000 C 
ATOM      4  N   UNL     1       3.653   3.609  19.365  0.00  0.00    +0.000 N 
ATOM      5  H   UNL     1       4.634   3.783  19.591  0.00  0.00    +0.000 HD
BRANCH   3   6
ATOM      6  C   UNL     1       4.543   3.493  17.069  0.00  0.00    +0.000 C 
BRANCH   6   7
ATOM      7  C   UNL     1       5.391   4.733  17.247  0.00  0.00    +0.000 A 
ATOM      8  C   UNL     1       4.897   5.994  16.882  0.00  0.00    +0.000 A 
ATOM      9  C   UNL     1       5.701   7.131  16.998  0.00  0.00    +0.000 A 
ATOM     10  C   UNL     1       6.997   7.016  17.494  0.00  0.00    +0.000 A 
ATOM     11 CL   UNL     1       7.996   8.413  17.607  0.00  0.00    +0.000 Cl
ATOM     12  C   UNL     1       7.495   5.776  17.883  0.00  0.00    +0.000 A 
ATOM     13  C   UNL     1       6.693   4.637  17.765  0.00  0.00    +0.000 A 
ENDBRANCH   6   7
ENDBRANCH   3   6
ENDBRANCH   1   4
BRANCH   1  14
ATOM     14  C   UNL     1       1.829   4.824  20.386  0.00  0.00    +0.000 C 
ATOM     15  O   UNL     1       0.614   4.686  20.217  0.00  0.00    +0.000 OA
ATOM     16  N   UNL     1       2.486   6.049  20.463  0.00  0.00    +0.000 N 
ATOM     17  H   UNL     1       3.496   6.053  20.356  0.00  0.00    +0.000 HD
BRANCH  16  18
ATOM     18  C   UNL     1       1.818   7.298  20.384  0.00  0.00    +0.000 A 
ATOM     19  C   UNL     1       1.941   8.125  19.262  0.00  0.00    +0.000 A 
ATOM     20  C   UNL     1       1.329   9.373  19.222  0.00  0.00    +0.000 A 
ATOM     21 CL   UNL     1       1.497  10.356  17.821  0.00  0.00    +0.000 Cl
ATOM     22  C   UNL     1       0.582   9.823  20.300  0.00  0.00    +0.000 A 
ATOM     23  C   UNL     1       0.439   8.998  21.414  0.00  0.00    +0.000 A 
ATOM     24 CL   UNL     1      -0.455   9.568  22.771  0.00  0.00    +0.000 Cl
ATOM     25  C   UNL     1       1.036   7.731  21.458  0.00  0.00    +0.000 A 
ENDBRANCH  16  18
ENDBRANCH   1  14
TORSDOF 5
ENDMDL
MODEL 6
REMARK VINA RESULT:      -7.6      0.921      1.366
REMARK  Name = 
REMARK  5 active torsions:
REMARK  status: ('A' for Active; 'I' for Inactive)
REMARK    1  A    between atoms: C_2  and  C_3
REMARK    2  A    between atoms: C_3  and  C_4
REMARK    3  A    between atoms: N_11  and  C_12
REMARK    4  A    between atoms: C_12  and  C_13
REMARK    5  A    between atoms: N_15  and  C_16
REMARK                            x       y       z     vdW  Elec       q    Type
REMARK                         _______ _______ _______ _____ _____    ______ ____
ROOT
ATOM      1  C   UNL     1       8.154   7.156  18.473  0.00  0.00    +0.000 C 
ENDROOT
BRANCH   1   4
ATOM      2  O   UNL     1       5.901   5.511  19.190  0.00  0.00    +0.000 OA
ATOM      3  C   UNL     1       5.962   5.971  18.062  0.00  0.00    +0.000 C 
ATOM      4  N   UNL     1       7.009   6.765  17.668  0.00  0.00    +0.000 N 
ATOM      5  H   UNL     1       6.984   7.109  16.707  0.00  0.00    +0.000 HD
BRANCH   3   6
ATOM      6  C   UNL     1       4.882   5.714  17.001  0.00  0.00    +0.000 C 
BRANCH   6   7
ATOM      7  C   UNL     1       3.776   4.795  17.469  0.00  0.00    +0.000 A 
ATOM      8  C   UNL     1       3.886   3.406  17.309  0.00  0.00    +0.000 A 
ATOM      9  C   UNL     1       2.840   2.563  17.694  0.00  0.00    +0.000 A 
ATOM     10  C   UNL     1       1.686   3.102  18.255  0.00  0.00    +0.000 A 
ATOM     11 CL   UNL     1       0.387   2.064  18.701  0.00  0.00    +0.000 Cl
ATOM     12  C   UNL     1       1.569   4.476  18.444  0.00  0.00    +0.000 A 
ATOM     13  C   UNL     1       2.614   5.321  18.057  0.00  0.00    +0.000 A 
ENDBRANCH   6   7
ENDBRANCH   3   6
ENDBRANCH   1   4
BRANCH   1  14
ATOM     14  C   UNL     1       8.291   8.679  18.400  0.00  0.00    +0.000 C 
ATOM     15  O   UNL     1       7.598   9.311  17.597  0.00  0.00    +0.000 OA
ATOM     16  N   UNL     1       9.244   9.244  19.243  0.00  0.00    +0.000 N 
ATOM     17  H   UNL     1       9.920   8.624  19.677  0.00  0.00    +0.000 HD
BRANCH  16  18
ATOM     18  C   UNL     1       9.510  10.636  19.296  0.00  0.00    +0.000 A 
ATOM     19  C   UNL     1      10.014  11.328  18.189  0.00  0.00    +0.000 A 
ATOM     20  C   UNL     1      10.327  12.681  18.271  0.00  0.00    +0.000 A 
ATOM     21 CL   UNL     1      10.935  13.497  16.885  0.00  0.00    +0.000 Cl
ATOM     22  C   UNL     1      10.145  13.371  19.459  0.00  0.00    +0.000 A 
ATOM     23  C   UNL     1       9.627  12.695  20.562  0.00  0.00    +0.000 A 
ATOM     24 CL   UNL     1       9.436  13.538  22.051  0.00  0.00    +0.000 Cl
ATOM     25  C   UNL     1       9.291  11.337  20.485  0.00  0.00    +0.000 A 
ENDBRANCH  16  18
ENDBRANCH   1  14
TORSDOF 5
ENDMDL
MODEL 7
REMARK VINA RESULT:      -7.5      4.753      7.474
REMARK  Name = 
REMARK  5 active torsions:
REMARK  status: ('A' for Active; 'I' for Inactive)
REMARK    1  A    between atoms: C_2  and  C_3
REMARK    2  A    between atoms: C_3  and  C_4
REMARK    3  A    between atoms: N_11  and  C_12
REMARK    4  A    between atoms: C_12  and  C_13
REMARK    5  A    between atoms: N_15  and  C_16
REMARK                            x       y       z     vdW  Elec       q    Type
REMARK                         _______ _______ _______ _____ _____    ______ ____
ROOT
ATOM      1  C   UNL     1       2.863   3.143  20.222  0.00  0.00    +0.000 C 
ENDROOT
BRANCH   1   4
ATOM      2  O   UNL     1       2.510   3.328  17.370  0.00  0.00    +0.000 OA
ATOM      3  C   UNL     1       3.638   3.382  17.830  0.00  0.00    +0.000 C 
ATOM      4  N   UNL     1       3.864   3.305  19.181  0.00  0.00    +0.000 N 
ATOM      5  H   UNL     1       4.838   3.357  19.484  0.00  0.00    +0.000 HD
BRANCH   3   6
ATOM      6  C   UNL     1       4.887   3.549  16.953  0.00  0.00    +0.000 C 
BRANCH   6   7
ATOM      7  C   UNL     1       5.658   4.821  17.227  0.00  0.00    +0.000 A 
ATOM      8  C   UNL     1       5.237   6.042  16.681  0.00  0.00    +0.000 A 
ATOM      9  C   UNL     1       5.980   7.207  16.892  0.00  0.00    +0.000 A 
ATOM     10  C   UNL     1       7.138   7.160  17.663  0.00  0.00    +0.000 A 
ATOM     11 CL   UNL     1       8.068   8.590  17.898  0.00  0.00    +0.000 Cl
ATOM     12  C   UNL     1       7.558   5.961  18.233  0.00  0.00    +0.000 A 
ATOM     13  C   UNL     1       6.817   4.795  18.020  0.00  0.00    +0.000 A 
ENDBRANCH   6   7
ENDBRANCH   3   6
ENDBRANCH   1   4
BRANCH   1  14
ATOM     14  C   UNL     1       2.068   4.447  20.326  0.00  0.00    +0.000 C 
ATOM     15  O   UNL     1       0.849   4.399  20.517  0.00  0.00    +0.000 OA
ATOM     16  N   UNL     1       2.799   5.619  20.155  0.00  0.00    +0.000 N 
ATOM     17  H   UNL     1       3.733   5.543  19.765  0.00  0.00    +0.000 HD
BRANCH  16  18
ATOM     18  C   UNL     1       2.220   6.913  20.209  0.00  0.00    +0.000 A 
ATOM     19  C   UNL     1       1.637   7.406  21.381  0.00  0.00    +0.000 A 
ATOM     20  C   UNL     1       1.019   8.652  21.404  0.00  0.00    +0.000 A 
ATOM     21 CL   UNL     1       0.322   9.226  22.868  0.00  0.00    +0.000 Cl
ATOM     22  C   UNL     1       0.969   9.431  20.259  0.00  0.00    +0.000 A 
ATOM     23  C   UNL     1       1.563   8.956  19.092  0.00  0.00    +0.000 A 
ATOM     24 CL   UNL     1       1.469   9.903  17.656  0.00  0.00    +0.000 Cl
ATOM     25  C   UNL     1       2.204   7.711  19.061  0.00  0.00    +0.000 A 
ENDBRANCH  16  18
ENDBRANCH   1  14
TORSDOF 5
ENDMDL
MODEL 8
REMARK VINA RESULT:      -7.3      1.396      1.659
REMARK  Name = 
REMARK  5 active torsions:
REMARK  status: ('A' for Active; 'I' for Inactive)
REMARK    1  A    between atoms: C_2  and  C_3
REMARK    2  A    between atoms: C_3  and  C_4
REMARK    3  A    between atoms: N_11  and  C_12
REMARK    4  A    between atoms: C_12  and  C_13
REMARK    5  A    between atoms: N_15  and  C_16
REMARK                            x       y       z     vdW  Elec       q    Type
REMARK                         _______ _______ _______ _____ _____    ______ ____
ROOT
ATOM      1  C   UNL     1       8.103   7.305  18.276  0.00  0.00    +0.000 C 
ENDROOT
BRANCH   1   4
ATOM      2  O   UNL     1       7.306   5.192  16.489  0.00  0.00    +0.000 OA
ATOM      3  C   UNL     1       6.465   5.984  16.879  0.00  0.00    +0.000 C 
ATOM      4  N   UNL     1       6.787   7.006  17.736  0.00  0.00    +0.000 N 
ATOM      5  H   UNL     1       6.024   7.626  18.014  0.00  0.00    +0.000 HD
BRANCH   3   6
ATOM      6  C   UNL     1       4.989   5.902  16.462  0.00  0.00    +0.000 C 
BRANCH   6   7
ATOM      7  C   UNL     1       4.024   6.284  17.563  0.00  0.00    +0.000 A 
ATOM      8  C   UNL     1       3.314   7.491  17.502  0.00  0.00    +0.000 A 
ATOM      9  C   UNL     1       2.463   7.866  18.545  0.00  0.00    +0.000 A 
ATOM     10  C   UNL     1       2.305   7.029  19.647  0.00  0.00    +0.000 A 
ATOM     11 CL   UNL     1       1.280   7.506  20.944  0.00  0.00    +0.000 Cl
ATOM     12  C   UNL     1       2.985   5.815  19.712  0.00  0.00    +0.000 A 
ATOM     13  C   UNL     1       3.838   5.440  18.671  0.00  0.00    +0.000 A 
ENDBRANCH   6   7
ENDBRANCH   3   6
ENDBRANCH   1   4
BRANCH   1  14
ATOM     14  C   UNL     1       8.290   8.824  18.263  0.00  0.00    +0.000 C 
ATOM     15  O   UNL     1       7.623   9.510  17.482  0.00  0.00    +0.000 OA
ATOM     16  N   UNL     1       9.256   9.324  19.132  0.00  0.00    +0.000 N 
ATOM     17  H   UNL     1       9.909   8.666  19.544  0.00  0.00    +0.000 HD
BRANCH  16  18
ATOM     18  C   UNL     1       9.567  10.704  19.240  0.00  0.00    +0.000 A 
ATOM     19  C   UNL     1      10.165  11.405  18.187  0.00  0.00    +0.000 A 
ATOM     20  C   UNL     1      10.519  12.743  18.327  0.00  0.00    +0.000 A 
ATOM     21 CL   UNL     1      11.243  13.572  17.005  0.00  0.00    +0.000 Cl
ATOM     22  C   UNL     1      10.286  13.408  19.520  0.00  0.00    +0.000 A 
ATOM     23  C   UNL     1       9.675  12.723  20.568  0.00  0.00    +0.000 A 
ATOM     24 CL   UNL     1       9.420  13.535  22.066  0.00  0.00    +0.000 Cl
ATOM     25  C   UNL     1       9.297  11.381  20.432  0.00  0.00    +0.000 A 
ENDBRANCH  16  18
ENDBRANCH   1  14
TORSDOF 5
ENDMDL
MODEL 9
REMARK VINA RESULT:      -7.3      1.883      9.626
REMARK  Name = 
REMARK  5 active torsions:
REMARK  status: ('A' for Active; 'I' for Inactive)
REMARK    1  A    between atoms: C_2  and  C_3
REMARK    2  A    between atoms: C_3  and  C_4
REMARK    3  A    between atoms: N_11  and  C_12
REMARK    4  A    between atoms: C_12  and  C_13
REMARK    5  A    between atoms: N_15  and  C_16
REMARK                            x       y       z     vdW  Elec       q    Type
REMARK                         _______ _______ _______ _____ _____    ______ ____
ROOT
ATOM      1  C   UNL     1       7.675   7.245  17.442  0.00  0.00    +0.000 C 
ENDROOT
BRANCH   1   4
ATOM      2  O   UNL     1       7.860  10.119  17.456  0.00  0.00    +0.000 OA
ATOM      3  C   UNL     1       8.463   9.484  18.305  0.00  0.00    +0.000 C 
ATOM      4  N   UNL     1       8.406   8.114  18.349  0.00  0.00    +0.000 N 
ATOM      5  H   UNL     1       8.940   7.659  19.091  0.00  0.00    +0.000 HD
BRANCH   3   6
ATOM      6  C   UNL     1       9.319  10.152  19.391  0.00  0.00    +0.000 C 
BRANCH   6   7
ATOM      7  C   UNL     1       9.971  11.441  18.943  0.00  0.00    +0.000 A 
ATOM      8  C   UNL     1      11.292  11.447  18.472  0.00  0.00    +0.000 A 
ATOM      9  C   UNL     1      11.910  12.646  18.109  0.00  0.00    +0.000 A 
ATOM     10  C   UNL     1      11.207  13.844  18.199  0.00  0.00    +0.000 A 
ATOM     11 CL   UNL     1      11.980  15.324  17.780  0.00  0.00    +0.000 Cl
ATOM     12  C   UNL     1       9.887  13.855  18.642  0.00  0.00    +0.000 A 
ATOM     13  C   UNL     1       9.268  12.656  19.008  0.00  0.00    +0.000 A 
ENDBRANCH   6   7
ENDBRANCH   3   6
ENDBRANCH   1   4
BRANCH   1  14
ATOM     14  C   UNL     1       6.801   6.308  18.279  0.00  0.00    +0.000 C 
ATOM     15  O   UNL     1       7.249   5.843  19.332  0.00  0.00    +0.000 OA
ATOM     16  N   UNL     1       5.547   6.014  17.752  0.00  0.00    +0.000 N 
ATOM     17  H   UNL     1       5.376   6.247  16.779  0.00  0.00    +0.000 HD
BRANCH  16  18
ATOM     18  C   UNL     1       4.615   5.155  18.390  0.00  0.00    +0.000 A 
ATOM     19  C   UNL     1       4.602   3.778  18.145  0.00  0.00    +0.000 A 
ATOM     20  C   UNL     1       3.645   2.955  18.730  0.00  0.00    +0.000 A 
ATOM     21 CL   UNL     1       3.669   1.265  18.412  0.00  0.00    +0.000 Cl
ATOM     22  C   UNL     1       2.681   3.490  19.571  0.00  0.00    +0.000 A 
ATOM     23  C   UNL     1       2.698   4.858  19.835  0.00  0.00    +0.000 A 
ATOM     24 CL   UNL     1       1.479   5.533  20.847  0.00  0.00    +0.000 Cl
ATOM     25  C   UNL     1       3.668   5.693  19.265  0.00  0.00    +0.000 A 
ENDBRANCH  16  18
ENDBRANCH   1  14
TORSDOF 5
ENDMDL
