MODEL 1
REMARK VINA RESULT:      -7.7      0.000      0.000
REMARK  Name = 
REMARK  9 active torsions:
REMARK  status: ('A' for Active; 'I' for Inactive)
REMARK    1  A    between atoms: C_1  and  C_2
REMARK    2  A    between atoms: C_7  and  C_8
REMARK    3  A    between atoms: N_10  and  C_11
REMARK    4  A    between atoms: C_11  and  C_12
REMARK    5  A    between atoms: C_12  and  C_13
REMARK    6  A    between atoms: C_13  and  C_14
REMARK    7  A    between atoms: C_14  and  C_15
REMARK    8  A    between atoms: C_15  and  N_16
REMARK    9  A    between atoms: C_20  and  O_21
REMARK                            x       y       z     vdW  Elec       q    Type
REMARK                         _______ _______ _______ _____ _____    ______ ____
ROOT
ATOM      1  C   UNL     1       6.613   7.427  17.177  0.00  0.00    +0.000 C 
ENDROOT
BRANCH   1   4
ATOM      2  C   UNL     1       4.487   4.874  18.510  0.00  0.00    +0.000 A 
ATOM      3  C   UNL     1       4.639   5.926  17.634  0.00  0.00    +0.000 A 
ATOM      4  N   UNL     1       5.919   6.338  17.835  0.00  0.00    +0.000 N 
ATOM      5  N   UNL     1       6.524   5.627  18.799  0.00  0.00    +0.000 NA
ATOM      6  N   UNL     1       5.654   4.715  19.215  0.00  0.00    +0.000 NA
BRANCH   2  13
ATOM      7  C   UNL     1       2.138   5.738  20.182  0.00  0.00    +0.000 C 
ATOM      8  C   UNL     1       2.194   4.427  19.446  0.00  0.00    +0.000 A 
ATOM      9  C   UNL     1       1.094   3.554  19.556  0.00  0.00    +0.000 A 
ATOM     10  C   UNL     1       1.076   2.328  18.891  0.00  0.00    +0.000 A 
ATOM     11  C   UNL     1       2.157   1.951  18.106  0.00  0.00    +0.000 A 
ATOM     12  C   UNL     1       3.259   2.800  17.991  0.00  0.00    +0.000 A 
ATOM     13  C   UNL     1       3.300   4.043  18.655  0.00  0.00    +0.000 A 
ENDBRANCH   2  13
ENDBRANCH   1   4
BRANCH   1  14
ATOM     14  C   UNL     1       7.876   7.793  17.944  0.00  0.00    +0.000 C 
BRANCH  14  15
ATOM     15  C   UNL     1       8.203   9.284  17.883  0.00  0.00    +0.000 C 
BRANCH  15  16
ATOM     16  C   UNL     1       9.182   9.709  18.987  0.00  0.00    +0.000 C 
BRANCH  16  17
ATOM     17  C   UNL     1       9.067  11.189  19.371  0.00  0.00    +0.000 C 
BRANCH  17  18
ATOM     18  N   UNL     1       9.900  12.065  18.523  0.00  0.00    +0.000 N 
ATOM     19  C   UNL     1      11.196  11.634  18.282  0.00  0.00    +0.000 A 
ATOM     20  C   UNL     1      12.072  12.370  17.593  0.00  0.00    +0.000 A 
ATOM     21  C   UNL     1      11.711  13.687  17.147  0.00  0.00    +0.000 A 
ATOM     22  C   UNL     1      10.466  14.161  17.319  0.00  0.00    +0.000 A 
ATOM     23  C   UNL     1       9.406  13.273  17.960  0.00  0.00    +0.000 A 
ATOM     24  S   UNL     1       7.771  13.726  17.977  0.00  0.00    +0.000 S 
BRANCH  22  25
ATOM     25  O   UNL     1      10.128  15.452  16.948  0.00  0.00    +0.000 OA
ATOM     26  H   UNL     1      10.759  16.069  17.350  0.00  0.00    +0.000 HD
ENDBRANCH  22  25
ENDBRANCH  17  18
ENDBRANCH  16  17
ENDBRANCH  15  16
ENDBRANCH  14  15
ENDBRANCH   1  14
TORSDOF 8
ENDMDL
MODEL 2
REMARK VINA RESULT:      -7.6      1.161      1.902
REMARK  Name = 
REMARK  9 active torsions:
REMARK  status: ('A' for Active; 'I' for Inactive)
REMARK    1  A    between atoms: C_1  and  C_2
REMARK    2  A    between atoms: C_7  and  C_8
REMARK    3  A    between atoms: N_10  and  C_11
REMARK    4  A    between atoms: C_11  and  C_12
REMARK    5  A    between atoms: C_12  and  C_13
REMARK    6  A    between atoms: C_13  and  C_14
REMARK    7  A    between atoms: C_14  and  C_15
REMARK    8  A    between atoms: C_15  and  N_16
REMARK    9  A    between atoms: C_20  and  O_21
REMARK                            x       y       z     vdW  Elec       q    Type
REMARK                         _______ _______ _______ _____ _____    ______ ____
ROOT
ATOM      1  C   UNL     1       7.596   6.501  18.223  0.00  0.00    +0.000 C 
ENDROOT
BRANCH   1   4
ATOM      2  C   UNL     1       4.274   5.200  18.509  0.00  0.00    +0.000 A 
ATOM      3  C   UNL     1       5.549   5.270  19.027  0.00  0.00    +0.000 A 
ATOM      4  N   UNL     1       6.210   6.086  18.164  0.00  0.00    +0.000 N 
ATOM      5  N   UNL     1       5.424   6.473  17.147  0.00  0.00    +0.000 NA
ATOM      6  N   UNL     1       4.226   5.942  17.355  0.00  0.00    +0.000 NA
BRANCH   2  13
ATOM      7  C   UNL     1       3.694   2.326  17.828  0.00  0.00    +0.000 C 
ATOM      8  C   UNL     1       2.854   3.140  18.775  0.00  0.00    +0.000 A 
ATOM      9  C   UNL     1       1.731   2.526  19.363  0.00  0.00    +0.000 A 
ATOM     10  C   UNL     1       0.915   3.219  20.258  0.00  0.00    +0.000 A 
ATOM     11  C   UNL     1       1.206   4.538  20.579  0.00  0.00    +0.000 A 
ATOM     12  C   UNL     1       2.311   5.165  20.001  0.00  0.00    +0.000 A 
ATOM     13  C   UNL     1       3.148   4.484  19.093  0.00  0.00    +0.000 A 
ENDBRANCH   2  13
ENDBRANCH   1   4
BRANCH   1  14
ATOM     14  C   UNL     1       7.739   7.946  17.767  0.00  0.00    +0.000 C 
BRANCH  14  15
ATOM     15  C   UNL     1       8.695   8.758  18.639  0.00  0.00    +0.000 C 
BRANCH  15  16
ATOM     16  C   UNL     1       8.715  10.243  18.250  0.00  0.00    +0.000 C 
BRANCH  16  17
ATOM     17  C   UNL     1       9.441  11.133  19.267  0.00  0.00    +0.000 C 
BRANCH  17  18
ATOM     18  N   UNL     1      10.058  12.322  18.646  0.00  0.00    +0.000 N 
ATOM     19  C   UNL     1      10.822  12.096  17.511  0.00  0.00    +0.000 A 
ATOM     20  C   UNL     1      11.491  13.075  16.899  0.00  0.00    +0.000 A 
ATOM     21  C   UNL     1      11.504  14.397  17.461  0.00  0.00    +0.000 A 
ATOM     22  C   UNL     1      10.767  14.699  18.542  0.00  0.00    +0.000 A 
ATOM     23  C   UNL     1       9.869  13.633  19.160  0.00  0.00    +0.000 A 
ATOM     24  S   UNL     1       8.740  14.025  20.364  0.00  0.00    +0.000 S 
BRANCH  22  25
ATOM     25  O   UNL     1      10.822  15.954  19.126  0.00  0.00    +0.000 OA
ATOM     26  H   UNL     1      11.730  16.121  19.424  0.00  0.00    +0.000 HD
ENDBRANCH  22  25
ENDBRANCH  17  18
ENDBRANCH  16  17
ENDBRANCH  15  16
ENDBRANCH  14  15
ENDBRANCH   1  14
TORSDOF 8
ENDMDL
MODEL 3
REMARK VINA RESULT:      -7.6      1.074      1.268
REMARK  Name = 
REMARK  9 active torsions:
REMARK  status: ('A' for Active; 'I' for Inactive)
REMARK    1  A    between atoms: C_1  and  C_2
REMARK    2  A    between atoms: C_7  and  C_8
REMARK    3  A    between atoms: N_10  and  C_11
REMARK    4  A    between atoms: C_11  and  C_12
REMARK    5  A    between atoms: C_12  and  C_13
REMARK    6  A    between atoms: C_13  and  C_14
REMARK    7  A    between atoms: C_14  and  C_15
REMARK    8  A    between atoms: C_15  and  N_16
REMARK    9  A    between atoms: C_20  and  O_21
REMARK                            x       y       z     vdW  Elec       q    Type
REMARK                         _______ _______ _______ _____ _____    ______ ____
ROOT
ATOM      1  C   UNL     1       7.904   7.295  18.230  0.00  0.00    +0.000 C 
ENDROOT
BRANCH   1   4
ATOM      2  C   UNL     1       5.015   5.333  17.444  0.00  0.00    +0.000 A 
ATOM      3  C   UNL     1       5.886   5.795  18.407  0.00  0.00    +0.000 A 
ATOM      4  N   UNL     1       6.765   6.565  17.712  0.00  0.00    +0.000 N 
ATOM      5  N   UNL     1       6.498   6.559  16.397  0.00  0.00    +0.000 NA
ATOM      6  N   UNL     1       5.416   5.811  16.222  0.00  0.00    +0.000 NA
BRANCH   2  13
ATOM      7  C   UNL     1       2.365   6.503  18.262  0.00  0.00    +0.000 C 
ATOM      8  C   UNL     1       2.597   5.028  18.073  0.00  0.00    +0.000 A 
ATOM      9  C   UNL     1       1.521   4.150  18.304  0.00  0.00    +0.000 A 
ATOM     10  C   UNL     1       1.664   2.773  18.137  0.00  0.00    +0.000 A 
ATOM     11  C   UNL     1       2.886   2.248  17.739  0.00  0.00    +0.000 A 
ATOM     12  C   UNL     1       3.966   3.103  17.513  0.00  0.00    +0.000 A 
ATOM     13  C   UNL     1       3.845   4.498  17.676  0.00  0.00    +0.000 A 
ENDBRANCH   2  13
ENDBRANCH   1   4
BRANCH   1  14
ATOM     14  C   UNL     1       8.184   8.521  17.372  0.00  0.00    +0.000 C 
BRANCH  14  15
ATOM     15  C   UNL     1       8.083   9.833  18.149  0.00  0.00    +0.000 C 
BRANCH  15  16
ATOM     16  C   UNL     1       9.288  10.053  19.074  0.00  0.00    +0.000 C 
BRANCH  16  17
ATOM     17  C   UNL     1       9.421  11.497  19.572  0.00  0.00    +0.000 C 
BRANCH  17  18
ATOM     18  N   UNL     1      10.106  12.375  18.602  0.00  0.00    +0.000 N 
ATOM     19  C   UNL     1      11.344  11.942  18.150  0.00  0.00    +0.000 A 
ATOM     20  C   UNL     1      12.097  12.678  17.330  0.00  0.00    +0.000 A 
ATOM     21  C   UNL     1      11.673  13.998  16.954  0.00  0.00    +0.000 A 
ATOM     22  C   UNL     1      10.475  14.474  17.329  0.00  0.00    +0.000 A 
ATOM     23  C   UNL     1       9.531  13.586  18.132  0.00  0.00    +0.000 A 
ATOM     24  S   UNL     1       7.923  14.044  18.419  0.00  0.00    +0.000 S 
BRANCH  22  25
ATOM     25  O   UNL     1      10.084  15.768  17.023  0.00  0.00    +0.000 OA
ATOM     26  H   UNL     1      10.037  16.283  17.844  0.00  0.00    +0.000 HD
ENDBRANCH  22  25
ENDBRANCH  17  18
ENDBRANCH  16  17
ENDBRANCH  15  16
ENDBRANCH  14  15
ENDBRANCH   1  14
TORSDOF 8
ENDMDL
MODEL 4
REMARK VINA RESULT:      -7.6      1.668      1.844
REMARK  Name = 
REMARK  9 active torsions:
REMARK  status: ('A' for Active; 'I' for Inactive)
REMARK    1  A    between atoms: C_1  and  C_2
REMARK    2  A    between atoms: C_7  and  C_8
REMARK    3  A    between atoms: N_10  and  C_11
REMARK    4  A    between atoms: C_11  and  C_12
REMARK    5  A    between atoms: C_12  and  C_13
REMARK    6  A    between atoms: C_13  and  C_14
REMARK    7  A    between atoms: C_14  and  C_15
REMARK    8  A    between atoms: C_15  and  N_16
REMARK    9  A    between atoms: C_20  and  O_21
REMARK                            x       y       z     vdW  Elec       q    Type
REMARK                         _______ _______ _______ _____ _____    ______ ____
ROOT
ATOM      1  C   UNL     1       7.275   6.056  17.138  0.00  0.00    +0.000 C 
ENDROOT
BRANCH   1   4
ATOM      2  C   UNL     1       4.160   4.599  18.133  0.00  0.00    +0.000 A 
ATOM      3  C   UNL     1       5.343   5.198  18.511  0.00  0.00    +0.000 A 
ATOM      4  N   UNL     1       5.978   5.441  17.334  0.00  0.00    +0.000 N 
ATOM      5  N   UNL     1       5.271   4.991  16.286  0.00  0.00    +0.000 NA
ATOM      6  N   UNL     1       4.145   4.479  16.765  0.00  0.00    +0.000 NA
BRANCH   2  13
ATOM      7  C   UNL     1       2.392   6.593  19.531  0.00  0.00    +0.000 C 
ATOM      8  C   UNL     1       2.256   5.103  19.699  0.00  0.00    +0.000 A 
ATOM      9  C   UNL     1       1.257   4.620  20.566  0.00  0.00    +0.000 A 
ATOM     10  C   UNL     1       1.070   3.251  20.759  0.00  0.00    +0.000 A 
ATOM     11  C   UNL     1       1.879   2.341  20.091  0.00  0.00    +0.000 A 
ATOM     12  C   UNL     1       2.879   2.803  19.234  0.00  0.00    +0.000 A 
ATOM     13  C   UNL     1       3.087   4.181  19.024  0.00  0.00    +0.000 A 
ENDBRANCH   2  13
ENDBRANCH   1   4
BRANCH   1  14
ATOM     14  C   UNL     1       7.199   7.553  17.402  0.00  0.00    +0.000 C 
BRANCH  14  15
ATOM     15  C   UNL     1       8.310   8.057  18.322  0.00  0.00    +0.000 C 
BRANCH  15  16
ATOM     16  C   UNL     1       8.482   9.581  18.243  0.00  0.00    +0.000 C 
BRANCH  16  17
ATOM     17  C   UNL     1       9.298  10.166  19.401  0.00  0.00    +0.000 C 
BRANCH  17  18
ATOM     18  N   UNL     1       9.953  11.441  19.050  0.00  0.00    +0.000 N 
ATOM     19  C   UNL     1      10.451  11.541  17.759  0.00  0.00    +0.000 A 
ATOM     20  C   UNL     1      11.129  12.613  17.341  0.00  0.00    +0.000 A 
ATOM     21  C   UNL     1      11.438  13.673  18.260  0.00  0.00    +0.000 A 
ATOM     22  C   UNL     1      10.967  13.659  19.517  0.00  0.00    +0.000 A 
ATOM     23  C   UNL     1      10.055  12.522  19.966  0.00  0.00    +0.000 A 
ATOM     24  S   UNL     1       9.240  12.584  21.453  0.00  0.00    +0.000 S 
BRANCH  22  25
ATOM     25  O   UNL     1      11.311  14.645  20.428  0.00  0.00    +0.000 OA
ATOM     26  H   UNL     1      12.221  14.930  20.252  0.00  0.00    +0.000 HD
ENDBRANCH  22  25
ENDBRANCH  17  18
ENDBRANCH  16  17
ENDBRANCH  15  16
ENDBRANCH  14  15
ENDBRANCH   1  14
TORSDOF 8
ENDMDL
MODEL 5
REMARK VINA RESULT:      -7.5      1.650      2.042
REMARK  Name = 
REMARK  9 active torsions:
REMARK  status: ('A' for Active; 'I' for Inactive)
REMARK    1  A    between atoms: C_1  and  C_2
REMARK    2  A    between atoms: C_7  and  C_8
REMARK    3  A    between atoms: N_10  and  C_11
REMARK    4  A    between atoms: C_11  and  C_12
REMARK    5  A    between atoms: C_12  and  C_13
REMARK    6  A    between atoms: C_13  and  C_14
REMARK    7  A    between atoms: C_14  and  C_15
REMARK    8  A    between atoms: C_15  and  N_16
REMARK    9  A    between atoms: C_20  and  O_21
REMARK                            x       y       z     vdW  Elec       q    Type
REMARK                         _______ _______ _______ _____ _____    ______ ____
ROOT
ATOM      1  C   UNL     1       7.345   6.751  17.196  0.00  0.00    +0.000 C 
ENDROOT
BRANCH   1   4
ATOM      2  C   UNL     1       4.789   4.622  18.517  0.00  0.00    +0.000 A 
ATOM      3  C   UNL     1       5.138   5.611  17.623  0.00  0.00    +0.000 A 
ATOM      4  N   UNL     1       6.463   5.811  17.855  0.00  0.00    +0.000 N 
ATOM      5  N   UNL     1       6.914   5.036  18.853  0.00  0.00    +0.000 NA
ATOM      6  N   UNL     1       5.894   4.292  19.262  0.00  0.00    +0.000 NA
BRANCH   2  13
ATOM      7  C   UNL     1       2.553   5.937  20.045  0.00  0.00    +0.000 C 
ATOM      8  C   UNL     1       2.420   4.600  19.367  0.00  0.00    +0.000 A 
ATOM      9  C   UNL     1       1.189   3.924  19.463  0.00  0.00    +0.000 A 
ATOM     10  C   UNL     1       0.993   2.687  18.849  0.00  0.00    +0.000 A 
ATOM     11  C   UNL     1       2.027   2.101  18.130  0.00  0.00    +0.000 A 
ATOM     12  C   UNL     1       3.257   2.753  18.030  0.00  0.00    +0.000 A 
ATOM     13  C   UNL     1       3.476   4.003  18.642  0.00  0.00    +0.000 A 
ENDBRANCH   2  13
ENDBRANCH   1   4
BRANCH   1  14
ATOM     14  C   UNL     1       8.058   7.621  18.222  0.00  0.00    +0.000 C 
BRANCH  14  15
ATOM     15  C   UNL     1       8.108   9.096  17.827  0.00  0.00    +0.000 C 
BRANCH  15  16
ATOM     16  C   UNL     1       8.962   9.927  18.794  0.00  0.00    +0.000 C 
BRANCH  16  17
ATOM     17  C   UNL     1       9.643  11.130  18.131  0.00  0.00    +0.000 C 
BRANCH  17  18
ATOM     18  N   UNL     1       8.940  12.401  18.396  0.00  0.00    +0.000 N 
ATOM     19  C   UNL     1       7.987  12.783  17.464  0.00  0.00    +0.000 A 
ATOM     20  C   UNL     1       7.335  13.944  17.550  0.00  0.00    +0.000 A 
ATOM     21  C   UNL     1       7.670  14.883  18.585  0.00  0.00    +0.000 A 
ATOM     22  C   UNL     1       8.562  14.573  19.539  0.00  0.00    +0.000 A 
ATOM     23  C   UNL     1       9.199  13.188  19.551  0.00  0.00    +0.000 A 
ATOM     24  S   UNL     1      10.137  12.663  20.864  0.00  0.00    +0.000 S 
BRANCH  22  25
ATOM     25  O   UNL     1       8.937  15.495  20.503  0.00  0.00    +0.000 OA
ATOM     26  H   UNL     1       9.896  15.431  20.641  0.00  0.00    +0.000 HD
ENDBRANCH  22  25
ENDBRANCH  17  18
ENDBRANCH  16  17
ENDBRANCH  15  16
ENDBRANCH  14  15
ENDBRANCH   1  14
TORSDOF 8
ENDMDL
MODEL 6
REMARK VINA RESULT:      -7.5      1.576      2.166
REMARK  Name = 
REMARK  9 active torsions:
REMARK  status: ('A' for Active; 'I' for Inactive)
REMARK    1  A    between atoms: C_1  and  C_2
REMARK    2  A    between atoms: C_7  and  C_8
REMARK    3  A    between atoms: N_10  and  C_11
REMARK    4  A    between atoms: C_11  and  C_12
REMARK    5  A    between atoms: C_12  and  C_13
REMARK    6  A    between atoms: C_13  and  C_14
REMARK    7  A    between atoms: C_14  and  C_15
REMARK    8  A    between atoms: C_15  and  N_16
REMARK    9  A    between atoms: C_20  and  O_21
REMARK                            x       y       z     vdW  Elec       q    Type
REMARK                         _______ _______ _______ _____ _____    ______ ____
ROOT
ATOM      1  C   UNL     1       6.879   6.326  16.868  0.00  0.00    +0.000 C 
ENDROOT
BRANCH   1   4
ATOM      2  C   UNL     1       4.532   4.489  18.850  0.00  0.00    +0.000 A 
ATOM      3  C   UNL     1       4.744   5.407  17.844  0.00  0.00    +0.000 A 
ATOM      4  N   UNL     1       6.099   5.496  17.762  0.00  0.00    +0.000 N 
ATOM      5  N   UNL     1       6.703   4.723  18.678  0.00  0.00    +0.000 NA
ATOM      6  N   UNL     1       5.748   4.091  19.348  0.00  0.00    +0.000 NA
BRANCH   2  13
ATOM      7  C   UNL     1       3.492   1.783  18.039  0.00  0.00    +0.000 C 
ATOM      8  C   UNL     1       2.728   2.735  18.921  0.00  0.00    +0.000 A 
ATOM      9  C   UNL     1       1.456   2.343  19.379  0.00  0.00    +0.000 A 
ATOM     10  C   UNL     1       0.700   3.172  20.208  0.00  0.00    +0.000 A 
ATOM     11  C   UNL     1       1.200   4.409  20.591  0.00  0.00    +0.000 A 
ATOM     12  C   UNL     1       2.456   4.818  20.140  0.00  0.00    +0.000 A 
ATOM     13  C   UNL     1       3.238   3.996  19.302  0.00  0.00    +0.000 A 
ENDBRANCH   2  13
ENDBRANCH   1   4
BRANCH   1  14
ATOM     14  C   UNL     1       7.914   7.122  17.649  0.00  0.00    +0.000 C 
BRANCH  14  15
ATOM     15  C   UNL     1       7.459   8.544  17.974  0.00  0.00    +0.000 C 
BRANCH  15  16
ATOM     16  C   UNL     1       8.594   9.567  17.821  0.00  0.00    +0.000 C 
BRANCH  16  17
ATOM     17  C   UNL     1       9.206  10.006  19.157  0.00  0.00    +0.000 C 
BRANCH  17  18
ATOM     18  N   UNL     1       9.821  11.346  19.088  0.00  0.00    +0.000 N 
ATOM     19  C   UNL     1      10.422  11.686  17.885  0.00  0.00    +0.000 A 
ATOM     20  C   UNL     1      11.077  12.837  17.719  0.00  0.00    +0.000 A 
ATOM     21  C   UNL     1      11.250  13.733  18.829  0.00  0.00    +0.000 A 
ATOM     22  C   UNL     1      10.674  13.485  20.016  0.00  0.00    +0.000 A 
ATOM     23  C   UNL     1       9.788  12.256  20.180  0.00  0.00    +0.000 A 
ATOM     24  S   UNL     1       8.846  12.029  21.573  0.00  0.00    +0.000 S 
BRANCH  22  25
ATOM     25  O   UNL     1      10.887  14.311  21.108  0.00  0.00    +0.000 OA
ATOM     26  H   UNL     1      10.572  15.203  20.892  0.00  0.00    +0.000 HD
ENDBRANCH  22  25
ENDBRANCH  17  18
ENDBRANCH  16  17
ENDBRANCH  15  16
ENDBRANCH  14  15
ENDBRANCH   1  14
TORSDOF 8
ENDMDL
MODEL 7
REMARK VINA RESULT:      -7.5      1.780      2.327
REMARK  Name = 
REMARK  9 active torsions:
REMARK  status: ('A' for Active; 'I' for Inactive)
REMARK    1  A    between atoms: C_1  and  C_2
REMARK    2  A    between atoms: C_7  and  C_8
REMARK    3  A    between atoms: N_10  and  C_11
REMARK    4  A    between atoms: C_11  and  C_12
REMARK    5  A    between atoms: C_12  and  C_13
REMARK    6  A    between atoms: C_13  and  C_14
REMARK    7  A    between atoms: C_14  and  C_15
REMARK    8  A    between atoms: C_15  and  N_16
REMARK    9  A    between atoms: C_20  and  O_21
REMARK                            x       y       z     vdW  Elec       q    Type
REMARK                         _______ _______ _______ _____ _____    ______ ____
ROOT
ATOM      1  C   UNL     1       7.661   6.230  18.617  0.00  0.00    +0.000 C 
ENDROOT
BRANCH   1   4
ATOM      2  C   UNL     1       4.650   4.332  18.998  0.00  0.00    +0.000 A 
ATOM      3  C   UNL     1       5.534   5.241  19.539  0.00  0.00    +0.000 A 
ATOM      4  N   UNL     1       6.482   5.390  18.575  0.00  0.00    +0.000 N 
ATOM      5  N   UNL     1       6.241   4.602  17.516  0.00  0.00    +0.000 NA
ATOM      6  N   UNL     1       5.110   3.953  17.761  0.00  0.00    +0.000 NA
BRANCH   2  13
ATOM      7  C   UNL     1       1.946   5.142  17.954  0.00  0.00    +0.000 C 
ATOM      8  C   UNL     1       2.140   4.245  19.146  0.00  0.00    +0.000 A 
ATOM      9  C   UNL     1       0.995   3.770  19.815  0.00  0.00    +0.000 A 
ATOM     10  C   UNL     1       1.102   2.926  20.920  0.00  0.00    +0.000 A 
ATOM     11  C   UNL     1       2.355   2.543  21.378  0.00  0.00    +0.000 A 
ATOM     12  C   UNL     1       3.501   3.010  20.733  0.00  0.00    +0.000 A 
ATOM     13  C   UNL     1       3.417   3.864  19.615  0.00  0.00    +0.000 A 
ENDBRANCH   2  13
ENDBRANCH   1   4
BRANCH   1  14
ATOM     14  C   UNL     1       7.709   7.140  17.398  0.00  0.00    +0.000 C 
BRANCH  14  15
ATOM     15  C   UNL     1       7.529   8.617  17.744  0.00  0.00    +0.000 C 
BRANCH  15  16
ATOM     16  C   UNL     1       8.714   9.174  18.546  0.00  0.00    +0.000 C 
BRANCH  16  17
ATOM     17  C   UNL     1       9.243  10.509  18.009  0.00  0.00    +0.000 C 
BRANCH  17  18
ATOM     18  N   UNL     1       9.679  11.423  19.084  0.00  0.00    +0.000 N 
ATOM     19  C   UNL     1       9.255  11.109  20.367  0.00  0.00    +0.000 A 
ATOM     20  C   UNL     1       9.520  11.894  21.414  0.00  0.00    +0.000 A 
ATOM     21  C   UNL     1      10.192  13.149  21.220  0.00  0.00    +0.000 A 
ATOM     22  C   UNL     1      10.656  13.508  20.012  0.00  0.00    +0.000 A 
ATOM     23  C   UNL     1      10.506  12.551  18.835  0.00  0.00    +0.000 A 
ATOM     24  S   UNL     1      11.286  12.846  17.358  0.00  0.00    +0.000 S 
BRANCH  22  25
ATOM     25  O   UNL     1      11.249  14.743  19.805  0.00  0.00    +0.000 OA
ATOM     26  H   UNL     1      10.766  15.208  19.103  0.00  0.00    +0.000 HD
ENDBRANCH  22  25
ENDBRANCH  17  18
ENDBRANCH  16  17
ENDBRANCH  15  16
ENDBRANCH  14  15
ENDBRANCH   1  14
TORSDOF 8
ENDMDL
MODEL 8
REMARK VINA RESULT:      -7.5      1.145      1.349
REMARK  Name = 
REMARK  9 active torsions:
REMARK  status: ('A' for Active; 'I' for Inactive)
REMARK    1  A    between atoms: C_1  and  C_2
REMARK    2  A    between atoms: C_7  and  C_8
REMARK    3  A    between atoms: N_10  and  C_11
REMARK    4  A    between atoms: C_11  and  C_12
REMARK    5  A    between atoms: C_12  and  C_13
REMARK    6  A    between atoms: C_13  and  C_14
REMARK    7  A    between atoms: C_14  and  C_15
REMARK    8  A    between atoms: C_15  and  N_16
REMARK    9  A    between atoms: C_20  and  O_21
REMARK                            x       y       z     vdW  Elec       q    Type
REMARK                         _______ _______ _______ _____ _____    ______ ____
ROOT
ATOM      1  C   UNL     1       7.482   6.403  18.123  0.00  0.00    +0.000 C 
ENDROOT
BRANCH   1   4
ATOM      2  C   UNL     1       4.101   5.228  18.184  0.00  0.00    +0.000 A 
ATOM      3  C   UNL     1       5.395   5.087  18.638  0.00  0.00    +0.000 A 
ATOM      4  N   UNL     1       6.073   6.086  18.014  0.00  0.00    +0.000 N 
ATOM      5  N   UNL     1       5.277   6.786  17.190  0.00  0.00    +0.000 NA
ATOM      6  N   UNL     1       4.058   6.272  17.294  0.00  0.00    +0.000 NA
BRANCH   2  13
ATOM      7  C   UNL     1       2.186   6.160  20.310  0.00  0.00    +0.000 C 
ATOM      8  C   UNL     1       2.055   4.841  19.597  0.00  0.00    +0.000 A 
ATOM      9  C   UNL     1       0.988   3.995  19.953  0.00  0.00    +0.000 A 
ATOM     10  C   UNL     1       0.801   2.764  19.324  0.00  0.00    +0.000 A 
ATOM     11  C   UNL     1       1.680   2.355  18.330  0.00  0.00    +0.000 A 
ATOM     12  C   UNL     1       2.749   3.178  17.969  0.00  0.00    +0.000 A 
ATOM     13  C   UNL     1       2.956   4.426  18.592  0.00  0.00    +0.000 A 
ENDBRANCH   2  13
ENDBRANCH   1   4
BRANCH   1  14
ATOM     14  C   UNL     1       7.749   7.818  17.632  0.00  0.00    +0.000 C 
BRANCH  14  15
ATOM     15  C   UNL     1       8.601   8.639  18.600  0.00  0.00    +0.000 C 
BRANCH  15  16
ATOM     16  C   UNL     1       8.755  10.097  18.145  0.00  0.00    +0.000 C 
BRANCH  16  17
ATOM     17  C   UNL     1       8.806  11.098  19.305  0.00  0.00    +0.000 C 
BRANCH  17  18
ATOM     18  N   UNL     1       9.972  12.001  19.227  0.00  0.00    +0.000 N 
ATOM     19  C   UNL     1      11.206  11.438  19.518  0.00  0.00    +0.000 A 
ATOM     20  C   UNL     1      12.325  12.164  19.554  0.00  0.00    +0.000 A 
ATOM     21  C   UNL     1      12.266  13.588  19.373  0.00  0.00    +0.000 A 
ATOM     22  C   UNL     1      11.112  14.200  19.061  0.00  0.00    +0.000 A 
ATOM     23  C   UNL     1       9.852  13.367  18.855  0.00  0.00    +0.000 A 
ATOM     24  S   UNL     1       8.436  14.057  18.224  0.00  0.00    +0.000 S 
BRANCH  22  25
ATOM     25  O   UNL     1      11.035  15.578  18.945  0.00  0.00    +0.000 OA
ATOM     26  H   UNL     1      10.406  15.798  18.240  0.00  0.00    +0.000 HD
ENDBRANCH  22  25
ENDBRANCH  17  18
ENDBRANCH  16  17
ENDBRANCH  15  16
ENDBRANCH  14  15
ENDBRANCH   1  14
TORSDOF 8
ENDMDL
MODEL 9
REMARK VINA RESULT:      -7.4      1.697      2.557
REMARK  Name = 
REMARK  9 active torsions:
REMARK  status: ('A' for Active; 'I' for Inactive)
REMARK    1  A    between atoms: C_1  and  C_2
REMARK    2  A    between atoms: C_7  and  C_8
REMARK    3  A    between atoms: N_10  and  C_11
REMARK    4  A    between atoms: C_11  and  C_12
REMARK    5  A    between atoms: C_12  and  C_13
REMARK    6  A    between atoms: C_13  and  C_14
REMARK    7  A    between atoms: C_14  and  C_15
REMARK    8  A    between atoms: C_15  and  N_16
REMARK    9  A    between atoms: C_20  and  O_21
REMARK                            x       y       z     vdW  Elec       q    Type
REMARK                         _______ _______ _______ _____ _____    ______ ____
ROOT
ATOM      1  C   UNL     1       6.701   6.480  16.971  0.00  0.00    +0.000 C 
ENDROOT
BRANCH   1   4
ATOM      2  C   UNL     1       3.736   5.237  18.545  0.00  0.00    +0.000 A 
ATOM      3  C   UNL     1       5.077   5.061  18.275  0.00  0.00    +0.000 A 
ATOM      4  N   UNL     1       5.408   6.152  17.534  0.00  0.00    +0.000 N 
ATOM      5  N   UNL     1       4.346   6.943  17.313  0.00  0.00    +0.000 NA
ATOM      6  N   UNL     1       3.313   6.394  17.939  0.00  0.00    +0.000 NA
BRANCH   2  13
ATOM      7  C   UNL     1       2.368   2.820  17.384  0.00  0.00    +0.000 C 
ATOM      8  C   UNL     1       2.243   3.231  18.826  0.00  0.00    +0.000 A 
ATOM      9  C   UNL     1       1.433   2.450  19.673  0.00  0.00    +0.000 A 
ATOM     10  C   UNL     1       1.282   2.768  21.023  0.00  0.00    +0.000 A 
ATOM     11  C   UNL     1       1.935   3.873  21.550  0.00  0.00    +0.000 A 
ATOM     12  C   UNL     1       2.736   4.664  20.724  0.00  0.00    +0.000 A 
ATOM     13  C   UNL     1       2.903   4.361  19.357  0.00  0.00    +0.000 A 
ENDBRANCH   2  13
ENDBRANCH   1   4
BRANCH   1  14
ATOM     14  C   UNL     1       7.570   7.181  18.006  0.00  0.00    +0.000 C 
BRANCH  14  15
ATOM     15  C   UNL     1       7.945   8.608  17.608  0.00  0.00    +0.000 C 
BRANCH  15  16
ATOM     16  C   UNL     1       8.682   9.349  18.732  0.00  0.00    +0.000 C 
BRANCH  16  17
ATOM     17  C   UNL     1       9.365  10.641  18.268  0.00  0.00    +0.000 C 
BRANCH  17  18
ATOM     18  N   UNL     1       9.523  11.626  19.358  0.00  0.00    +0.000 N 
ATOM     19  C   UNL     1       9.399  11.137  20.650  0.00  0.00    +0.000 A 
ATOM     20  C   UNL     1       9.447  11.935  21.718  0.00  0.00    +0.000 A 
ATOM     21  C   UNL     1       9.547  13.359  21.549  0.00  0.00    +0.000 A 
ATOM     22  C   UNL     1       9.698  13.903  20.331  0.00  0.00    +0.000 A 
ATOM     23  C   UNL     1       9.807  12.996  19.111  0.00  0.00    +0.000 A 
ATOM     24  S   UNL     1      10.242  13.613  17.591  0.00  0.00    +0.000 S 
BRANCH  22  25
ATOM     25  O   UNL     1       9.732  15.277  20.153  0.00  0.00    +0.000 OA
ATOM     26  H   UNL     1       9.631  15.706  21.017  0.00  0.00    +0.000 HD
ENDBRANCH  22  25
ENDBRANCH  17  18
ENDBRANCH  16  17
ENDBRANCH  15  16
ENDBRANCH  14  15
ENDBRANCH   1  14
TORSDOF 8
ENDMDL
