MODEL 1
REMARK VINA RESULT:      -7.4      0.000      0.000
REMARK  Name = 
REMARK  4 active torsions:
REMARK  status: ('A' for Active; 'I' for Inactive)
REMARK    1  A    between atoms: C_1  and  N_2
REMARK    2  A    between atoms: C_11  and  N_12
REMARK    3  A    between atoms: N_12  and  C_13
REMARK    4  A    between atoms: C_19  and  C_20
REMARK                            x       y       z     vdW  Elec       q    Type
REMARK                         _______ _______ _______ _____ _____    ______ ____
ROOT
ATOM      1  C   UNL     1      -2.471  18.079  22.753  0.00  0.00    +0.000 C 
ATOM      2  N   UNL     1      -2.761  17.154  21.660  0.00  0.00    +0.000 NA
ATOM      3  C   UNL     1      -4.186  16.842  21.551  0.00  0.00    +0.000 C 
ATOM      4  C   UNL     1      -4.413  15.677  22.501  0.00  0.00    +0.000 C 
ATOM      5  C   UNL     1      -3.097  14.877  22.478  0.00  0.00    +0.000 C 
ATOM      6  C   UNL     1      -2.666  14.439  23.897  0.00  0.00    +0.000 C 
ATOM      7  C   UNL     1      -2.459  12.922  23.838  0.00  0.00    +0.000 C 
ATOM      8  N   UNL     1      -2.303  12.628  22.425  0.00  0.00    +0.000 N 
ATOM      9  C   UNL     1      -1.543  11.648  21.812  0.00  0.00    +0.000 A 
ATOM     10  N   UNL     1      -1.668  11.347  20.561  0.00  0.00    +0.000 NA
ATOM     11  C   UNL     1      -0.850  10.415  19.942  0.00  0.00    +0.000 A 
ATOM     12  C   UNL     1       0.258   9.887  20.551  0.00  0.00    +0.000 A 
ATOM     13  C   UNL     1       0.418  10.298  21.980  0.00  0.00    +0.000 A 
ATOM     14  O   UNL     1       1.432  10.102  22.645  0.00  0.00    +0.000 OA
ATOM     15  N   UNL     1      -0.623  10.970  22.559  0.00  0.00    +0.000 N 
ATOM     16  C   UNL     1      -3.174  13.547  21.681  0.00  0.00    +0.000 C 
ATOM     17  C   UNL     1      -2.086  15.854  21.831  0.00  0.00    +0.000 C 
ATOM     18  H   UNL     1      -0.465  11.238  23.514  0.00  0.00    +0.000 HD
ENDROOT
BRANCH  12  19
ATOM     19  C   UNL     1       1.186   8.980  19.871  0.00  0.00    +0.000 A 
ATOM     20  N   UNL     1       1.575   7.784  20.311  0.00  0.00    +0.000 NA
ATOM     21  C   UNL     1       2.411   7.114  19.412  0.00  0.00    +0.000 A 
ATOM     22  C   UNL     1       2.962   5.823  19.577  0.00  0.00    +0.000 A 
ATOM     23  C   UNL     1       3.754   5.254  18.567  0.00  0.00    +0.000 A 
ATOM     24  C   UNL     1       4.018   5.959  17.398  0.00  0.00    +0.000 A 
ATOM     25  C   UNL     1       3.505   7.252  17.225  0.00  0.00    +0.000 A 
ATOM     26  C   UNL     1       2.703   7.811  18.245  0.00  0.00    +0.000 A 
ATOM     27  S   UNL     1       1.938   9.351  18.333  0.00  0.00    +0.000 S 
ENDBRANCH  12  19
BRANCH  11  28
ATOM     28  N   UNL     1      -1.204  10.089  18.613  0.00  0.00    +0.000 N 
ATOM     29  H   UNL     1      -1.281   9.067  18.569  0.00  0.00    +0.000 HD
BRANCH  28  30
ATOM     30  C   UNL     1      -2.451  10.661  18.055  0.00  0.00    +0.000 C 
ATOM     31  C   UNL     1      -3.316   9.538  17.477  0.00  0.00    +0.000 C 
ATOM     32  C   UNL     1      -2.989   9.223  16.030  0.00  0.00    +0.000 C 
ATOM     33  C   UNL     1      -3.064  10.451  15.138  0.00  0.00    +0.000 C 
ATOM     34  N   UNL     1      -2.343  11.617  15.607  0.00  0.00    +0.000 NA
ATOM     35  C   UNL     1      -2.204  11.822  17.054  0.00  0.00    +0.000 C 
ATOM     36  H   UNL     1      -2.730  12.459  15.180  0.00  0.00    +0.000 HD
ENDBRANCH  28  30
ENDBRANCH  11  28
TORSDOF 3
ENDMDL
MODEL 2
REMARK VINA RESULT:      -7.0      7.255      9.454
REMARK  Name = 
REMARK  4 active torsions:
REMARK  status: ('A' for Active; 'I' for Inactive)
REMARK    1  A    between atoms: C_1  and  N_2
REMARK    2  A    between atoms: C_11  and  N_12
REMARK    3  A    between atoms: N_12  and  C_13
REMARK    4  A    between atoms: C_19  and  C_20
REMARK                            x       y       z     vdW  Elec       q    Type
REMARK                         _______ _______ _______ _____ _____    ______ ____
ROOT
ATOM      1  C   UNL     1      11.447  14.721  17.852  0.00  0.00    +0.000 C 
ATOM      2  N   UNL     1      10.265  15.347  17.264  0.00  0.00    +0.000 NA
ATOM      3  C   UNL     1      10.386  16.803  17.175  0.00  0.00    +0.000 C 
ATOM      4  C   UNL     1       9.906  17.326  18.518  0.00  0.00    +0.000 C 
ATOM      5  C   UNL     1       8.824  16.329  18.976  0.00  0.00    +0.000 C 
ATOM      6  C   UNL     1       8.966  15.975  20.474  0.00  0.00    +0.000 C 
ATOM      7  C   UNL     1       7.604  16.255  21.116  0.00  0.00    +0.000 C 
ATOM      8  N   UNL     1       6.672  16.280  20.003  0.00  0.00    +0.000 N 
ATOM      9  C   UNL     1       5.343  15.900  19.964  0.00  0.00    +0.000 A 
ATOM     10  N   UNL     1       4.563  16.184  18.972  0.00  0.00    +0.000 NA
ATOM     11  C   UNL     1       3.253  15.734  18.912  0.00  0.00    +0.000 A 
ATOM     12  C   UNL     1       2.749  14.813  19.792  0.00  0.00    +0.000 A 
ATOM     13  C   UNL     1       3.691  14.451  20.896  0.00  0.00    +0.000 A 
ATOM     14  O   UNL     1       3.519  13.511  21.669  0.00  0.00    +0.000 OA
ATOM     15  N   UNL     1       4.831  15.196  21.016  0.00  0.00    +0.000 N 
ATOM     16  C   UNL     1       7.372  16.862  18.851  0.00  0.00    +0.000 C 
ATOM     17  C   UNL     1       9.046  15.103  18.057  0.00  0.00    +0.000 C 
ATOM     18  H   UNL     1       5.440  14.907  21.762  0.00  0.00    +0.000 HD
ENDROOT
BRANCH  12  19
ATOM     19  C   UNL     1       1.400  14.254  19.675  0.00  0.00    +0.000 A 
ATOM     20  N   UNL     1       0.947  13.506  18.670  0.00  0.00    +0.000 NA
ATOM     21  C   UNL     1      -0.361  13.055  18.869  0.00  0.00    +0.000 A 
ATOM     22  C   UNL     1      -1.106  12.222  18.003  0.00  0.00    +0.000 A 
ATOM     23  C   UNL     1      -2.402  11.811  18.352  0.00  0.00    +0.000 A 
ATOM     24  C   UNL     1      -2.975  12.228  19.548  0.00  0.00    +0.000 A 
ATOM     25  C   UNL     1      -2.266  13.076  20.410  0.00  0.00    +0.000 A 
ATOM     26  C   UNL     1      -0.959  13.478  20.051  0.00  0.00    +0.000 A 
ATOM     27  S   UNL     1       0.152  14.499  20.880  0.00  0.00    +0.000 S 
ENDBRANCH  12  19
BRANCH  11  28
ATOM     28  N   UNL     1       2.488  16.248  17.840  0.00  0.00    +0.000 N 
ATOM     29  H   UNL     1       1.667  15.641  17.745  0.00  0.00    +0.000 HD
BRANCH  28  30
ATOM     30  C   UNL     1       2.009  17.647  17.922  0.00  0.00    +0.000 C 
ATOM     31  C   UNL     1       0.941  17.759  19.014  0.00  0.00    +0.000 C 
ATOM     32  C   UNL     1      -0.458  17.467  18.506  0.00  0.00    +0.000 C 
ATOM     33  C   UNL     1      -0.835  18.332  17.316  0.00  0.00    +0.000 C 
ATOM     34  N   UNL     1       0.128  18.373  16.234  0.00  0.00    +0.000 NA
ATOM     35  C   UNL     1       1.553  18.225  16.556  0.00  0.00    +0.000 C 
ATOM     36  H   UNL     1      -0.009  19.218  15.679  0.00  0.00    +0.000 HD
ENDBRANCH  28  30
ENDBRANCH  11  28
TORSDOF 3
ENDMDL
MODEL 3
REMARK VINA RESULT:      -7.0      6.611     10.385
REMARK  Name = 
REMARK  4 active torsions:
REMARK  status: ('A' for Active; 'I' for Inactive)
REMARK    1  A    between atoms: C_1  and  N_2
REMARK    2  A    between atoms: C_11  and  N_12
REMARK    3  A    between atoms: N_12  and  C_13
REMARK    4  A    between atoms: C_19  and  C_20
REMARK                            x       y       z     vdW  Elec       q    Type
REMARK                         _______ _______ _______ _____ _____    ______ ____
ROOT
ATOM      1  C   UNL     1      11.117  11.889  20.449  0.00  0.00    +0.000 C 
ATOM      2  N   UNL     1       9.853  11.533  19.810  0.00  0.00    +0.000 NA
ATOM      3  C   UNL     1      10.029  11.081  18.429  0.00  0.00    +0.000 C 
ATOM      4  C   UNL     1      10.012  12.349  17.590  0.00  0.00    +0.000 C 
ATOM      5  C   UNL     1       9.063  13.309  18.331  0.00  0.00    +0.000 C 
ATOM      6  C   UNL     1       9.632  14.746  18.391  0.00  0.00    +0.000 C 
ATOM      7  C   UNL     1       8.549  15.666  17.819  0.00  0.00    +0.000 C 
ATOM      8  N   UNL     1       7.326  14.887  17.901  0.00  0.00    +0.000 N 
ATOM      9  C   UNL     1       6.027  15.314  18.111  0.00  0.00    +0.000 A 
ATOM     10  N   UNL     1       5.002  14.546  17.936  0.00  0.00    +0.000 NA
ATOM     11  C   UNL     1       3.711  14.964  18.219  0.00  0.00    +0.000 A 
ATOM     12  C   UNL     1       3.443  16.137  18.874  0.00  0.00    +0.000 A 
ATOM     13  C   UNL     1       4.652  16.982  19.122  0.00  0.00    +0.000 A 
ATOM     14  O   UNL     1       4.667  17.966  19.858  0.00  0.00    +0.000 OA
ATOM     15  N   UNL     1       5.818  16.600  18.519  0.00  0.00    +0.000 N 
ATOM     16  C   UNL     1       7.676  13.482  17.655  0.00  0.00    +0.000 C 
ATOM     17  C   UNL     1       8.920  12.672  19.734  0.00  0.00    +0.000 C 
ATOM     18  H   UNL     1       6.606  17.188  18.726  0.00  0.00    +0.000 HD
ENDROOT
BRANCH  12  19
ATOM     19  C   UNL     1       2.091  16.539  19.270  0.00  0.00    +0.000 A 
ATOM     20  N   UNL     1       1.144  17.005  18.456  0.00  0.00    +0.000 NA
ATOM     21  C   UNL     1      -0.071  17.236  19.107  0.00  0.00    +0.000 A 
ATOM     22  C   UNL     1      -1.269  17.699  18.515  0.00  0.00    +0.000 A 
ATOM     23  C   UNL     1      -2.433  17.846  19.287  0.00  0.00    +0.000 A 
ATOM     24  C   UNL     1      -2.420  17.550  20.645  0.00  0.00    +0.000 A 
ATOM     25  C   UNL     1      -1.237  17.116  21.259  0.00  0.00    +0.000 A 
ATOM     26  C   UNL     1      -0.073  16.965  20.471  0.00  0.00    +0.000 A 
ATOM     27  S   UNL     1       1.510  16.460  20.920  0.00  0.00    +0.000 S 
ENDBRANCH  12  19
BRANCH  11  28
ATOM     28  N   UNL     1       2.689  14.064  17.839  0.00  0.00    +0.000 N 
ATOM     29  H   UNL     1       3.152  13.247  17.426  0.00  0.00    +0.000 HD
BRANCH  28  30
ATOM     30  C   UNL     1       1.754  13.577  18.878  0.00  0.00    +0.000 C 
ATOM     31  C   UNL     1       2.215  12.206  19.380  0.00  0.00    +0.000 C 
ATOM     32  C   UNL     1       1.662  11.058  18.557  0.00  0.00    +0.000 C 
ATOM     33  C   UNL     1       0.148  11.094  18.456  0.00  0.00    +0.000 C 
ATOM     34  N   UNL     1      -0.429  12.363  18.057  0.00  0.00    +0.000 NA
ATOM     35  C   UNL     1       0.268  13.599  18.433  0.00  0.00    +0.000 C 
ATOM     36  H   UNL     1      -1.401  12.413  18.363  0.00  0.00    +0.000 HD
ENDBRANCH  28  30
ENDBRANCH  11  28
TORSDOF 3
ENDMDL
MODEL 4
REMARK VINA RESULT:      -7.0      1.952      8.678
REMARK  Name = 
REMARK  4 active torsions:
REMARK  status: ('A' for Active; 'I' for Inactive)
REMARK    1  A    between atoms: C_1  and  N_2
REMARK    2  A    between atoms: C_11  and  N_12
REMARK    3  A    between atoms: N_12  and  C_13
REMARK    4  A    between atoms: C_19  and  C_20
REMARK                            x       y       z     vdW  Elec       q    Type
REMARK                         _______ _______ _______ _____ _____    ______ ____
ROOT
ATOM      1  C   UNL     1       1.801   1.904  19.113  0.00  0.00    +0.000 C 
ATOM      2  N   UNL     1       1.271   2.957  18.249  0.00  0.00    +0.000 NA
ATOM      3  C   UNL     1       2.068   3.141  17.036  0.00  0.00    +0.000 C 
ATOM      4  C   UNL     1       3.168   4.115  17.425  0.00  0.00    +0.000 C 
ATOM      5  C   UNL     1       2.534   5.034  18.487  0.00  0.00    +0.000 C 
ATOM      6  C   UNL     1       3.492   5.285  19.674  0.00  0.00    +0.000 C 
ATOM      7  C   UNL     1       3.604   6.805  19.827  0.00  0.00    +0.000 C 
ATOM      8  N   UNL     1       2.446   7.330  19.127  0.00  0.00    +0.000 N 
ATOM      9  C   UNL     1       1.699   8.463  19.394  0.00  0.00    +0.000 A 
ATOM     10  N   UNL     1       0.833   8.942  18.562  0.00  0.00    +0.000 NA
ATOM     11  C   UNL     1       0.039  10.036  18.872  0.00  0.00    +0.000 A 
ATOM     12  C   UNL     1      -0.022  10.567  20.133  0.00  0.00    +0.000 A 
ATOM     13  C   UNL     1       0.944   9.956  21.097  0.00  0.00    +0.000 A 
ATOM     14  O   UNL     1       0.920  10.143  22.311  0.00  0.00    +0.000 OA
ATOM     15  N   UNL     1       1.883   9.103  20.586  0.00  0.00    +0.000 N 
ATOM     16  C   UNL     1       2.190   6.458  17.973  0.00  0.00    +0.000 C 
ATOM     17  C   UNL     1       1.255   4.273  18.911  0.00  0.00    +0.000 C 
ATOM     18  H   UNL     1       2.501   8.705  21.272  0.00  0.00    +0.000 HD
ENDROOT
BRANCH  12  19
ATOM     19  C   UNL     1      -0.934  11.656  20.496  0.00  0.00    +0.000 A 
ATOM     20  N   UNL     1      -2.027  11.542  21.250  0.00  0.00    +0.000 NA
ATOM     21  C   UNL     1      -2.659  12.767  21.486  0.00  0.00    +0.000 A 
ATOM     22  C   UNL     1      -3.817  12.980  22.269  0.00  0.00    +0.000 A 
ATOM     23  C   UNL     1      -4.319  14.277  22.457  0.00  0.00    +0.000 A 
ATOM     24  C   UNL     1      -3.692  15.368  21.866  0.00  0.00    +0.000 A 
ATOM     25  C   UNL     1      -2.558  15.178  21.063  0.00  0.00    +0.000 A 
ATOM     26  C   UNL     1      -2.057  13.868  20.887  0.00  0.00    +0.000 A 
ATOM     27  S   UNL     1      -0.706  13.313  19.976  0.00  0.00    +0.000 S 
ENDBRANCH  12  19
BRANCH  11  28
ATOM     28  N   UNL     1      -0.751  10.528  17.809  0.00  0.00    +0.000 N 
ATOM     29  H   UNL     1      -0.284  10.249  16.939  0.00  0.00    +0.000 HD
BRANCH  28  30
ATOM     30  C   UNL     1      -2.164  10.096  17.721  0.00  0.00    +0.000 C 
ATOM     31  C   UNL     1      -2.397   9.372  16.392  0.00  0.00    +0.000 C 
ATOM     32  C   UNL     1      -2.770  10.313  15.262  0.00  0.00    +0.000 C 
ATOM     33  C   UNL     1      -3.970  11.179  15.601  0.00  0.00    +0.000 C 
ATOM     34  N   UNL     1      -3.911  11.870  16.874  0.00  0.00    +0.000 NA
ATOM     35  C   UNL     1      -3.178  11.243  17.980  0.00  0.00    +0.000 C 
ATOM     36  H   UNL     1      -4.854  12.109  17.183  0.00  0.00    +0.000 HD
ENDBRANCH  28  30
ENDBRANCH  11  28
TORSDOF 3
ENDMDL
MODEL 5
REMARK VINA RESULT:      -6.8      2.062      8.729
REMARK  Name = 
REMARK  4 active torsions:
REMARK  status: ('A' for Active; 'I' for Inactive)
REMARK    1  A    between atoms: C_1  and  N_2
REMARK    2  A    between atoms: C_11  and  N_12
REMARK    3  A    between atoms: N_12  and  C_13
REMARK    4  A    between atoms: C_19  and  C_20
REMARK                            x       y       z     vdW  Elec       q    Type
REMARK                         _______ _______ _______ _____ _____    ______ ____
ROOT
ATOM      1  C   UNL     1       1.636   1.830  18.947  0.00  0.00    +0.000 C 
ATOM      2  N   UNL     1       1.135   2.977  18.194  0.00  0.00    +0.000 NA
ATOM      3  C   UNL     1       1.924   3.246  16.991  0.00  0.00    +0.000 C 
ATOM      4  C   UNL     1       3.063   4.140  17.454  0.00  0.00    +0.000 C 
ATOM      5  C   UNL     1       2.475   4.976  18.606  0.00  0.00    +0.000 C 
ATOM      6  C   UNL     1       3.455   5.080  19.798  0.00  0.00    +0.000 C 
ATOM      7  C   UNL     1       3.624   6.574  20.092  0.00  0.00    +0.000 C 
ATOM      8  N   UNL     1       2.478   7.203  19.461  0.00  0.00    +0.000 N 
ATOM      9  C   UNL     1       1.776   8.332  19.845  0.00  0.00    +0.000 A 
ATOM     10  N   UNL     1       0.919   8.918  19.074  0.00  0.00    +0.000 NA
ATOM     11  C   UNL     1       0.169  10.004  19.497  0.00  0.00    +0.000 A 
ATOM     12  C   UNL     1       0.142  10.417  20.803  0.00  0.00    +0.000 A 
ATOM     13  C   UNL     1       1.097   9.683  21.691  0.00  0.00    +0.000 A 
ATOM     14  O   UNL     1       1.093   9.756  22.918  0.00  0.00    +0.000 OA
ATOM     15  N   UNL     1       1.998   8.850  21.088  0.00  0.00    +0.000 N 
ATOM     16  C   UNL     1       2.178   6.453  18.234  0.00  0.00    +0.000 C 
ATOM     17  C   UNL     1       1.174   4.224  18.977  0.00  0.00    +0.000 C 
ATOM     18  H   UNL     1       2.608   8.367  21.724  0.00  0.00    +0.000 HD
ENDROOT
BRANCH  12  19
ATOM     19  C   UNL     1      -0.725  11.497  21.280  0.00  0.00    +0.000 A 
ATOM     20  N   UNL     1      -0.912  12.672  20.680  0.00  0.00    +0.000 NA
ATOM     21  C   UNL     1      -1.853  13.476  21.331  0.00  0.00    +0.000 A 
ATOM     22  C   UNL     1      -2.291  14.758  20.926  0.00  0.00    +0.000 A 
ATOM     23  C   UNL     1      -3.279  15.435  21.656  0.00  0.00    +0.000 A 
ATOM     24  C   UNL     1      -3.832  14.861  22.795  0.00  0.00    +0.000 A 
ATOM     25  C   UNL     1      -3.394  13.603  23.231  0.00  0.00    +0.000 A 
ATOM     26  C   UNL     1      -2.404  12.926  22.484  0.00  0.00    +0.000 A 
ATOM     27  S   UNL     1      -1.667  11.394  22.753  0.00  0.00    +0.000 S 
ENDBRANCH  12  19
BRANCH  11  28
ATOM     28  N   UNL     1      -0.614  10.623  18.496  0.00  0.00    +0.000 N 
ATOM     29  H   UNL     1      -0.116  10.494  17.609  0.00  0.00    +0.000 HD
BRANCH  28  30
ATOM     30  C   UNL     1      -2.007  10.159  18.304  0.00  0.00    +0.000 C 
ATOM     31  C   UNL     1      -2.140   9.490  16.933  0.00  0.00    +0.000 C 
ATOM     32  C   UNL     1      -2.472  10.471  15.825  0.00  0.00    +0.000 C 
ATOM     33  C   UNL     1      -3.714  11.290  16.128  0.00  0.00    +0.000 C 
ATOM     34  N   UNL     1      -3.750  11.924  17.431  0.00  0.00    +0.000 NA
ATOM     35  C   UNL     1      -3.067  11.266  18.551  0.00  0.00    +0.000 C 
ATOM     36  H   UNL     1      -4.716  12.124  17.692  0.00  0.00    +0.000 HD
ENDBRANCH  28  30
ENDBRANCH  11  28
TORSDOF 3
ENDMDL
MODEL 6
REMARK VINA RESULT:      -6.8      4.402      6.084
REMARK  Name = 
REMARK  4 active torsions:
REMARK  status: ('A' for Active; 'I' for Inactive)
REMARK    1  A    between atoms: C_1  and  N_2
REMARK    2  A    between atoms: C_11  and  N_12
REMARK    3  A    between atoms: N_12  and  C_13
REMARK    4  A    between atoms: C_19  and  C_20
REMARK                            x       y       z     vdW  Elec       q    Type
REMARK                         _______ _______ _______ _____ _____    ______ ____
ROOT
ATOM      1  C   UNL     1      -7.836  13.059  18.289  0.00  0.00    +0.000 C 
ATOM      2  N   UNL     1      -6.737  12.199  18.722  0.00  0.00    +0.000 NA
ATOM      3  C   UNL     1      -7.074  11.414  19.910  0.00  0.00    +0.000 C 
ATOM      4  C   UNL     1      -6.738  12.312  21.089  0.00  0.00    +0.000 C 
ATOM      5  C   UNL     1      -5.539  13.159  20.621  0.00  0.00    +0.000 C 
ATOM      6  C   UNL     1      -5.692  14.644  21.026  0.00  0.00    +0.000 C 
ATOM      7  C   UNL     1      -4.417  15.018  21.789  0.00  0.00    +0.000 C 
ATOM      8  N   UNL     1      -3.452  14.002  21.411  0.00  0.00    +0.000 N 
ATOM      9  C   UNL     1      -2.080  14.105  21.269  0.00  0.00    +0.000 A 
ATOM     10  N   UNL     1      -1.309  13.074  21.149  0.00  0.00    +0.000 NA
ATOM     11  C   UNL     1       0.055  13.194  20.934  0.00  0.00    +0.000 A 
ATOM     12  C   UNL     1       0.653  14.393  20.649  0.00  0.00    +0.000 A 
ATOM     13  C   UNL     1      -0.270  15.566  20.733  0.00  0.00    +0.000 A 
ATOM     14  O   UNL     1       0.008  16.693  20.328  0.00  0.00    +0.000 OA
ATOM     15  N   UNL     1      -1.515  15.348  21.256  0.00  0.00    +0.000 N 
ATOM     16  C   UNL     1      -4.180  12.738  21.241  0.00  0.00    +0.000 C 
ATOM     17  C   UNL     1      -5.532  12.965  19.085  0.00  0.00    +0.000 C 
ATOM     18  H   UNL     1      -2.105  16.161  21.278  0.00  0.00    +0.000 HD
ENDROOT
BRANCH  12  19
ATOM     19  C   UNL     1       2.076  14.515  20.320  0.00  0.00    +0.000 A 
ATOM     20  N   UNL     1       2.611  14.391  19.106  0.00  0.00    +0.000 NA
ATOM     21  C   UNL     1       3.988  14.632  19.087  0.00  0.00    +0.000 A 
ATOM     22  C   UNL     1       4.832  14.607  17.953  0.00  0.00    +0.000 A 
ATOM     23  C   UNL     1       6.196  14.915  18.076  0.00  0.00    +0.000 A 
ATOM     24  C   UNL     1       6.738  15.234  19.316  0.00  0.00    +0.000 A 
ATOM     25  C   UNL     1       5.926  15.238  20.458  0.00  0.00    +0.000 A 
ATOM     26  C   UNL     1       4.553  14.935  20.322  0.00  0.00    +0.000 A 
ATOM     27  S   UNL     1       3.312  14.856  21.513  0.00  0.00    +0.000 S 
ENDBRANCH  12  19
BRANCH  11  28
ATOM     28  N   UNL     1       0.780  11.981  20.971  0.00  0.00    +0.000 N 
ATOM     29  H   UNL     1       1.166  11.895  21.918  0.00  0.00    +0.000 HD
BRANCH  28  30
ATOM     30  C   UNL     1       0.066  10.722  20.659  0.00  0.00    +0.000 C 
ATOM     31  C   UNL     1       0.040   9.826  21.901  0.00  0.00    +0.000 C 
ATOM     32  C   UNL     1       1.260   8.932  22.011  0.00  0.00    +0.000 C 
ATOM     33  C   UNL     1       1.476   8.091  20.765  0.00  0.00    +0.000 C 
ATOM     34  N   UNL     1       1.453   8.808  19.506  0.00  0.00    +0.000 NA
ATOM     35  C   UNL     1       0.606  10.002  19.395  0.00  0.00    +0.000 C 
ATOM     36  H   UNL     1       1.236   8.165  18.744  0.00  0.00    +0.000 HD
ENDBRANCH  28  30
ENDBRANCH  11  28
TORSDOF 3
ENDMDL
MODEL 7
REMARK VINA RESULT:      -6.8      4.402      5.597
REMARK  Name = 
REMARK  4 active torsions:
REMARK  status: ('A' for Active; 'I' for Inactive)
REMARK    1  A    between atoms: C_1  and  N_2
REMARK    2  A    between atoms: C_11  and  N_12
REMARK    3  A    between atoms: N_12  and  C_13
REMARK    4  A    between atoms: C_19  and  C_20
REMARK                            x       y       z     vdW  Elec       q    Type
REMARK                         _______ _______ _______ _____ _____    ______ ____
ROOT
ATOM      1  C   UNL     1      -7.620  14.631  20.697  0.00  0.00    +0.000 C 
ATOM      2  N   UNL     1      -6.602  13.599  20.521  0.00  0.00    +0.000 NA
ATOM      3  C   UNL     1      -6.834  12.430  21.370  0.00  0.00    +0.000 C 
ATOM      4  C   UNL     1      -6.165  12.761  22.694  0.00  0.00    +0.000 C 
ATOM      5  C   UNL     1      -4.957  13.642  22.325  0.00  0.00    +0.000 C 
ATOM      6  C   UNL     1      -4.814  14.849  23.282  0.00  0.00    +0.000 C 
ATOM      7  C   UNL     1      -3.383  14.804  23.826  0.00  0.00    +0.000 C 
ATOM      8  N   UNL     1      -2.661  13.961  22.891  0.00  0.00    +0.000 N 
ATOM      9  C   UNL     1      -1.336  14.021  22.498  0.00  0.00    +0.000 A 
ATOM     10  N   UNL     1      -0.760  13.074  21.833  0.00  0.00    +0.000 NA
ATOM     11  C   UNL     1       0.547  13.178  21.383  0.00  0.00    +0.000 A 
ATOM     12  C   UNL     1       1.256  14.349  21.444  0.00  0.00    +0.000 A 
ATOM     13  C   UNL     1       0.545  15.451  22.164  0.00  0.00    +0.000 A 
ATOM     14  O   UNL     1       0.910  16.624  22.162  0.00  0.00    +0.000 OA
ATOM     15  N   UNL     1      -0.605  15.126  22.828  0.00  0.00    +0.000 N 
ATOM     16  C   UNL     1      -3.587  12.920  22.425  0.00  0.00    +0.000 C 
ATOM     17  C   UNL     1      -5.251  14.076  20.869  0.00  0.00    +0.000 C 
ATOM     18  H   UNL     1      -1.055  15.900  23.284  0.00  0.00    +0.000 HD
ENDROOT
BRANCH  12  19
ATOM     19  C   UNL     1       2.599  14.498  20.879  0.00  0.00    +0.000 A 
ATOM     20  N   UNL     1       2.912  14.452  19.584  0.00  0.00    +0.000 NA
ATOM     21  C   UNL     1       4.267  14.700  19.340  0.00  0.00    +0.000 A 
ATOM     22  C   UNL     1       4.899  14.750  18.076  0.00  0.00    +0.000 A 
ATOM     23  C   UNL     1       6.266  15.055  17.977  0.00  0.00    +0.000 A 
ATOM     24  C   UNL     1       7.018  15.298  19.120  0.00  0.00    +0.000 A 
ATOM     25  C   UNL     1       6.419  15.227  20.385  0.00  0.00    +0.000 A 
ATOM     26  C   UNL     1       5.041  14.927  20.473  0.00  0.00    +0.000 A 
ATOM     27  S   UNL     1       4.027  14.769  21.856  0.00  0.00    +0.000 S 
ENDBRANCH  12  19
BRANCH  11  28
ATOM     28  N   UNL     1       1.079  12.006  20.800  0.00  0.00    +0.000 N 
ATOM     29  H   UNL     1       1.007  11.265  21.506  0.00  0.00    +0.000 HD
BRANCH  28  30
ATOM     30  C   UNL     1       0.469  11.500  19.550  0.00  0.00    +0.000 C 
ATOM     31  C   UNL     1       0.030  10.046  19.746  0.00  0.00    +0.000 C 
ATOM     32  C   UNL     1       1.130   9.048  19.437  0.00  0.00    +0.000 C 
ATOM     33  C   UNL     1       1.708   9.235  18.045  0.00  0.00    +0.000 C 
ATOM     34  N   UNL     1       2.101  10.587  17.701  0.00  0.00    +0.000 NA
ATOM     35  C   UNL     1       1.363  11.706  18.298  0.00  0.00    +0.000 C 
ATOM     36  H   UNL     1       2.120  10.694  16.686  0.00  0.00    +0.000 HD
ENDBRANCH  28  30
ENDBRANCH  11  28
TORSDOF 3
ENDMDL
MODEL 8
REMARK VINA RESULT:      -6.8      2.308      3.200
REMARK  Name = 
REMARK  4 active torsions:
REMARK  status: ('A' for Active; 'I' for Inactive)
REMARK    1  A    between atoms: C_1  and  N_2
REMARK    2  A    between atoms: C_11  and  N_12
REMARK    3  A    between atoms: N_12  and  C_13
REMARK    4  A    between atoms: C_19  and  C_20
REMARK                            x       y       z     vdW  Elec       q    Type
REMARK                         _______ _______ _______ _____ _____    ______ ____
ROOT
ATOM      1  C   UNL     1      -0.345  18.451  24.974  0.00  0.00    +0.000 C 
ATOM      2  N   UNL     1      -0.464  17.963  23.602  0.00  0.00    +0.000 NA
ATOM      3  C   UNL     1      -1.734  18.339  22.980  0.00  0.00    +0.000 C 
ATOM      4  C   UNL     1      -2.712  17.245  23.377  0.00  0.00    +0.000 C 
ATOM      5  C   UNL     1      -1.863  15.964  23.478  0.00  0.00    +0.000 C 
ATOM      6  C   UNL     1      -2.225  15.133  24.730  0.00  0.00    +0.000 C 
ATOM      7  C   UNL     1      -2.546  13.719  24.235  0.00  0.00    +0.000 C 
ATOM      8  N   UNL     1      -1.941  13.647  22.917  0.00  0.00    +0.000 N 
ATOM      9  C   UNL     1      -1.384  12.560  22.266  0.00  0.00    +0.000 A 
ATOM     10  N   UNL     1      -1.085  12.576  21.009  0.00  0.00    +0.000 NA
ATOM     11  C   UNL     1      -0.461  11.507  20.385  0.00  0.00    +0.000 A 
ATOM     12  C   UNL     1       0.049  10.443  21.082  0.00  0.00    +0.000 A 
ATOM     13  C   UNL     1      -0.255  10.476  22.547  0.00  0.00    +0.000 A 
ATOM     14  O   UNL     1       0.267   9.735  23.377  0.00  0.00    +0.000 OA
ATOM     15  N   UNL     1      -1.141  11.423  22.981  0.00  0.00    +0.000 N 
ATOM     16  C   UNL     1      -2.060  14.974  22.299  0.00  0.00    +0.000 C 
ATOM     17  C   UNL     1      -0.408  16.492  23.521  0.00  0.00    +0.000 C 
ATOM     18  H   UNL     1      -1.303  11.416  23.973  0.00  0.00    +0.000 HD
ENDROOT
BRANCH  12  19
ATOM     19  C   UNL     1       0.800   9.359  20.445  0.00  0.00    +0.000 A 
ATOM     20  N   UNL     1       1.401   9.417  19.257  0.00  0.00    +0.000 NA
ATOM     21  C   UNL     1       2.104   8.249  18.942  0.00  0.00    +0.000 A 
ATOM     22  C   UNL     1       2.865   8.014  17.774  0.00  0.00    +0.000 A 
ATOM     23  C   UNL     1       3.558   6.804  17.609  0.00  0.00    +0.000 A 
ATOM     24  C   UNL     1       3.493   5.817  18.585  0.00  0.00    +0.000 A 
ATOM     25  C   UNL     1       2.722   6.017  19.738  0.00  0.00    +0.000 A 
ATOM     26  C   UNL     1       2.036   7.241  19.898  0.00  0.00    +0.000 A 
ATOM     27  S   UNL     1       1.022   7.784  21.179  0.00  0.00    +0.000 S 
ENDBRANCH  12  19
BRANCH  11  28
ATOM     28  N   UNL     1      -0.332  11.618  18.982  0.00  0.00    +0.000 N 
ATOM     29  H   UNL     1      -1.282  11.716  18.605  0.00  0.00    +0.000 HD
BRANCH  28  30
ATOM     30  C   UNL     1       0.488  12.721  18.434  0.00  0.00    +0.000 C 
ATOM     31  C   UNL     1       1.953  12.518  18.834  0.00  0.00    +0.000 C 
ATOM     32  C   UNL     1       2.290  13.135  20.178  0.00  0.00    +0.000 C 
ATOM     33  C   UNL     1       1.930  14.609  20.246  0.00  0.00    +0.000 C 
ATOM     34  N   UNL     1       0.586  14.951  19.824  0.00  0.00    +0.000 NA
ATOM     35  C   UNL     1      -0.054  14.131  18.789  0.00  0.00    +0.000 C 
ATOM     36  H   UNL     1       0.548  15.934  19.552  0.00  0.00    +0.000 HD
ENDBRANCH  28  30
ENDBRANCH  11  28
TORSDOF 3
ENDMDL
MODEL 9
REMARK VINA RESULT:      -6.8      4.766      8.242
REMARK  Name = 
REMARK  4 active torsions:
REMARK  status: ('A' for Active; 'I' for Inactive)
REMARK    1  A    between atoms: C_1  and  N_2
REMARK    2  A    between atoms: C_11  and  N_12
REMARK    3  A    between atoms: N_12  and  C_13
REMARK    4  A    between atoms: C_19  and  C_20
REMARK                            x       y       z     vdW  Elec       q    Type
REMARK                         _______ _______ _______ _____ _____    ______ ____
ROOT
ATOM      1  C   UNL     1       6.538  16.996  20.337  0.00  0.00    +0.000 C 
ATOM      2  N   UNL     1       5.896  15.683  20.338  0.00  0.00    +0.000 NA
ATOM      3  C   UNL     1       6.284  14.868  19.186  0.00  0.00    +0.000 C 
ATOM      4  C   UNL     1       5.318  15.258  18.079  0.00  0.00    +0.000 C 
ATOM      5  C   UNL     1       4.002  15.609  18.798  0.00  0.00    +0.000 C 
ATOM      6  C   UNL     1       3.357  16.891  18.222  0.00  0.00    +0.000 C 
ATOM      7  C   UNL     1       1.920  16.520  17.842  0.00  0.00    +0.000 C 
ATOM      8  N   UNL     1       1.645  15.306  18.589  0.00  0.00    +0.000 N 
ATOM      9  C   UNL     1       0.450  14.857  19.123  0.00  0.00    +0.000 A 
ATOM     10  N   UNL     1       0.292  13.653  19.567  0.00  0.00    +0.000 NA
ATOM     11  C   UNL     1      -0.887  13.238  20.167  0.00  0.00    +0.000 A 
ATOM     12  C   UNL     1      -1.891  14.108  20.499  0.00  0.00    +0.000 A 
ATOM     13  C   UNL     1      -1.659  15.509  20.029  0.00  0.00    +0.000 A 
ATOM     14  O   UNL     1      -2.328  16.476  20.385  0.00  0.00    +0.000 OA
ATOM     15  N   UNL     1      -0.606  15.720  19.182  0.00  0.00    +0.000 N 
ATOM     16  C   UNL     1       2.892  14.533  18.656  0.00  0.00    +0.000 C 
ATOM     17  C   UNL     1       4.426  15.776  20.277  0.00  0.00    +0.000 C 
ATOM     18  H   UNL     1      -0.480  16.677  18.906  0.00  0.00    +0.000 HD
ENDROOT
BRANCH  12  19
ATOM     19  C   UNL     1      -3.096  13.696  21.224  0.00  0.00    +0.000 A 
ATOM     20  N   UNL     1      -3.155  13.350  22.509  0.00  0.00    +0.000 NA
ATOM     21  C   UNL     1      -4.455  13.074  22.943  0.00  0.00    +0.000 A 
ATOM     22  C   UNL     1      -4.847  12.711  24.252  0.00  0.00    +0.000 A 
ATOM     23  C   UNL     1      -6.202  12.506  24.557  0.00  0.00    +0.000 A 
ATOM     24  C   UNL     1      -7.174  12.644  23.573  0.00  0.00    +0.000 A 
ATOM     25  C   UNL     1      -6.806  12.976  22.262  0.00  0.00    +0.000 A 
ATOM     26  C   UNL     1      -5.441  13.189  21.968  0.00  0.00    +0.000 A 
ATOM     27  S   UNL     1      -4.679  13.601  20.480  0.00  0.00    +0.000 S 
ENDBRANCH  12  19
BRANCH  11  28
ATOM     28  N   UNL     1      -0.957  11.858  20.467  0.00  0.00    +0.000 N 
ATOM     29  H   UNL     1      -0.844  11.356  19.579  0.00  0.00    +0.000 HD
BRANCH  28  30
ATOM     30  C   UNL     1       0.015  11.296  21.432  0.00  0.00    +0.000 C 
ATOM     31  C   UNL     1       0.731  10.099  20.799  0.00  0.00    +0.000 C 
ATOM     32  C   UNL     1      -0.006   8.790  21.007  0.00  0.00    +0.000 C 
ATOM     33  C   UNL     1      -0.292   8.512  22.473  0.00  0.00    +0.000 C 
ATOM     34  N   UNL     1      -0.907   9.595  23.213  0.00  0.00    +0.000 NA
ATOM     35  C   UNL     1      -0.604  10.976  22.818  0.00  0.00    +0.000 C 
ATOM     36  H   UNL     1      -0.727   9.479  24.211  0.00  0.00    +0.000 HD
ENDBRANCH  28  30
ENDBRANCH  11  28
TORSDOF 3
ENDMDL
