MODEL 1
REMARK VINA RESULT:      -8.2      0.000      0.000
REMARK  Name = 
REMARK  4 active torsions:
REMARK  status: ('A' for Active; 'I' for Inactive)
REMARK    1  A    between atoms: C_2  and  C_19
REMARK    2  A    between atoms: N_3  and  C_4
REMARK    3  A    between atoms: C_4  and  C_5
REMARK    4  A    between atoms: C_9  and  C_10
REMARK                            x       y       z     vdW  Elec       q    Type
REMARK                         _______ _______ _______ _____ _____    ______ ____
ROOT
ATOM      1  C   UNL     1       3.496   3.564  19.898  0.00  0.00    +0.000 A 
ATOM      2  C   UNL     1       2.539   2.826  20.605  0.00  0.00    +0.000 A 
ATOM      3  C   UNL     1       1.367   3.435  21.049  0.00  0.00    +0.000 A 
ATOM      4  C   UNL     1       1.147   4.792  20.804  0.00  0.00    +0.000 A 
ATOM      5  C   UNL     1       2.098   5.567  20.124  0.00  0.00    +0.000 A 
ATOM      6  C   UNL     1       3.274   4.939  19.682  0.00  0.00    +0.000 A 
ENDROOT
BRANCH   5   7
ATOM      7  C   UNL     1       1.870   6.985  19.857  0.00  0.00    +0.000 A 
ATOM      8  C   UNL     1       1.306   7.899  20.741  0.00  0.00    +0.000 A 
ATOM      9  N   UNL     1       1.298   9.052  20.050  0.00  0.00    +0.000 N 
ATOM     10  C   UNL     1       1.821   8.852  18.817  0.00  0.00    +0.000 A 
ATOM     11  N   UNL     1       2.189   7.607  18.650  0.00  0.00    +0.000 NA
ATOM     12  C   UNL     1       1.823  10.090  18.016  0.00  0.00    +0.000 C 
ATOM     13  C   UNL     1       1.196  11.131  18.982  0.00  0.00    +0.000 C 
ATOM     14  C   UNL     1       0.872  10.406  20.302  0.00  0.00    +0.000 C 
ENDBRANCH   5   7
BRANCH   1  15
ATOM     15  C   UNL     1       4.717   2.880  19.342  0.00  0.00    +0.000 C 
BRANCH  15  18
ATOM     16  O   UNL     1       6.691   4.663  18.621  0.00  0.00    +0.000 OA
ATOM     17  C   UNL     1       6.042   4.128  17.728  0.00  0.00    +0.000 C 
ATOM     18  N   UNL     1       5.004   3.250  17.974  0.00  0.00    +0.000 N 
ATOM     19  H   UNL     1       4.644   2.659  17.236  0.00  0.00    +0.000 HD
BRANCH  17  20
ATOM     20  C   UNL     1       6.395   4.399  16.318  0.00  0.00    +0.000 A 
ATOM     21  C   UNL     1       5.761   3.683  15.299  0.00  0.00    +0.000 A 
ATOM     22  C   UNL     1       6.120   3.911  13.972  0.00  0.00    +0.000 A 
ATOM     23  C   UNL     1       7.112   4.842  13.713  0.00  0.00    +0.000 A 
ATOM     24  N   UNL     1       7.754   5.544  14.674  0.00  0.00    +0.000 NA
ATOM     25  C   UNL     1       7.386   5.299  15.959  0.00  0.00    +0.000 A 
ENDBRANCH  17  20
ENDBRANCH  15  18
ENDBRANCH   1  15
TORSDOF 4
ENDMDL
MODEL 2
REMARK VINA RESULT:      -8.1      0.541      1.054
REMARK  Name = 
REMARK  4 active torsions:
REMARK  status: ('A' for Active; 'I' for Inactive)
REMARK    1  A    between atoms: C_2  and  C_19
REMARK    2  A    between atoms: N_3  and  C_4
REMARK    3  A    between atoms: C_4  and  C_5
REMARK    4  A    between atoms: C_9  and  C_10
REMARK                            x       y       z     vdW  Elec       q    Type
REMARK                         _______ _______ _______ _____ _____    ______ ____
ROOT
ATOM      1  C   UNL     1       3.514   3.607  19.890  0.00  0.00    +0.000 A 
ATOM      2  C   UNL     1       2.564   2.871  20.609  0.00  0.00    +0.000 A 
ATOM      3  C   UNL     1       1.391   3.479  21.051  0.00  0.00    +0.000 A 
ATOM      4  C   UNL     1       1.163   4.833  20.793  0.00  0.00    +0.000 A 
ATOM      5  C   UNL     1       2.107   5.605  20.100  0.00  0.00    +0.000 A 
ATOM      6  C   UNL     1       3.284   4.978  19.659  0.00  0.00    +0.000 A 
ENDROOT
BRANCH   5   7
ATOM      7  C   UNL     1       1.870   7.019  19.818  0.00  0.00    +0.000 A 
ATOM      8  C   UNL     1       2.208   7.682  18.645  0.00  0.00    +0.000 A 
ATOM      9  N   UNL     1       1.805   8.947  18.861  0.00  0.00    +0.000 N 
ATOM     10  C   UNL     1       1.256   9.048  20.096  0.00  0.00    +0.000 A 
ATOM     11  N   UNL     1       1.269   7.897  20.720  0.00  0.00    +0.000 NA
ATOM     12  C   UNL     1       0.808  10.422  20.384  0.00  0.00    +0.000 C 
ATOM     13  C   UNL     1       1.175  11.188  19.084  0.00  0.00    +0.000 C 
ATOM     14  C   UNL     1       1.822  10.181  18.116  0.00  0.00    +0.000 C 
ENDBRANCH   5   7
BRANCH   1  15
ATOM     15  C   UNL     1       4.736   2.923  19.336  0.00  0.00    +0.000 C 
BRANCH  15  18
ATOM     16  O   UNL     1       6.716   4.688  18.588  0.00  0.00    +0.000 OA
ATOM     17  C   UNL     1       6.057   4.150  17.703  0.00  0.00    +0.000 C 
ATOM     18  N   UNL     1       5.016   3.280  17.963  0.00  0.00    +0.000 N 
ATOM     19  H   UNL     1       4.647   2.685  17.232  0.00  0.00    +0.000 HD
BRANCH  17  20
ATOM     20  C   UNL     1       6.403   4.407  16.289  0.00  0.00    +0.000 A 
ATOM     21  C   UNL     1       5.761   3.683  15.280  0.00  0.00    +0.000 A 
ATOM     22  C   UNL     1       6.113   3.898  13.949  0.00  0.00    +0.000 A 
ATOM     23  C   UNL     1       7.105   4.826  13.675  0.00  0.00    +0.000 A 
ATOM     24  N   UNL     1       7.754   5.535  14.627  0.00  0.00    +0.000 NA
ATOM     25  C   UNL     1       7.393   5.303  15.915  0.00  0.00    +0.000 A 
ENDBRANCH  17  20
ENDBRANCH  15  18
ENDBRANCH   1  15
TORSDOF 4
ENDMDL
MODEL 3
REMARK VINA RESULT:      -7.9      1.238      1.673
REMARK  Name = 
REMARK  4 active torsions:
REMARK  status: ('A' for Active; 'I' for Inactive)
REMARK    1  A    between atoms: C_2  and  C_19
REMARK    2  A    between atoms: N_3  and  C_4
REMARK    3  A    between atoms: C_4  and  C_5
REMARK    4  A    between atoms: C_9  and  C_10
REMARK                            x       y       z     vdW  Elec       q    Type
REMARK                         _______ _______ _______ _____ _____    ______ ____
ROOT
ATOM      1  C   UNL     1       4.923   4.577  18.936  0.00  0.00    +0.000 A 
ATOM      2  C   UNL     1       4.306   3.422  19.434  0.00  0.00    +0.000 A 
ATOM      3  C   UNL     1       3.029   3.490  19.984  0.00  0.00    +0.000 A 
ATOM      4  C   UNL     1       2.360   4.714  20.057  0.00  0.00    +0.000 A 
ATOM      5  C   UNL     1       2.961   5.893  19.593  0.00  0.00    +0.000 A 
ATOM      6  C   UNL     1       4.250   5.810  19.040  0.00  0.00    +0.000 A 
ENDROOT
BRANCH   5   7
ATOM      7  C   UNL     1       2.264   7.176  19.658  0.00  0.00    +0.000 A 
ATOM      8  C   UNL     1       1.594   7.682  20.766  0.00  0.00    +0.000 A 
ATOM      9  N   UNL     1       1.117   8.865  20.341  0.00  0.00    +0.000 N 
ATOM     10  C   UNL     1       1.471   9.066  19.049  0.00  0.00    +0.000 A 
ATOM     11  N   UNL     1       2.176   8.064  18.586  0.00  0.00    +0.000 NA
ATOM     12  C   UNL     1       0.960  10.348  18.534  0.00  0.00    +0.000 C 
ATOM     13  C   UNL     1       0.205  10.938  19.756  0.00  0.00    +0.000 C 
ATOM     14  C   UNL     1       0.338   9.933  20.916  0.00  0.00    +0.000 C 
ENDBRANCH   5   7
BRANCH   1  15
ATOM     15  C   UNL     1       6.266   4.482  18.260  0.00  0.00    +0.000 C 
BRANCH  15  18
ATOM     16  O   UNL     1       7.410   6.087  16.333  0.00  0.00    +0.000 OA
ATOM     17  C   UNL     1       6.816   5.078  15.966  0.00  0.00    +0.000 C 
ATOM     18  N   UNL     1       6.172   4.223  16.840  0.00  0.00    +0.000 N 
ATOM     19  H   UNL     1       5.893   3.298  16.543  0.00  0.00    +0.000 HD
BRANCH  17  20
ATOM     20  C   UNL     1       6.808   4.728  14.530  0.00  0.00    +0.000 A 
ATOM     21  C   UNL     1       5.919   3.756  14.062  0.00  0.00    +0.000 A 
ATOM     22  C   UNL     1       5.937   3.399  12.716  0.00  0.00    +0.000 A 
ATOM     23  C   UNL     1       6.853   4.022  11.884  0.00  0.00    +0.000 A 
ATOM     24  N   UNL     1       7.734   4.958  12.305  0.00  0.00    +0.000 NA
ATOM     25  C   UNL     1       7.697   5.284  13.623  0.00  0.00    +0.000 A 
ENDBRANCH  17  20
ENDBRANCH  15  18
ENDBRANCH   1  15
TORSDOF 4
ENDMDL
MODEL 4
REMARK VINA RESULT:      -7.8      1.300      1.950
REMARK  Name = 
REMARK  4 active torsions:
REMARK  status: ('A' for Active; 'I' for Inactive)
REMARK    1  A    between atoms: C_2  and  C_19
REMARK    2  A    between atoms: N_3  and  C_4
REMARK    3  A    between atoms: C_4  and  C_5
REMARK    4  A    between atoms: C_9  and  C_10
REMARK                            x       y       z     vdW  Elec       q    Type
REMARK                         _______ _______ _______ _____ _____    ______ ____
ROOT
ATOM      1  C   UNL     1       4.819   4.562  18.924  0.00  0.00    +0.000 A 
ATOM      2  C   UNL     1       4.176   3.395  19.356  0.00  0.00    +0.000 A 
ATOM      3  C   UNL     1       2.888   3.455  19.882  0.00  0.00    +0.000 A 
ATOM      4  C   UNL     1       2.234   4.684  19.997  0.00  0.00    +0.000 A 
ATOM      5  C   UNL     1       2.861   5.875  19.600  0.00  0.00    +0.000 A 
ATOM      6  C   UNL     1       4.160   5.798  19.071  0.00  0.00    +0.000 A 
ENDROOT
BRANCH   5   7
ATOM      7  C   UNL     1       2.180   7.163  19.710  0.00  0.00    +0.000 A 
ATOM      8  C   UNL     1       2.022   8.089  18.686  0.00  0.00    +0.000 A 
ATOM      9  N   UNL     1       1.350   9.100  19.266  0.00  0.00    +0.000 N 
ATOM     10  C   UNL     1       1.115   8.807  20.567  0.00  0.00    +0.000 A 
ATOM     11  N   UNL     1       1.599   7.633  20.888  0.00  0.00    +0.000 NA
ATOM     12  C   UNL     1       0.388   9.892  21.249  0.00  0.00    +0.000 C 
ATOM     13  C   UNL     1       0.198  10.945  20.125  0.00  0.00    +0.000 C 
ATOM     14  C   UNL     1       0.842  10.381  18.844  0.00  0.00    +0.000 C 
ENDBRANCH   5   7
BRANCH   1  15
ATOM     15  C   UNL     1       6.175   4.479  18.273  0.00  0.00    +0.000 C 
BRANCH  15  18
ATOM     16  O   UNL     1       7.333   6.089  16.359  0.00  0.00    +0.000 OA
ATOM     17  C   UNL     1       6.758   5.072  15.987  0.00  0.00    +0.000 C 
ATOM     18  N   UNL     1       6.109   4.213  16.853  0.00  0.00    +0.000 N 
ATOM     19  H   UNL     1       5.847   3.282  16.555  0.00  0.00    +0.000 HD
BRANCH  17  20
ATOM     20  C   UNL     1       6.779   4.715  14.552  0.00  0.00    +0.000 A 
ATOM     21  C   UNL     1       5.924   3.717  14.077  0.00  0.00    +0.000 A 
ATOM     22  C   UNL     1       5.971   3.354  12.732  0.00  0.00    +0.000 A 
ATOM     23  C   UNL     1       6.881   3.999  11.911  0.00  0.00    +0.000 A 
ATOM     24  N   UNL     1       7.730   4.960  12.339  0.00  0.00    +0.000 NA
ATOM     25  C   UNL     1       7.666   5.291  13.655  0.00  0.00    +0.000 A 
ENDBRANCH  17  20
ENDBRANCH  15  18
ENDBRANCH   1  15
TORSDOF 4
ENDMDL
MODEL 5
REMARK VINA RESULT:      -7.6      3.738      8.553
REMARK  Name = 
REMARK  4 active torsions:
REMARK  status: ('A' for Active; 'I' for Inactive)
REMARK    1  A    between atoms: C_2  and  C_19
REMARK    2  A    between atoms: N_3  and  C_4
REMARK    3  A    between atoms: C_4  and  C_5
REMARK    4  A    between atoms: C_9  and  C_10
REMARK                            x       y       z     vdW  Elec       q    Type
REMARK                         _______ _______ _______ _____ _____    ______ ____
ROOT
ATOM      1  C   UNL     1       1.682   8.997  18.960  0.00  0.00    +0.000 A 
ATOM      2  C   UNL     1       1.311   8.462  20.200  0.00  0.00    +0.000 A 
ATOM      3  C   UNL     1       1.757   7.200  20.583  0.00  0.00    +0.000 A 
ATOM      4  C   UNL     1       2.567   6.452  19.725  0.00  0.00    +0.000 A 
ATOM      5  C   UNL     1       2.934   6.947  18.464  0.00  0.00    +0.000 A 
ATOM      6  C   UNL     1       2.476   8.222  18.092  0.00  0.00    +0.000 A 
ENDROOT
BRANCH   5   7
ATOM      7  C   UNL     1       3.788   6.174  17.565  0.00  0.00    +0.000 A 
ATOM      8  C   UNL     1       3.886   4.788  17.528  0.00  0.00    +0.000 A 
ATOM      9  N   UNL     1       4.790   4.554  16.560  0.00  0.00    +0.000 N 
ATOM     10  C   UNL     1       5.219   5.729  16.041  0.00  0.00    +0.000 A 
ATOM     11  N   UNL     1       4.635   6.749  16.618  0.00  0.00    +0.000 NA
ATOM     12  C   UNL     1       6.222   5.524  14.981  0.00  0.00    +0.000 C 
ATOM     13  C   UNL     1       6.352   3.978  14.918  0.00  0.00    +0.000 C 
ATOM     14  C   UNL     1       5.393   3.387  15.968  0.00  0.00    +0.000 C 
ENDBRANCH   5   7
BRANCH   1  15
ATOM     15  C   UNL     1       1.271  10.398  18.590  0.00  0.00    +0.000 C 
BRANCH  15  18
ATOM     16  O   UNL     1      -1.081  11.060  19.865  0.00  0.00    +0.000 OA
ATOM     17  C   UNL     1      -1.121  10.837  18.659  0.00  0.00    +0.000 C 
ATOM     18  N   UNL     1      -0.012  10.459  17.926  0.00  0.00    +0.000 N 
ATOM     19  H   UNL     1      -0.023  10.504  16.915  0.00  0.00    +0.000 HD
BRANCH  17  20
ATOM     20  C   UNL     1      -2.398  11.009  17.935  0.00  0.00    +0.000 A 
ATOM     21  C   UNL     1      -2.494  10.607  16.600  0.00  0.00    +0.000 A 
ATOM     22  C   UNL     1      -3.686  10.803  15.906  0.00  0.00    +0.000 A 
ATOM     23  C   UNL     1      -4.740  11.406  16.572  0.00  0.00    +0.000 A 
ATOM     24  N   UNL     1      -4.679  11.818  17.859  0.00  0.00    +0.000 NA
ATOM     25  C   UNL     1      -3.504  11.617  18.510  0.00  0.00    +0.000 A 
ENDBRANCH  17  20
ENDBRANCH  15  18
ENDBRANCH   1  15
TORSDOF 4
ENDMDL
MODEL 6
REMARK VINA RESULT:      -7.6      1.932      7.766
REMARK  Name = 
REMARK  4 active torsions:
REMARK  status: ('A' for Active; 'I' for Inactive)
REMARK    1  A    between atoms: C_2  and  C_19
REMARK    2  A    between atoms: N_3  and  C_4
REMARK    3  A    between atoms: C_4  and  C_5
REMARK    4  A    between atoms: C_9  and  C_10
REMARK                            x       y       z     vdW  Elec       q    Type
REMARK                         _______ _______ _______ _____ _____    ______ ____
ROOT
ATOM      1  C   UNL     1       5.084   4.918  19.001  0.00  0.00    +0.000 A 
ATOM      2  C   UNL     1       6.179   5.367  19.750  0.00  0.00    +0.000 A 
ATOM      3  C   UNL     1       7.401   5.614  19.129  0.00  0.00    +0.000 A 
ATOM      4  C   UNL     1       7.546   5.401  17.756  0.00  0.00    +0.000 A 
ATOM      5  C   UNL     1       6.477   4.925  16.983  0.00  0.00    +0.000 A 
ATOM      6  C   UNL     1       5.251   4.681  17.622  0.00  0.00    +0.000 A 
ENDROOT
BRANCH   5   7
ATOM      7  C   UNL     1       6.620   4.708  15.545  0.00  0.00    +0.000 A 
ATOM      8  C   UNL     1       5.948   3.749  14.796  0.00  0.00    +0.000 A 
ATOM      9  N   UNL     1       6.412   3.931  13.547  0.00  0.00    +0.000 N 
ATOM     10  C   UNL     1       7.315   4.940  13.536  0.00  0.00    +0.000 A 
ATOM     11  N   UNL     1       7.476   5.451  14.731  0.00  0.00    +0.000 NA
ATOM     12  C   UNL     1       7.860   5.171  12.187  0.00  0.00    +0.000 C 
ATOM     13  C   UNL     1       7.125   4.109  11.327  0.00  0.00    +0.000 C 
ATOM     14  C   UNL     1       6.185   3.323  12.260  0.00  0.00    +0.000 C 
ENDBRANCH   5   7
BRANCH   1  15
ATOM     15  C   UNL     1       3.741   4.740  19.661  0.00  0.00    +0.000 C 
BRANCH  15  18
ATOM     16  O   UNL     1       2.334   6.505  18.079  0.00  0.00    +0.000 OA
ATOM     17  C   UNL     1       2.460   6.771  19.270  0.00  0.00    +0.000 C 
ATOM     18  N   UNL     1       3.177   5.980  20.147  0.00  0.00    +0.000 N 
ATOM     19  H   UNL     1       3.075   6.095  21.147  0.00  0.00    +0.000 HD
BRANCH  17  20
ATOM     20  C   UNL     1       1.791   7.971  19.816  0.00  0.00    +0.000 A 
ATOM     21  C   UNL     1       1.368   7.978  21.148  0.00  0.00    +0.000 A 
ATOM     22  C   UNL     1       0.704   9.095  21.652  0.00  0.00    +0.000 A 
ATOM     23  C   UNL     1       0.477  10.163  20.800  0.00  0.00    +0.000 A 
ATOM     24  N   UNL     1       0.862  10.185  19.504  0.00  0.00    +0.000 NA
ATOM     25  C   UNL     1       1.504   9.082  19.038  0.00  0.00    +0.000 A 
ENDBRANCH  17  20
ENDBRANCH  15  18
ENDBRANCH   1  15
TORSDOF 4
ENDMDL
MODEL 7
REMARK VINA RESULT:      -7.6      1.478      2.286
REMARK  Name = 
REMARK  4 active torsions:
REMARK  status: ('A' for Active; 'I' for Inactive)
REMARK    1  A    between atoms: C_2  and  C_19
REMARK    2  A    between atoms: N_3  and  C_4
REMARK    3  A    between atoms: C_4  and  C_5
REMARK    4  A    between atoms: C_9  and  C_10
REMARK                            x       y       z     vdW  Elec       q    Type
REMARK                         _______ _______ _______ _____ _____    ______ ____
ROOT
ATOM      1  C   UNL     1       4.951   4.576  18.803  0.00  0.00    +0.000 A 
ATOM      2  C   UNL     1       4.296   3.351  18.981  0.00  0.00    +0.000 A 
ATOM      3  C   UNL     1       2.966   3.318  19.395  0.00  0.00    +0.000 A 
ATOM      4  C   UNL     1       2.282   4.509  19.650  0.00  0.00    +0.000 A 
ATOM      5  C   UNL     1       2.917   5.751  19.509  0.00  0.00    +0.000 A 
ATOM      6  C   UNL     1       4.258   5.769  19.090  0.00  0.00    +0.000 A 
ENDROOT
BRANCH   5   7
ATOM      7  C   UNL     1       2.204   7.001  19.766  0.00  0.00    +0.000 A 
ATOM      8  C   UNL     1       2.067   8.058  18.874  0.00  0.00    +0.000 A 
ATOM      9  N   UNL     1       1.351   8.967  19.558  0.00  0.00    +0.000 N 
ATOM     10  C   UNL     1       1.072   8.493  20.796  0.00  0.00    +0.000 A 
ATOM     11  N   UNL     1       1.568   7.294  20.972  0.00  0.00    +0.000 NA
ATOM     12  C   UNL     1       0.295   9.462  21.589  0.00  0.00    +0.000 C 
ATOM     13  C   UNL     1       0.126  10.657  20.613  0.00  0.00    +0.000 C 
ATOM     14  C   UNL     1       0.832  10.286  19.295  0.00  0.00    +0.000 C 
ENDBRANCH   5   7
BRANCH   1  15
ATOM     15  C   UNL     1       6.358   4.608  18.268  0.00  0.00    +0.000 C 
BRANCH  15  18
ATOM     16  O   UNL     1       6.223   6.343  16.131  0.00  0.00    +0.000 OA
ATOM     17  C   UNL     1       6.406   5.152  15.898  0.00  0.00    +0.000 C 
ATOM     18  N   UNL     1       6.452   4.189  16.887  0.00  0.00    +0.000 N 
ATOM     19  H   UNL     1       6.826   3.269  16.694  0.00  0.00    +0.000 HD
BRANCH  17  20
ATOM     20  C   UNL     1       6.625   4.716  14.502  0.00  0.00    +0.000 A 
ATOM     21  C   UNL     1       7.583   5.365  13.719  0.00  0.00    +0.000 A 
ATOM     22  C   UNL     1       7.763   4.980  12.392  0.00  0.00    +0.000 A 
ATOM     23  C   UNL     1       6.968   3.962  11.892  0.00  0.00    +0.000 A 
ATOM     24  N   UNL     1       6.024   3.320  12.617  0.00  0.00    +0.000 NA
ATOM     25  C   UNL     1       5.867   3.718  13.906  0.00  0.00    +0.000 A 
ENDBRANCH  17  20
ENDBRANCH  15  18
ENDBRANCH   1  15
TORSDOF 4
ENDMDL
MODEL 8
REMARK VINA RESULT:      -7.5      4.103      8.989
REMARK  Name = 
REMARK  4 active torsions:
REMARK  status: ('A' for Active; 'I' for Inactive)
REMARK    1  A    between atoms: C_2  and  C_19
REMARK    2  A    between atoms: N_3  and  C_4
REMARK    3  A    between atoms: C_4  and  C_5
REMARK    4  A    between atoms: C_9  and  C_10
REMARK                            x       y       z     vdW  Elec       q    Type
REMARK                         _______ _______ _______ _____ _____    ______ ____
ROOT
ATOM      1  C   UNL     1       1.113   9.641  19.202  0.00  0.00    +0.000 A 
ATOM      2  C   UNL     1       0.773   9.249  20.503  0.00  0.00    +0.000 A 
ATOM      3  C   UNL     1       1.241   8.043  21.019  0.00  0.00    +0.000 A 
ATOM      4  C   UNL     1       2.042   7.209  20.236  0.00  0.00    +0.000 A 
ATOM      5  C   UNL     1       2.378   7.559  18.920  0.00  0.00    +0.000 A 
ATOM      6  C   UNL     1       1.899   8.778  18.413  0.00  0.00    +0.000 A 
ENDROOT
BRANCH   5   7
ATOM      7  C   UNL     1       3.223   6.695  18.098  0.00  0.00    +0.000 A 
ATOM      8  C   UNL     1       4.180   7.124  17.185  0.00  0.00    +0.000 A 
ATOM      9  N   UNL     1       4.678   5.981  16.680  0.00  0.00    +0.000 N 
ATOM     10  C   UNL     1       4.058   4.920  17.248  0.00  0.00    +0.000 A 
ATOM     11  N   UNL     1       3.162   5.302  18.125  0.00  0.00    +0.000 NA
ATOM     12  C   UNL     1       4.564   3.642  16.717  0.00  0.00    +0.000 C 
ATOM     13  C   UNL     1       5.638   4.092  15.691  0.00  0.00    +0.000 C 
ATOM     14  C   UNL     1       5.679   5.631  15.704  0.00  0.00    +0.000 C 
ENDBRANCH   5   7
BRANCH   1  15
ATOM     15  C   UNL     1       0.679  10.986  18.682  0.00  0.00    +0.000 C 
BRANCH  15  18
ATOM     16  O   UNL     1      -1.503  11.854  20.126  0.00  0.00    +0.000 OA
ATOM     17  C   UNL     1      -1.686  11.480  18.971  0.00  0.00    +0.000 C 
ATOM     18  N   UNL     1      -0.673  10.989  18.169  0.00  0.00    +0.000 N 
ATOM     19  H   UNL     1      -0.803  10.907  17.169  0.00  0.00    +0.000 HD
BRANCH  17  20
ATOM     20  C   UNL     1      -3.038  11.586  18.385  0.00  0.00    +0.000 A 
ATOM     21  C   UNL     1      -3.240  11.230  17.048  0.00  0.00    +0.000 A 
ATOM     22  C   UNL     1      -4.507  11.366  16.484  0.00  0.00    +0.000 A 
ATOM     23  C   UNL     1      -5.528  11.863  17.277  0.00  0.00    +0.000 A 
ATOM     24  N   UNL     1      -5.366  12.227  18.570  0.00  0.00    +0.000 NA
ATOM     25  C   UNL     1      -4.120  12.088  19.093  0.00  0.00    +0.000 A 
ENDBRANCH  17  20
ENDBRANCH  15  18
ENDBRANCH   1  15
TORSDOF 4
ENDMDL
MODEL 9
REMARK VINA RESULT:      -7.4      3.601      4.803
REMARK  Name = 
REMARK  4 active torsions:
REMARK  status: ('A' for Active; 'I' for Inactive)
REMARK    1  A    between atoms: C_2  and  C_19
REMARK    2  A    between atoms: N_3  and  C_4
REMARK    3  A    between atoms: C_4  and  C_5
REMARK    4  A    between atoms: C_9  and  C_10
REMARK                            x       y       z     vdW  Elec       q    Type
REMARK                         _______ _______ _______ _____ _____    ______ ____
ROOT
ATOM      1  C   UNL     1       5.620   5.894  17.056  0.00  0.00    +0.000 A 
ATOM      2  C   UNL     1       5.164   4.587  16.848  0.00  0.00    +0.000 A 
ATOM      3  C   UNL     1       3.855   4.239  17.173  0.00  0.00    +0.000 A 
ATOM      4  C   UNL     1       2.992   5.190  17.724  0.00  0.00    +0.000 A 
ATOM      5  C   UNL     1       3.426   6.500  17.971  0.00  0.00    +0.000 A 
ATOM      6  C   UNL     1       4.749   6.837  17.638  0.00  0.00    +0.000 A 
ENDROOT
BRANCH   5   7
ATOM      7  C   UNL     1       2.527   7.502  18.539  0.00  0.00    +0.000 A 
ATOM      8  C   UNL     1       1.980   8.584  17.858  0.00  0.00    +0.000 A 
ATOM      9  N   UNL     1       1.240   9.211  18.790  0.00  0.00    +0.000 N 
ATOM     10  C   UNL     1       1.334   8.552  19.969  0.00  0.00    +0.000 A 
ATOM     11  N   UNL     1       2.106   7.499  19.869  0.00  0.00    +0.000 NA
ATOM     12  C   UNL     1       0.546   9.210  21.027  0.00  0.00    +0.000 C 
ATOM     13  C   UNL     1      -0.078  10.426  20.291  0.00  0.00    +0.000 C 
ATOM     14  C   UNL     1       0.403  10.383  18.828  0.00  0.00    +0.000 C 
ENDBRANCH   5   7
BRANCH   1  15
ATOM     15  C   UNL     1       7.007   6.288  16.619  0.00  0.00    +0.000 C 
BRANCH  15  18
ATOM     16  O   UNL     1       8.421   7.104  18.840  0.00  0.00    +0.000 OA
ATOM     17  C   UNL     1       8.070   7.958  18.033  0.00  0.00    +0.000 C 
ATOM     18  N   UNL     1       7.324   7.670  16.906  0.00  0.00    +0.000 N 
ATOM     19  H   UNL     1       7.246   8.341  16.154  0.00  0.00    +0.000 HD
BRANCH  17  20
ATOM     20  C   UNL     1       8.484   9.362  18.242  0.00  0.00    +0.000 A 
ATOM     21  C   UNL     1       9.329   9.679  19.309  0.00  0.00    +0.000 A 
ATOM     22  C   UNL     1       9.690  11.006  19.530  0.00  0.00    +0.000 A 
ATOM     23  C   UNL     1       9.183  11.973  18.678  0.00  0.00    +0.000 A 
ATOM     24  N   UNL     1       8.355  11.704  17.643  0.00  0.00    +0.000 NA
ATOM     25  C   UNL     1       8.016  10.402  17.454  0.00  0.00    +0.000 A 
ENDBRANCH  17  20
ENDBRANCH  15  18
ENDBRANCH   1  15
TORSDOF 4
ENDMDL
