MODEL 1
REMARK VINA RESULT:      -8.9      0.000      0.000
REMARK  Name = 
REMARK  4 active torsions:
REMARK  status: ('A' for Active; 'I' for Inactive)
REMARK    1  A    between atoms: C_1  and  C_2
REMARK    2  A    between atoms: C_5  and  C_6
REMARK    3  A    between atoms: C_10  and  O_11
REMARK    4  A    between atoms: C_20  and  O_21
REMARK                            x       y       z     vdW  Elec       q    Type
REMARK                         _______ _______ _______ _____ _____    ______ ____
ROOT
ATOM      1  C   UNL     1       3.175   3.015  17.427  0.00  0.00    +0.000 C 
ATOM      2  C   UNL     1       2.196   3.658  18.431  0.00  0.00    +0.000 C 
ATOM      3  C   UNL     1       1.613   4.960  17.827  0.00  0.00    +0.000 C 
ATOM      4  C   UNL     1       2.284   6.263  18.283  0.00  0.00    +0.000 C 
ATOM      5  C   UNL     1       3.709   6.120  18.856  0.00  0.00    +0.000 C 
ATOM      6  C   UNL     1       3.574   5.202  20.086  0.00  0.00    +0.000 C 
ATOM      7  C   UNL     1       2.803   3.893  19.840  0.00  0.00    +0.000 C 
ATOM      8  C   UNL     1       1.605   3.778  20.811  0.00  0.00    +0.000 C 
ATOM      9  C   UNL     1       0.485   3.048  20.076  0.00  0.00    +0.000 C 
ATOM     10  C   UNL     1       1.073   2.626  18.740  0.00  0.00    +0.000 C 
ENDROOT
BRANCH   5  11
ATOM     11  C   UNL     1       4.851   5.803  17.893  0.00  0.00    +0.000 A 
ATOM     12  C   UNL     1       4.710   5.975  16.501  0.00  0.00    +0.000 A 
ATOM     13  C   UNL     1       5.723   5.599  15.618  0.00  0.00    +0.000 A 
ATOM     14  F   UNL     1       5.545   5.767  14.300  0.00  0.00    +0.000 F 
ATOM     15  C   UNL     1       6.904   5.038  16.079  0.00  0.00    +0.000 A 
ATOM     16  C   UNL     1       7.074   4.863  17.441  0.00  0.00    +0.000 A 
ATOM     17  F   UNL     1       8.208   4.325  17.916  0.00  0.00    +0.000 F 
ATOM     18  C   UNL     1       6.060   5.228  18.333  0.00  0.00    +0.000 A 
ATOM     19  F   UNL     1       6.270   5.001  19.636  0.00  0.00    +0.000 F 
BRANCH  15  20
ATOM     20  O   UNL     1       7.873   4.642  15.199  0.00  0.00    +0.000 OA
ATOM     21  H   UNL     1       7.661   3.732  14.917  0.00  0.00    +0.000 HD
ENDBRANCH  15  20
ENDBRANCH   5  11
BRANCH  10  22
ATOM     22  O   UNL     1       1.582   1.298  18.868  0.00  0.00    +0.000 OA
ATOM     23  H   UNL     1       2.509   1.347  19.155  0.00  0.00    +0.000 HD
ENDBRANCH  10  22
TORSDOF 3
ENDMDL
MODEL 2
REMARK VINA RESULT:      -8.1      1.842      2.179
REMARK  Name = 
REMARK  4 active torsions:
REMARK  status: ('A' for Active; 'I' for Inactive)
REMARK    1  A    between atoms: C_1  and  C_2
REMARK    2  A    between atoms: C_5  and  C_6
REMARK    3  A    between atoms: C_10  and  O_11
REMARK    4  A    between atoms: C_20  and  O_21
REMARK                            x       y       z     vdW  Elec       q    Type
REMARK                         _______ _______ _______ _____ _____    ______ ____
ROOT
ATOM      1  C   UNL     1       4.445   2.933  19.193  0.00  0.00    +0.000 C 
ATOM      2  C   UNL     1       2.975   3.125  19.618  0.00  0.00    +0.000 C 
ATOM      3  C   UNL     1       2.045   2.848  18.410  0.00  0.00    +0.000 C 
ATOM      4  C   UNL     1       1.553   4.089  17.653  0.00  0.00    +0.000 C 
ATOM      5  C   UNL     1       2.393   5.368  17.841  0.00  0.00    +0.000 C 
ATOM      6  C   UNL     1       2.341   5.683  19.348  0.00  0.00    +0.000 C 
ATOM      7  C   UNL     1       2.682   4.501  20.273  0.00  0.00    +0.000 C 
ATOM      8  C   UNL     1       1.521   4.231  21.258  0.00  0.00    +0.000 C 
ATOM      9  C   UNL     1       1.476   2.728  21.516  0.00  0.00    +0.000 C 
ATOM     10  C   UNL     1       2.680   2.148  20.793  0.00  0.00    +0.000 C 
ENDROOT
BRANCH   5  11
ATOM     11  C   UNL     1       3.767   5.440  17.179  0.00  0.00    +0.000 A 
ATOM     12  C   UNL     1       4.287   4.355  16.443  0.00  0.00    +0.000 A 
ATOM     13  C   UNL     1       5.579   4.391  15.916  0.00  0.00    +0.000 A 
ATOM     14  F   UNL     1       6.042   3.334  15.233  0.00  0.00    +0.000 F 
ATOM     15  C   UNL     1       6.399   5.493  16.102  0.00  0.00    +0.000 A 
ATOM     16  C   UNL     1       5.914   6.575  16.815  0.00  0.00    +0.000 A 
ATOM     17  F   UNL     1       6.685   7.656  17.008  0.00  0.00    +0.000 F 
ATOM     18  C   UNL     1       4.624   6.546  17.354  0.00  0.00    +0.000 A 
ATOM     19  F   UNL     1       4.224   7.609  18.064  0.00  0.00    +0.000 F 
BRANCH  15  20
ATOM     20  O   UNL     1       7.675   5.498  15.610  0.00  0.00    +0.000 OA
ATOM     21  H   UNL     1       7.958   6.428  15.534  0.00  0.00    +0.000 HD
ENDBRANCH  15  20
ENDBRANCH   5  11
BRANCH  10  22
ATOM     22  O   UNL     1       3.768   2.070  21.714  0.00  0.00    +0.000 OA
ATOM     23  H   UNL     1       4.558   2.447  21.295  0.00  0.00    +0.000 HD
ENDBRANCH  10  22
TORSDOF 3
ENDMDL
MODEL 3
REMARK VINA RESULT:      -8.1      1.007      2.076
REMARK  Name = 
REMARK  4 active torsions:
REMARK  status: ('A' for Active; 'I' for Inactive)
REMARK    1  A    between atoms: C_1  and  C_2
REMARK    2  A    between atoms: C_5  and  C_6
REMARK    3  A    between atoms: C_10  and  O_11
REMARK    4  A    between atoms: C_20  and  O_21
REMARK                            x       y       z     vdW  Elec       q    Type
REMARK                         _______ _______ _______ _____ _____    ______ ____
ROOT
ATOM      1  C   UNL     1       2.761   3.308  17.348  0.00  0.00    +0.000 C 
ATOM      2  C   UNL     1       2.083   3.733  18.667  0.00  0.00    +0.000 C 
ATOM      3  C   UNL     1       1.624   5.209  18.563  0.00  0.00    +0.000 C 
ATOM      4  C   UNL     1       2.564   6.242  19.199  0.00  0.00    +0.000 C 
ATOM      5  C   UNL     1       4.023   5.787  19.404  0.00  0.00    +0.000 C 
ATOM      6  C   UNL     1       3.952   4.572  20.348  0.00  0.00    +0.000 C 
ATOM      7  C   UNL     1       2.949   3.481  19.930  0.00  0.00    +0.000 C 
ATOM      8  C   UNL     1       1.930   3.219  21.063  0.00  0.00    +0.000 C 
ATOM      9  C   UNL     1       0.599   2.858  20.410  0.00  0.00    +0.000 C 
ATOM     10  C   UNL     1       0.877   2.783  18.918  0.00  0.00    +0.000 C 
ENDROOT
BRANCH   5  11
ATOM     11  C   UNL     1       4.920   5.643  18.177  0.00  0.00    +0.000 A 
ATOM     12  C   UNL     1       6.103   4.876  18.215  0.00  0.00    +0.000 A 
ATOM     13  C   UNL     1       6.966   4.821  17.120  0.00  0.00    +0.000 A 
ATOM     14  F   UNL     1       8.087   4.091  17.201  0.00  0.00    +0.000 F 
ATOM     15  C   UNL     1       6.693   5.523  15.957  0.00  0.00    +0.000 A 
ATOM     16  C   UNL     1       5.537   6.279  15.887  0.00  0.00    +0.000 A 
ATOM     17  F   UNL     1       5.246   6.967  14.772  0.00  0.00    +0.000 F 
ATOM     18  C   UNL     1       4.670   6.348  16.982  0.00  0.00    +0.000 A 
ATOM     19  F   UNL     1       3.585   7.125  16.866  0.00  0.00    +0.000 F 
BRANCH  15  20
ATOM     20  O   UNL     1       7.567   5.487  14.905  0.00  0.00    +0.000 OA
ATOM     21  H   UNL     1       7.083   5.779  14.109  0.00  0.00    +0.000 HD
ENDBRANCH  15  20
ENDBRANCH   5  11
BRANCH  10  22
ATOM     22  O   UNL     1       1.178   1.428  18.582  0.00  0.00    +0.000 OA
ATOM     23  H   UNL     1       0.903   0.856  19.317  0.00  0.00    +0.000 HD
ENDBRANCH  10  22
TORSDOF 3
ENDMDL
MODEL 4
REMARK VINA RESULT:      -8.0      1.756      2.342
REMARK  Name = 
REMARK  4 active torsions:
REMARK  status: ('A' for Active; 'I' for Inactive)
REMARK    1  A    between atoms: C_1  and  C_2
REMARK    2  A    between atoms: C_5  and  C_6
REMARK    3  A    between atoms: C_10  and  O_11
REMARK    4  A    between atoms: C_20  and  O_21
REMARK                            x       y       z     vdW  Elec       q    Type
REMARK                         _______ _______ _______ _____ _____    ______ ____
ROOT
ATOM      1  C   UNL     1       4.408   2.915  19.264  0.00  0.00    +0.000 C 
ATOM      2  C   UNL     1       2.944   3.224  19.638  0.00  0.00    +0.000 C 
ATOM      3  C   UNL     1       2.039   3.035  18.395  0.00  0.00    +0.000 C 
ATOM      4  C   UNL     1       1.678   4.318  17.635  0.00  0.00    +0.000 C 
ATOM      5  C   UNL     1       2.614   5.523  17.868  0.00  0.00    +0.000 C 
ATOM      6  C   UNL     1       2.533   5.828  19.375  0.00  0.00    +0.000 C 
ATOM      7  C   UNL     1       2.741   4.613  20.298  0.00  0.00    +0.000 C 
ATOM      8  C   UNL     1       1.527   4.432  21.238  0.00  0.00    +0.000 C 
ATOM      9  C   UNL     1       1.349   2.936  21.477  0.00  0.00    +0.000 C 
ATOM     10  C   UNL     1       2.527   2.265  20.790  0.00  0.00    +0.000 C 
ENDROOT
BRANCH   5  11
ATOM     11  C   UNL     1       4.012   5.486  17.256  0.00  0.00    +0.000 A 
ATOM     12  C   UNL     1       4.964   6.490  17.533  0.00  0.00    +0.000 A 
ATOM     13  C   UNL     1       6.208   6.502  16.902  0.00  0.00    +0.000 A 
ATOM     14  F   UNL     1       7.080   7.480  17.184  0.00  0.00    +0.000 F 
ATOM     15  C   UNL     1       6.551   5.531  15.974  0.00  0.00    +0.000 A 
ATOM     16  C   UNL     1       5.641   4.530  15.686  0.00  0.00    +0.000 A 
ATOM     17  F   UNL     1       5.947   3.576  14.794  0.00  0.00    +0.000 F 
ATOM     18  C   UNL     1       4.387   4.514  16.307  0.00  0.00    +0.000 A 
ATOM     19  F   UNL     1       3.536   3.540  15.959  0.00  0.00    +0.000 F 
BRANCH  15  20
ATOM     20  O   UNL     1       7.761   5.577  15.338  0.00  0.00    +0.000 OA
ATOM     21  H   UNL     1       8.436   5.807  16.004  0.00  0.00    +0.000 HD
ENDBRANCH  15  20
ENDBRANCH   5  11
BRANCH  10  22
ATOM     22  O   UNL     1       3.570   2.089  21.749  0.00  0.00    +0.000 OA
ATOM     23  H   UNL     1       3.210   2.258  22.636  0.00  0.00    +0.000 HD
ENDBRANCH  10  22
TORSDOF 3
ENDMDL
MODEL 5
REMARK VINA RESULT:      -8.0      2.000      2.863
REMARK  Name = 
REMARK  4 active torsions:
REMARK  status: ('A' for Active; 'I' for Inactive)
REMARK    1  A    between atoms: C_1  and  C_2
REMARK    2  A    between atoms: C_5  and  C_6
REMARK    3  A    between atoms: C_10  and  O_11
REMARK    4  A    between atoms: C_20  and  O_21
REMARK                            x       y       z     vdW  Elec       q    Type
REMARK                         _______ _______ _______ _____ _____    ______ ____
ROOT
ATOM      1  C   UNL     1       4.360   4.004  20.073  0.00  0.00    +0.000 C 
ATOM      2  C   UNL     1       3.052   3.206  19.893  0.00  0.00    +0.000 C 
ATOM      3  C   UNL     1       3.307   1.996  18.961  0.00  0.00    +0.000 C 
ATOM      4  C   UNL     1       2.900   2.189  17.494  0.00  0.00    +0.000 C 
ATOM      5  C   UNL     1       2.770   3.652  17.021  0.00  0.00    +0.000 C 
ATOM      6  C   UNL     1       1.673   4.279  17.902  0.00  0.00    +0.000 C 
ATOM      7  C   UNL     1       1.851   4.065  19.416  0.00  0.00    +0.000 C 
ATOM      8  C   UNL     1       0.606   3.372  20.016  0.00  0.00    +0.000 C 
ATOM      9  C   UNL     1       1.082   2.474  21.154  0.00  0.00    +0.000 C 
ATOM     10  C   UNL     1       2.570   2.746  21.299  0.00  0.00    +0.000 C 
ENDROOT
BRANCH   5  11
ATOM     11  C   UNL     1       4.044   4.472  16.835  0.00  0.00    +0.000 A 
ATOM     12  C   UNL     1       5.246   3.878  16.398  0.00  0.00    +0.000 A 
ATOM     13  C   UNL     1       6.430   4.613  16.317  0.00  0.00    +0.000 A 
ATOM     14  F   UNL     1       7.554   4.008  15.909  0.00  0.00    +0.000 F 
ATOM     15  C   UNL     1       6.467   5.953  16.669  0.00  0.00    +0.000 A 
ATOM     16  C   UNL     1       5.302   6.565  17.095  0.00  0.00    +0.000 A 
ATOM     17  F   UNL     1       5.308   7.862  17.439  0.00  0.00    +0.000 F 
ATOM     18  C   UNL     1       4.112   5.835  17.188  0.00  0.00    +0.000 A 
ATOM     19  F   UNL     1       3.027   6.475  17.641  0.00  0.00    +0.000 F 
BRANCH  15  20
ATOM     20  O   UNL     1       7.642   6.650  16.618  0.00  0.00    +0.000 OA
ATOM     21  H   UNL     1       8.313   6.134  17.104  0.00  0.00    +0.000 HD
ENDBRANCH  15  20
ENDBRANCH   5  11
BRANCH  10  22
ATOM     22  O   UNL     1       2.751   3.758  22.290  0.00  0.00    +0.000 OA
ATOM     23  H   UNL     1       2.080   3.639  22.982  0.00  0.00    +0.000 HD
ENDBRANCH  10  22
TORSDOF 3
ENDMDL
MODEL 6
REMARK VINA RESULT:      -7.8      1.918      2.731
REMARK  Name = 
REMARK  4 active torsions:
REMARK  status: ('A' for Active; 'I' for Inactive)
REMARK    1  A    between atoms: C_1  and  C_2
REMARK    2  A    between atoms: C_5  and  C_6
REMARK    3  A    between atoms: C_10  and  O_11
REMARK    4  A    between atoms: C_20  and  O_21
REMARK                            x       y       z     vdW  Elec       q    Type
REMARK                         _______ _______ _______ _____ _____    ______ ____
ROOT
ATOM      1  C   UNL     1       4.371   4.008  20.189  0.00  0.00    +0.000 C 
ATOM      2  C   UNL     1       3.070   3.231  19.899  0.00  0.00    +0.000 C 
ATOM      3  C   UNL     1       3.374   2.047  18.948  0.00  0.00    +0.000 C 
ATOM      4  C   UNL     1       3.066   2.290  17.465  0.00  0.00    +0.000 C 
ATOM      5  C   UNL     1       2.980   3.768  17.030  0.00  0.00    +0.000 C 
ATOM      6  C   UNL     1       1.834   4.380  17.857  0.00  0.00    +0.000 C 
ATOM      7  C   UNL     1       1.911   4.117  19.372  0.00  0.00    +0.000 C 
ATOM      8  C   UNL     1       0.623   3.420  19.868  0.00  0.00    +0.000 C 
ATOM      9  C   UNL     1       1.015   2.482  21.005  0.00  0.00    +0.000 C 
ATOM     10  C   UNL     1       2.493   2.732  21.256  0.00  0.00    +0.000 C 
ENDROOT
BRANCH   5  11
ATOM     11  C   UNL     1       4.271   4.580  16.954  0.00  0.00    +0.000 A 
ATOM     12  C   UNL     1       4.323   5.923  17.381  0.00  0.00    +0.000 A 
ATOM     13  C   UNL     1       5.479   6.689  17.225  0.00  0.00    +0.000 A 
ATOM     14  F   UNL     1       5.484   7.966  17.632  0.00  0.00    +0.000 F 
ATOM     15  C   UNL     1       6.618   6.157  16.640  0.00  0.00    +0.000 A 
ATOM     16  C   UNL     1       6.599   4.839  16.218  0.00  0.00    +0.000 A 
ATOM     17  F   UNL     1       7.688   4.298  15.651  0.00  0.00    +0.000 F 
ATOM     18  C   UNL     1       5.442   4.066  16.361  0.00  0.00    +0.000 A 
ATOM     19  F   UNL     1       5.476   2.810  15.900  0.00  0.00    +0.000 F 
BRANCH  15  20
ATOM     20  O   UNL     1       7.732   6.930  16.463  0.00  0.00    +0.000 OA
ATOM     21  H   UNL     1       8.498   6.331  16.391  0.00  0.00    +0.000 HD
ENDBRANCH  15  20
ENDBRANCH   5  11
BRANCH  10  22
ATOM     22  O   UNL     1       2.619   3.711  22.287  0.00  0.00    +0.000 OA
ATOM     23  H   UNL     1       2.285   3.332  23.118  0.00  0.00    +0.000 HD
ENDBRANCH  10  22
TORSDOF 3
ENDMDL
MODEL 7
REMARK VINA RESULT:      -7.4      1.646      3.265
REMARK  Name = 
REMARK  4 active torsions:
REMARK  status: ('A' for Active; 'I' for Inactive)
REMARK    1  A    between atoms: C_1  and  C_2
REMARK    2  A    between atoms: C_5  and  C_6
REMARK    3  A    between atoms: C_10  and  O_11
REMARK    4  A    between atoms: C_20  and  O_21
REMARK                            x       y       z     vdW  Elec       q    Type
REMARK                         _______ _______ _______ _____ _____    ______ ____
ROOT
ATOM      1  C   UNL     1       3.602   5.473  19.701  0.00  0.00    +0.000 C 
ATOM      2  C   UNL     1       2.809   4.153  19.795  0.00  0.00    +0.000 C 
ATOM      3  C   UNL     1       3.756   3.009  20.235  0.00  0.00    +0.000 C 
ATOM      4  C   UNL     1       4.294   2.120  19.106  0.00  0.00    +0.000 C 
ATOM      5  C   UNL     1       4.254   2.733  17.691  0.00  0.00    +0.000 C 
ATOM      6  C   UNL     1       2.768   3.017  17.402  0.00  0.00    +0.000 C 
ATOM      7  C   UNL     1       2.026   3.795  18.504  0.00  0.00    +0.000 C 
ATOM      8  C   UNL     1       0.796   2.998  18.996  0.00  0.00    +0.000 C 
ATOM      9  C   UNL     1       0.619   3.295  20.482  0.00  0.00    +0.000 C 
ATOM     10  C   UNL     1       1.654   4.355  20.818  0.00  0.00    +0.000 C 
ENDROOT
BRANCH   5  11
ATOM     11  C   UNL     1       5.237   3.852  17.355  0.00  0.00    +0.000 A 
ATOM     12  C   UNL     1       6.216   4.275  18.279  0.00  0.00    +0.000 A 
ATOM     13  C   UNL     1       7.052   5.357  18.003  0.00  0.00    +0.000 A 
ATOM     14  F   UNL     1       7.961   5.735  18.913  0.00  0.00    +0.000 F 
ATOM     15  C   UNL     1       6.948   6.058  16.813  0.00  0.00    +0.000 A 
ATOM     16  C   UNL     1       6.002   5.663  15.884  0.00  0.00    +0.000 A 
ATOM     17  F   UNL     1       5.880   6.322  14.722  0.00  0.00    +0.000 F 
ATOM     18  C   UNL     1       5.152   4.585  16.155  0.00  0.00    +0.000 A 
ATOM     19  F   UNL     1       4.234   4.273  15.231  0.00  0.00    +0.000 F 
BRANCH  15  20
ATOM     20  O   UNL     1       7.751   7.139  16.573  0.00  0.00    +0.000 OA
ATOM     21  H   UNL     1       7.406   7.886  17.098  0.00  0.00    +0.000 HD
ENDBRANCH  15  20
ENDBRANCH   5  11
BRANCH  10  22
ATOM     22  O   UNL     1       1.044   5.640  20.694  0.00  0.00    +0.000 OA
ATOM     23  H   UNL     1       0.092   5.550  20.867  0.00  0.00    +0.000 HD
ENDBRANCH  10  22
TORSDOF 3
ENDMDL
MODEL 8
REMARK VINA RESULT:      -7.3      2.543      5.907
REMARK  Name = 
REMARK  4 active torsions:
REMARK  status: ('A' for Active; 'I' for Inactive)
REMARK    1  A    between atoms: C_1  and  C_2
REMARK    2  A    between atoms: C_5  and  C_6
REMARK    3  A    between atoms: C_10  and  O_11
REMARK    4  A    between atoms: C_20  and  O_21
REMARK                            x       y       z     vdW  Elec       q    Type
REMARK                         _______ _______ _______ _____ _____    ______ ____
ROOT
ATOM      1  C   UNL     1       5.825   4.244  19.141  0.00  0.00    +0.000 C 
ATOM      2  C   UNL     1       5.908   4.975  17.785  0.00  0.00    +0.000 C 
ATOM      3  C   UNL     1       5.195   6.346  17.890  0.00  0.00    +0.000 C 
ATOM      4  C   UNL     1       3.758   6.390  17.353  0.00  0.00    +0.000 C 
ATOM      5  C   UNL     1       3.038   5.030  17.248  0.00  0.00    +0.000 C 
ATOM      6  C   UNL     1       3.881   4.186  16.272  0.00  0.00    +0.000 C 
ATOM      7  C   UNL     1       5.387   4.139  16.586  0.00  0.00    +0.000 C 
ATOM      8  C   UNL     1       6.210   4.632  15.373  0.00  0.00    +0.000 C 
ATOM      9  C   UNL     1       7.447   5.342  15.914  0.00  0.00    +0.000 C 
ATOM     10  C   UNL     1       7.411   5.146  17.421  0.00  0.00    +0.000 C 
ENDROOT
BRANCH   5  11
ATOM     11  C   UNL     1       2.596   4.339  18.536  0.00  0.00    +0.000 A 
ATOM     12  C   UNL     1       2.640   5.002  19.780  0.00  0.00    +0.000 A 
ATOM     13  C   UNL     1       2.321   4.339  20.965  0.00  0.00    +0.000 A 
ATOM     14  F   UNL     1       2.388   5.002  22.129  0.00  0.00    +0.000 F 
ATOM     15  C   UNL     1       1.955   3.003  20.963  0.00  0.00    +0.000 A 
ATOM     16  C   UNL     1       1.896   2.328  19.757  0.00  0.00    +0.000 A 
ATOM     17  F   UNL     1       1.541   1.034  19.725  0.00  0.00    +0.000 F 
ATOM     18  C   UNL     1       2.222   2.981  18.564  0.00  0.00    +0.000 A 
ATOM     19  F   UNL     1       2.180   2.263  17.434  0.00  0.00    +0.000 F 
BRANCH  15  20
ATOM     20  O   UNL     1       1.680   2.358  22.137  0.00  0.00    +0.000 OA
ATOM     21  H   UNL     1       1.076   1.619  21.934  0.00  0.00    +0.000 HD
ENDBRANCH  15  20
ENDBRANCH   5  11
BRANCH  10  22
ATOM     22  O   UNL     1       8.180   3.988  17.746  0.00  0.00    +0.000 OA
ATOM     23  H   UNL     1       8.255   3.926  18.713  0.00  0.00    +0.000 HD
ENDBRANCH  10  22
TORSDOF 3
ENDMDL
MODEL 9
REMARK VINA RESULT:      -7.2      1.686      2.550
REMARK  Name = 
REMARK  4 active torsions:
REMARK  status: ('A' for Active; 'I' for Inactive)
REMARK    1  A    between atoms: C_1  and  C_2
REMARK    2  A    between atoms: C_5  and  C_6
REMARK    3  A    between atoms: C_10  and  O_11
REMARK    4  A    between atoms: C_20  and  O_21
REMARK                            x       y       z     vdW  Elec       q    Type
REMARK                         _______ _______ _______ _____ _____    ______ ____
ROOT
ATOM      1  C   UNL     1       3.000   5.485  19.811  0.00  0.00    +0.000 C 
ATOM      2  C   UNL     1       2.475   4.036  19.736  0.00  0.00    +0.000 C 
ATOM      3  C   UNL     1       3.595   3.055  20.164  0.00  0.00    +0.000 C 
ATOM      4  C   UNL     1       4.369   2.391  19.017  0.00  0.00    +0.000 C 
ATOM      5  C   UNL     1       4.305   3.113  17.656  0.00  0.00    +0.000 C 
ATOM      6  C   UNL     1       2.814   3.138  17.267  0.00  0.00    +0.000 C 
ATOM      7  C   UNL     1       1.864   3.657  18.361  0.00  0.00    +0.000 C 
ATOM      8  C   UNL     1       0.782   2.601  18.686  0.00  0.00    +0.000 C 
ATOM      9  C   UNL     1       0.452   2.722  20.171  0.00  0.00    +0.000 C 
ATOM     10  C   UNL     1       1.237   3.922  20.672  0.00  0.00    +0.000 C 
ENDROOT
BRANCH   5  11
ATOM     11  C   UNL     1       5.072   4.423  17.490  0.00  0.00    +0.000 A 
ATOM     12  C   UNL     1       4.720   5.362  16.498  0.00  0.00    +0.000 A 
ATOM     13  C   UNL     1       5.479   6.515  16.291  0.00  0.00    +0.000 A 
ATOM     14  F   UNL     1       5.119   7.376  15.329  0.00  0.00    +0.000 F 
ATOM     15  C   UNL     1       6.609   6.775  17.050  0.00  0.00    +0.000 A 
ATOM     16  C   UNL     1       6.974   5.876  18.036  0.00  0.00    +0.000 A 
ATOM     17  F   UNL     1       8.062   6.105  18.788  0.00  0.00    +0.000 F 
ATOM     18  C   UNL     1       6.226   4.713  18.245  0.00  0.00    +0.000 A 
ATOM     19  F   UNL     1       6.651   3.864  19.190  0.00  0.00    +0.000 F 
BRANCH  15  20
ATOM     20  O   UNL     1       7.362   7.892  16.811  0.00  0.00    +0.000 OA
ATOM     21  H   UNL     1       8.300   7.623  16.821  0.00  0.00    +0.000 HD
ENDBRANCH  15  20
ENDBRANCH   5  11
BRANCH  10  22
ATOM     22  O   UNL     1       0.397   5.075  20.599  0.00  0.00    +0.000 OA
ATOM     23  H   UNL     1       0.820   5.799  21.090  0.00  0.00    +0.000 HD
ENDBRANCH  10  22
TORSDOF 3
ENDMDL
