MODEL 1
REMARK VINA RESULT:      -6.7      0.000      0.000
REMARK  Name = 
REMARK  5 active torsions:
REMARK  status: ('A' for Active; 'I' for Inactive)
REMARK    1  A    between atoms: C_1  and  C_2
REMARK    2  A    between atoms: C_2  and  C_3
REMARK    3  A    between atoms: C_3  and  N_4
REMARK    4  A    between atoms: C_8  and  C_9
REMARK    5  A    between atoms: C_19  and  C_20
REMARK                            x       y       z     vdW  Elec       q    Type
REMARK                         _______ _______ _______ _____ _____    ______ ____
ROOT
ATOM      1  N   UNL     1       3.047   6.548  18.505  0.00  0.00    +0.000 N 
ATOM      2  N   UNL     1       3.657   6.554  17.293  0.00  0.00    +0.000 NA
ATOM      3  C   UNL     1       4.467   5.544  17.303  0.00  0.00    +0.000 C 
ATOM      4  C   UNL     1       5.326   4.998  16.223  0.00  0.00    +0.000 C 
ATOM      5  C   UNL     1       5.353   5.584  15.008  0.00  0.00    +0.000 C 
ATOM      6  C   UNL     1       6.043   3.753  16.664  0.00  0.00    +0.000 C 
ATOM      7  O   UNL     1       6.703   3.998  17.911  0.00  0.00    +0.000 OA
ATOM      8  C   UNL     1       5.831   4.341  19.003  0.00  0.00    +0.000 C 
ATOM      9  C   UNL     1       4.437   4.735  18.564  0.00  0.00    +0.000 C 
ATOM     10  C   UNL     1       3.602   5.620  19.493  0.00  0.00    +0.000 C 
ENDROOT
BRANCH   5  11
ATOM     11  C   UNL     1       6.118   5.038  13.884  0.00  0.00    +0.000 A 
ATOM     12  C   UNL     1       5.617   3.952  13.158  0.00  0.00    +0.000 A 
ATOM     13  C   UNL     1       6.358   3.404  12.110  0.00  0.00    +0.000 A 
ATOM     14  C   UNL     1       7.606   3.940  11.782  0.00  0.00    +0.000 A 
ATOM     15  C   UNL     1       8.113   5.020  12.503  0.00  0.00    +0.000 A 
ATOM     16  C   UNL     1       7.371   5.562  13.554  0.00  0.00    +0.000 A 
ENDBRANCH   5  11
BRANCH  10  17
ATOM     17  C   UNL     1       2.598   4.736  20.212  0.00  0.00    +0.000 A 
ATOM     18  C   UNL     1       2.864   4.254  21.500  0.00  0.00    +0.000 A 
ATOM     19  C   UNL     1       2.046   3.272  22.064  0.00  0.00    +0.000 A 
ATOM     20  C   UNL     1       0.964   2.758  21.347  0.00  0.00    +0.000 A 
ATOM     21  C   UNL     1       0.658   3.268  20.090  0.00  0.00    +0.000 A 
ATOM     22  C   UNL     1       1.451   4.272  19.543  0.00  0.00    +0.000 A 
ENDBRANCH  10  17
BRANCH   1  23
ATOM     23  C   UNL     1       1.942   7.430  18.844  0.00  0.00    +0.000 C 
BRANCH  23  25
ATOM     24  C   UNL     1       0.888   9.710  18.615  0.00  0.00    +0.000 C 
ATOM     25  C   UNL     1       1.840   8.694  17.986  0.00  0.00    +0.000 C 
ENDBRANCH  23  25
ENDBRANCH   1  23
TORSDOF 4
ENDMDL
MODEL 2
REMARK VINA RESULT:      -6.6      4.045      7.385
REMARK  Name = 
REMARK  5 active torsions:
REMARK  status: ('A' for Active; 'I' for Inactive)
REMARK    1  A    between atoms: C_1  and  C_2
REMARK    2  A    between atoms: C_2  and  C_3
REMARK    3  A    between atoms: C_3  and  N_4
REMARK    4  A    between atoms: C_8  and  C_9
REMARK    5  A    between atoms: C_19  and  C_20
REMARK                            x       y       z     vdW  Elec       q    Type
REMARK                         _______ _______ _______ _____ _____    ______ ____
ROOT
ATOM      1  N   UNL     1       0.573  11.685  19.128  0.00  0.00    +0.000 N 
ATOM      2  N   UNL     1       1.275  10.649  18.605  0.00  0.00    +0.000 NA
ATOM      3  C   UNL     1       1.209   9.701  19.484  0.00  0.00    +0.000 C 
ATOM      4  C   UNL     1       1.706   8.305  19.422  0.00  0.00    +0.000 C 
ATOM      5  C   UNL     1       2.360   7.860  18.330  0.00  0.00    +0.000 C 
ATOM      6  C   UNL     1       1.329   7.528  20.652  0.00  0.00    +0.000 C 
ATOM      7  O   UNL     1       1.710   8.268  21.819  0.00  0.00    +0.000 OA
ATOM      8  C   UNL     1       1.068   9.546  21.965  0.00  0.00    +0.000 C 
ATOM      9  C   UNL     1       0.397  10.035  20.699  0.00  0.00    +0.000 C 
ATOM     10  C   UNL     1       0.169  11.540  20.528  0.00  0.00    +0.000 C 
ENDROOT
BRANCH   5  11
ATOM     11  C   UNL     1       2.798   6.469  18.183  0.00  0.00    +0.000 A 
ATOM     12  C   UNL     1       4.159   6.150  18.271  0.00  0.00    +0.000 A 
ATOM     13  C   UNL     1       4.585   4.833  18.096  0.00  0.00    +0.000 A 
ATOM     14  C   UNL     1       3.653   3.827  17.832  0.00  0.00    +0.000 A 
ATOM     15  C   UNL     1       2.298   4.137  17.741  0.00  0.00    +0.000 A 
ATOM     16  C   UNL     1       1.875   5.456  17.911  0.00  0.00    +0.000 A 
ENDBRANCH   5  11
BRANCH  10  17
ATOM     17  C   UNL     1      -1.289  11.834  20.834  0.00  0.00    +0.000 A 
ATOM     18  C   UNL     1      -2.225  11.962  19.800  0.00  0.00    +0.000 A 
ATOM     19  C   UNL     1      -3.507  12.446  20.071  0.00  0.00    +0.000 A 
ATOM     20  C   UNL     1      -3.863  12.813  21.369  0.00  0.00    +0.000 A 
ATOM     21  C   UNL     1      -2.961  12.639  22.413  0.00  0.00    +0.000 A 
ATOM     22  C   UNL     1      -1.696  12.123  22.150  0.00  0.00    +0.000 A 
ENDBRANCH  10  17
BRANCH   1  23
ATOM     23  C   UNL     1       0.268  12.897  18.384  0.00  0.00    +0.000 C 
BRANCH  23  25
ATOM     24  C   UNL     1      -0.258  15.176  19.327  0.00  0.00    +0.000 C 
ATOM     25  C   UNL     1       0.849  14.183  18.980  0.00  0.00    +0.000 C 
ENDBRANCH  23  25
ENDBRANCH   1  23
TORSDOF 4
ENDMDL
MODEL 3
REMARK VINA RESULT:      -6.6      4.073      7.297
REMARK  Name = 
REMARK  5 active torsions:
REMARK  status: ('A' for Active; 'I' for Inactive)
REMARK    1  A    between atoms: C_1  and  C_2
REMARK    2  A    between atoms: C_2  and  C_3
REMARK    3  A    between atoms: C_3  and  N_4
REMARK    4  A    between atoms: C_8  and  C_9
REMARK    5  A    between atoms: C_19  and  C_20
REMARK                            x       y       z     vdW  Elec       q    Type
REMARK                         _______ _______ _______ _____ _____    ______ ____
ROOT
ATOM      1  N   UNL     1       0.877  11.676  18.992  0.00  0.00    +0.000 N 
ATOM      2  N   UNL     1       1.556  10.607  18.506  0.00  0.00    +0.000 NA
ATOM      3  C   UNL     1       1.391   9.662  19.376  0.00  0.00    +0.000 C 
ATOM      4  C   UNL     1       1.821   8.243  19.338  0.00  0.00    +0.000 C 
ATOM      5  C   UNL     1       2.516   7.767  18.285  0.00  0.00    +0.000 C 
ATOM      6  C   UNL     1       1.333   7.485  20.541  0.00  0.00    +0.000 C 
ATOM      7  O   UNL     1       1.681   8.203  21.731  0.00  0.00    +0.000 OA
ATOM      8  C   UNL     1       1.095   9.511  21.844  0.00  0.00    +0.000 C 
ATOM      9  C   UNL     1       0.526  10.035  20.542  0.00  0.00    +0.000 C 
ATOM     10  C   UNL     1       0.383  11.549  20.365  0.00  0.00    +0.000 C 
ENDROOT
BRANCH   5  11
ATOM     11  C   UNL     1       2.893   6.356  18.159  0.00  0.00    +0.000 A 
ATOM     12  C   UNL     1       1.913   5.391  17.898  0.00  0.00    +0.000 A 
ATOM     13  C   UNL     1       2.261   4.041  17.814  0.00  0.00    +0.000 A 
ATOM     14  C   UNL     1       3.591   3.651  17.989  0.00  0.00    +0.000 A 
ATOM     15  C   UNL     1       4.571   4.606  18.250  0.00  0.00    +0.000 A 
ATOM     16  C   UNL     1       4.219   5.954  18.339  0.00  0.00    +0.000 A 
ENDBRANCH   5  11
BRANCH  10  17
ATOM     17  C   UNL     1      -1.074  11.916  20.585  0.00  0.00    +0.000 A 
ATOM     18  C   UNL     1      -2.020  11.725  19.569  0.00  0.00    +0.000 A 
ATOM     19  C   UNL     1      -3.303  12.263  19.697  0.00  0.00    +0.000 A 
ATOM     20  C   UNL     1      -3.649  12.999  20.832  0.00  0.00    +0.000 A 
ATOM     21  C   UNL     1      -2.737  13.147  21.870  0.00  0.00    +0.000 A 
ATOM     22  C   UNL     1      -1.470  12.582  21.759  0.00  0.00    +0.000 A 
ENDBRANCH  10  17
BRANCH   1  23
ATOM     23  C   UNL     1       0.677  12.902  18.235  0.00  0.00    +0.000 C 
BRANCH  23  25
ATOM     24  C   UNL     1      -0.182  15.131  19.045  0.00  0.00    +0.000 C 
ATOM     25  C   UNL     1       1.020  14.189  18.992  0.00  0.00    +0.000 C 
ENDBRANCH  23  25
ENDBRANCH   1  23
TORSDOF 4
ENDMDL
MODEL 4
REMARK VINA RESULT:      -6.6      9.445     12.979
REMARK  Name = 
REMARK  5 active torsions:
REMARK  status: ('A' for Active; 'I' for Inactive)
REMARK    1  A    between atoms: C_1  and  C_2
REMARK    2  A    between atoms: C_2  and  C_3
REMARK    3  A    between atoms: C_3  and  N_4
REMARK    4  A    between atoms: C_8  and  C_9
REMARK    5  A    between atoms: C_19  and  C_20
REMARK                            x       y       z     vdW  Elec       q    Type
REMARK                         _______ _______ _______ _____ _____    ______ ____
ROOT
ATOM      1  N   UNL     1       7.783  13.823  17.985  0.00  0.00    +0.000 N 
ATOM      2  N   UNL     1       6.470  14.085  17.764  0.00  0.00    +0.000 NA
ATOM      3  C   UNL     1       6.216  15.174  18.416  0.00  0.00    +0.000 C 
ATOM      4  C   UNL     1       4.977  15.988  18.471  0.00  0.00    +0.000 C 
ATOM      5  C   UNL     1       3.880  15.610  17.782  0.00  0.00    +0.000 C 
ATOM      6  C   UNL     1       5.165  17.228  19.299  0.00  0.00    +0.000 C 
ATOM      7  O   UNL     1       5.725  16.873  20.569  0.00  0.00    +0.000 OA
ATOM      8  C   UNL     1       7.022  16.256  20.509  0.00  0.00    +0.000 C 
ATOM      9  C   UNL     1       7.397  15.764  19.127  0.00  0.00    +0.000 C 
ATOM     10  C   UNL     1       8.435  14.645  19.007  0.00  0.00    +0.000 C 
ENDROOT
BRANCH   5  11
ATOM     11  C   UNL     1       2.659  16.419  17.735  0.00  0.00    +0.000 A 
ATOM     12  C   UNL     1       1.624  16.180  18.647  0.00  0.00    +0.000 A 
ATOM     13  C   UNL     1       0.444  16.924  18.582  0.00  0.00    +0.000 A 
ATOM     14  C   UNL     1       0.294  17.911  17.605  0.00  0.00    +0.000 A 
ATOM     15  C   UNL     1       1.318  18.152  16.693  0.00  0.00    +0.000 A 
ATOM     16  C   UNL     1       2.495  17.404  16.756  0.00  0.00    +0.000 A 
ENDBRANCH   5  11
BRANCH  10  17
ATOM     17  C   UNL     1       9.761  15.271  18.611  0.00  0.00    +0.000 A 
ATOM     18  C   UNL     1       9.848  16.115  17.497  0.00  0.00    +0.000 A 
ATOM     19  C   UNL     1      11.098  16.508  17.012  0.00  0.00    +0.000 A 
ATOM     20  C   UNL     1      12.267  16.057  17.627  0.00  0.00    +0.000 A 
ATOM     21  C   UNL     1      12.192  15.263  18.766  0.00  0.00    +0.000 A 
ATOM     22  C   UNL     1      10.947  14.901  19.272  0.00  0.00    +0.000 A 
ENDBRANCH  10  17
BRANCH   1  23
ATOM     23  C   UNL     1       8.510  12.766  17.299  0.00  0.00    +0.000 C 
BRANCH  23  25
ATOM     24  C   UNL     1      10.624  11.522  17.885  0.00  0.00    +0.000 C 
ATOM     25  C   UNL     1       9.146  11.720  18.219  0.00  0.00    +0.000 C 
ENDBRANCH  23  25
ENDBRANCH   1  23
TORSDOF 4
ENDMDL
MODEL 5
REMARK VINA RESULT:      -6.6      3.939      7.475
REMARK  Name = 
REMARK  5 active torsions:
REMARK  status: ('A' for Active; 'I' for Inactive)
REMARK    1  A    between atoms: C_1  and  C_2
REMARK    2  A    between atoms: C_2  and  C_3
REMARK    3  A    between atoms: C_3  and  N_4
REMARK    4  A    between atoms: C_8  and  C_9
REMARK    5  A    between atoms: C_19  and  C_20
REMARK                            x       y       z     vdW  Elec       q    Type
REMARK                         _______ _______ _______ _____ _____    ______ ____
ROOT
ATOM      1  N   UNL     1       0.265  10.188  21.463  0.00  0.00    +0.000 N 
ATOM      2  N   UNL     1       0.775   8.950  21.243  0.00  0.00    +0.000 NA
ATOM      3  C   UNL     1       1.208   8.961  20.023  0.00  0.00    +0.000 C 
ATOM      4  C   UNL     1       1.946   7.924  19.262  0.00  0.00    +0.000 C 
ATOM      5  C   UNL     1       2.248   6.740  19.835  0.00  0.00    +0.000 C 
ATOM      6  C   UNL     1       2.322   8.407  17.890  0.00  0.00    +0.000 C 
ATOM      7  O   UNL     1       1.164   8.941  17.238  0.00  0.00    +0.000 OA
ATOM      8  C   UNL     1       0.569  10.076  17.891  0.00  0.00    +0.000 C 
ATOM      9  C   UNL     1       1.040  10.272  19.315  0.00  0.00    +0.000 C 
ATOM     10  C   UNL     1       0.140  11.046  20.283  0.00  0.00    +0.000 C 
ENDROOT
BRANCH   5  11
ATOM     11  C   UNL     1       3.047   5.715  19.158  0.00  0.00    +0.000 A 
ATOM     12  C   UNL     1       2.438   4.838  18.253  0.00  0.00    +0.000 A 
ATOM     13  C   UNL     1       3.187   3.836  17.632  0.00  0.00    +0.000 A 
ATOM     14  C   UNL     1       4.549   3.707  17.915  0.00  0.00    +0.000 A 
ATOM     15  C   UNL     1       5.160   4.574  18.817  0.00  0.00    +0.000 A 
ATOM     16  C   UNL     1       4.408   5.572  19.440  0.00  0.00    +0.000 A 
ENDBRANCH   5  11
BRANCH  10  17
ATOM     17  C   UNL     1       0.695  12.453  20.421  0.00  0.00    +0.000 A 
ATOM     18  C   UNL     1      -0.098  13.567  20.117  0.00  0.00    +0.000 A 
ATOM     19  C   UNL     1       0.479  14.836  20.035  0.00  0.00    +0.000 A 
ATOM     20  C   UNL     1       1.849  15.003  20.246  0.00  0.00    +0.000 A 
ATOM     21  C   UNL     1       2.635  13.914  20.602  0.00  0.00    +0.000 A 
ATOM     22  C   UNL     1       2.055  12.655  20.721  0.00  0.00    +0.000 A 
ENDBRANCH  10  17
BRANCH   1  23
ATOM     23  C   UNL     1      -0.183  10.643  22.770  0.00  0.00    +0.000 C 
BRANCH  23  25
ATOM     24  C   UNL     1      -1.618  12.662  23.245  0.00  0.00    +0.000 C 
ATOM     25  C   UNL     1      -1.610  11.200  22.804  0.00  0.00    +0.000 C 
ENDBRANCH  23  25
ENDBRANCH   1  23
TORSDOF 4
ENDMDL
MODEL 6
REMARK VINA RESULT:      -6.5      2.980      5.982
REMARK  Name = 
REMARK  5 active torsions:
REMARK  status: ('A' for Active; 'I' for Inactive)
REMARK    1  A    between atoms: C_1  and  C_2
REMARK    2  A    between atoms: C_2  and  C_3
REMARK    3  A    between atoms: C_3  and  N_4
REMARK    4  A    between atoms: C_8  and  C_9
REMARK    5  A    between atoms: C_19  and  C_20
REMARK                            x       y       z     vdW  Elec       q    Type
REMARK                         _______ _______ _______ _____ _____    ______ ____
ROOT
ATOM      1  N   UNL     1       1.807  11.153  18.350  0.00  0.00    +0.000 N 
ATOM      2  N   UNL     1       2.710  10.288  17.824  0.00  0.00    +0.000 NA
ATOM      3  C   UNL     1       2.393   9.123  18.291  0.00  0.00    +0.000 C 
ATOM      4  C   UNL     1       2.962   7.787  17.991  0.00  0.00    +0.000 C 
ATOM      5  C   UNL     1       3.988   7.659  17.124  0.00  0.00    +0.000 C 
ATOM      6  C   UNL     1       2.219   6.695  18.709  0.00  0.00    +0.000 C 
ATOM      7  O   UNL     1       2.116   7.023  20.099  0.00  0.00    +0.000 OA
ATOM      8  C   UNL     1       1.388   8.230  20.386  0.00  0.00    +0.000 C 
ATOM      9  C   UNL     1       1.183   9.116  19.176  0.00  0.00    +0.000 C 
ATOM     10  C   UNL     1       0.941  10.612  19.399  0.00  0.00    +0.000 C 
ENDROOT
BRANCH   5  11
ATOM     11  C   UNL     1       4.532   6.357  16.730  0.00  0.00    +0.000 A 
ATOM     12  C   UNL     1       4.393   5.253  17.579  0.00  0.00    +0.000 A 
ATOM     13  C   UNL     1       4.941   4.019  17.226  0.00  0.00    +0.000 A 
ATOM     14  C   UNL     1       5.632   3.883  16.019  0.00  0.00    +0.000 A 
ATOM     15  C   UNL     1       5.778   4.978  15.170  0.00  0.00    +0.000 A 
ATOM     16  C   UNL     1       5.233   6.211  15.529  0.00  0.00    +0.000 A 
ENDBRANCH   5  11
BRANCH  10  17
ATOM     17  C   UNL     1      -0.546  10.878  19.239  0.00  0.00    +0.000 A 
ATOM     18  C   UNL     1      -1.274  10.267  18.210  0.00  0.00    +0.000 A 
ATOM     19  C   UNL     1      -2.580  10.682  17.934  0.00  0.00    +0.000 A 
ATOM     20  C   UNL     1      -3.164  11.712  18.673  0.00  0.00    +0.000 A 
ATOM     21  C   UNL     1      -2.470  12.288  19.732  0.00  0.00    +0.000 A 
ATOM     22  C   UNL     1      -1.184  11.850  20.031  0.00  0.00    +0.000 A 
ENDBRANCH  10  17
BRANCH   1  23
ATOM     23  C   UNL     1       1.715  12.549  17.950  0.00  0.00    +0.000 C 
BRANCH  23  25
ATOM     24  C   UNL     1       1.454  14.638  19.338  0.00  0.00    +0.000 C 
ATOM     25  C   UNL     1       2.412  13.536  18.891  0.00  0.00    +0.000 C 
ENDBRANCH  23  25
ENDBRANCH   1  23
TORSDOF 4
ENDMDL
MODEL 7
REMARK VINA RESULT:      -6.5      4.139      6.658
REMARK  Name = 
REMARK  5 active torsions:
REMARK  status: ('A' for Active; 'I' for Inactive)
REMARK    1  A    between atoms: C_1  and  C_2
REMARK    2  A    between atoms: C_2  and  C_3
REMARK    3  A    between atoms: C_3  and  N_4
REMARK    4  A    between atoms: C_8  and  C_9
REMARK    5  A    between atoms: C_19  and  C_20
REMARK                            x       y       z     vdW  Elec       q    Type
REMARK                         _______ _______ _______ _____ _____    ______ ____
ROOT
ATOM      1  N   UNL     1       1.760  10.458  18.521  0.00  0.00    +0.000 N 
ATOM      2  N   UNL     1       2.357   9.280  18.208  0.00  0.00    +0.000 NA
ATOM      3  C   UNL     1       1.934   8.428  19.086  0.00  0.00    +0.000 C 
ATOM      4  C   UNL     1       2.171   6.968  19.191  0.00  0.00    +0.000 C 
ATOM      5  C   UNL     1       2.950   6.334  18.290  0.00  0.00    +0.000 C 
ATOM      6  C   UNL     1       1.406   6.364  20.335  0.00  0.00    +0.000 C 
ATOM      7  O   UNL     1       1.658   7.117  21.528  0.00  0.00    +0.000 OA
ATOM      8  C   UNL     1       1.243   8.493  21.477  0.00  0.00    +0.000 C 
ATOM      9  C   UNL     1       0.957   8.988  20.076  0.00  0.00    +0.000 C 
ATOM     10  C   UNL     1       1.048  10.492  19.800  0.00  0.00    +0.000 C 
ENDROOT
BRANCH   5  11
ATOM     11  C   UNL     1       3.150   4.883  18.300  0.00  0.00    +0.000 A 
ATOM     12  C   UNL     1       4.198   4.324  19.040  0.00  0.00    +0.000 A 
ATOM     13  C   UNL     1       4.415   2.945  19.023  0.00  0.00    +0.000 A 
ATOM     14  C   UNL     1       3.583   2.117  18.265  0.00  0.00    +0.000 A 
ATOM     15  C   UNL     1       2.539   2.666  17.524  0.00  0.00    +0.000 A 
ATOM     16  C   UNL     1       2.328   4.046  17.539  0.00  0.00    +0.000 A 
ENDBRANCH   5  11
BRANCH  10  17
ATOM     17  C   UNL     1      -0.364  11.051  19.761  0.00  0.00    +0.000 A 
ATOM     18  C   UNL     1      -1.261  10.656  18.761  0.00  0.00    +0.000 A 
ATOM     19  C   UNL     1      -2.474  11.332  18.601  0.00  0.00    +0.000 A 
ATOM     20  C   UNL     1      -2.795  12.409  19.428  0.00  0.00    +0.000 A 
ATOM     21  C   UNL     1      -1.937  12.775  20.458  0.00  0.00    +0.000 A 
ATOM     22  C   UNL     1      -0.746  12.079  20.642  0.00  0.00    +0.000 A 
ENDBRANCH  10  17
BRANCH   1  23
ATOM     23  C   UNL     1       1.846  11.642  17.680  0.00  0.00    +0.000 C 
BRANCH  23  25
ATOM     24  C   UNL     1       1.623  13.993  18.564  0.00  0.00    +0.000 C 
ATOM     25  C   UNL     1       2.579  12.828  18.312  0.00  0.00    +0.000 C 
ENDBRANCH  23  25
ENDBRANCH   1  23
TORSDOF 4
ENDMDL
MODEL 8
REMARK VINA RESULT:      -6.5      4.145      6.673
REMARK  Name = 
REMARK  5 active torsions:
REMARK  status: ('A' for Active; 'I' for Inactive)
REMARK    1  A    between atoms: C_1  and  C_2
REMARK    2  A    between atoms: C_2  and  C_3
REMARK    3  A    between atoms: C_3  and  N_4
REMARK    4  A    between atoms: C_8  and  C_9
REMARK    5  A    between atoms: C_19  and  C_20
REMARK                            x       y       z     vdW  Elec       q    Type
REMARK                         _______ _______ _______ _____ _____    ______ ____
ROOT
ATOM      1  N   UNL     1       1.913  10.665  18.417  0.00  0.00    +0.000 N 
ATOM      2  N   UNL     1       2.539   9.484  18.188  0.00  0.00    +0.000 NA
ATOM      3  C   UNL     1       1.996   8.635  19.000  0.00  0.00    +0.000 C 
ATOM      4  C   UNL     1       2.206   7.173  19.137  0.00  0.00    +0.000 C 
ATOM      5  C   UNL     1       3.096   6.534  18.349  0.00  0.00    +0.000 C 
ATOM      6  C   UNL     1       1.289   6.575  20.166  0.00  0.00    +0.000 C 
ATOM      7  O   UNL     1       1.382   7.327  21.382  0.00  0.00    +0.000 OA
ATOM      8  C   UNL     1       0.987   8.706  21.276  0.00  0.00    +0.000 C 
ATOM      9  C   UNL     1       0.897   9.202  19.849  0.00  0.00    +0.000 C 
ATOM     10  C   UNL     1       1.034  10.705  19.588  0.00  0.00    +0.000 C 
ENDROOT
BRANCH   5  11
ATOM     11  C   UNL     1       3.283   5.081  18.385  0.00  0.00    +0.000 A 
ATOM     12  C   UNL     1       4.271   4.522  19.204  0.00  0.00    +0.000 A 
ATOM     13  C   UNL     1       4.478   3.141  19.214  0.00  0.00    +0.000 A 
ATOM     14  C   UNL     1       3.696   2.312  18.406  0.00  0.00    +0.000 A 
ATOM     15  C   UNL     1       2.712   2.862  17.587  0.00  0.00    +0.000 A 
ATOM     16  C   UNL     1       2.511   4.244  17.575  0.00  0.00    +0.000 A 
ENDBRANCH   5  11
BRANCH  10  17
ATOM     17  C   UNL     1      -0.355  11.273  19.358  0.00  0.00    +0.000 A 
ATOM     18  C   UNL     1      -0.866  12.271  20.197  0.00  0.00    +0.000 A 
ATOM     19  C   UNL     1      -2.215  12.631  20.118  0.00  0.00    +0.000 A 
ATOM     20  C   UNL     1      -3.062  11.993  19.210  0.00  0.00    +0.000 A 
ATOM     21  C   UNL     1      -2.553  11.041  18.335  0.00  0.00    +0.000 A 
ATOM     22  C   UNL     1      -1.203  10.708  18.388  0.00  0.00    +0.000 A 
ENDBRANCH  10  17
BRANCH   1  23
ATOM     23  C   UNL     1       2.120  11.848  17.597  0.00  0.00    +0.000 C 
BRANCH  23  25
ATOM     24  C   UNL     1       1.764  14.184  18.478  0.00  0.00    +0.000 C 
ATOM     25  C   UNL     1       2.758  13.034  18.326  0.00  0.00    +0.000 C 
ENDBRANCH  23  25
ENDBRANCH   1  23
TORSDOF 4
ENDMDL
MODEL 9
REMARK VINA RESULT:      -6.5      3.810      7.382
REMARK  Name = 
REMARK  5 active torsions:
REMARK  status: ('A' for Active; 'I' for Inactive)
REMARK    1  A    between atoms: C_1  and  C_2
REMARK    2  A    between atoms: C_2  and  C_3
REMARK    3  A    between atoms: C_3  and  N_4
REMARK    4  A    between atoms: C_8  and  C_9
REMARK    5  A    between atoms: C_19  and  C_20
REMARK                            x       y       z     vdW  Elec       q    Type
REMARK                         _______ _______ _______ _____ _____    ______ ____
ROOT
ATOM      1  N   UNL     1       0.376   9.976  21.567  0.00  0.00    +0.000 N 
ATOM      2  N   UNL     1       0.907   8.754  21.311  0.00  0.00    +0.000 NA
ATOM      3  C   UNL     1       1.291   8.791  20.075  0.00  0.00    +0.000 C 
ATOM      4  C   UNL     1       2.024   7.782  19.272  0.00  0.00    +0.000 C 
ATOM      5  C   UNL     1       2.377   6.599  19.817  0.00  0.00    +0.000 C 
ATOM      6  C   UNL     1       2.334   8.291  17.892  0.00  0.00    +0.000 C 
ATOM      7  O   UNL     1       1.138   8.804  17.294  0.00  0.00    +0.000 OA
ATOM      8  C   UNL     1       0.541   9.916  17.984  0.00  0.00    +0.000 C 
ATOM      9  C   UNL     1       1.064  10.106  19.392  0.00  0.00    +0.000 C 
ATOM     10  C   UNL     1       0.184  10.845  20.404  0.00  0.00    +0.000 C 
ENDROOT
BRANCH   5  11
ATOM     11  C   UNL     1       3.173   5.602  19.095  0.00  0.00    +0.000 A 
ATOM     12  C   UNL     1       4.551   5.511  19.320  0.00  0.00    +0.000 A 
ATOM     13  C   UNL     1       5.320   4.588  18.609  0.00  0.00    +0.000 A 
ATOM     14  C   UNL     1       4.714   3.752  17.669  0.00  0.00    +0.000 A 
ATOM     15  C   UNL     1       3.343   3.839  17.438  0.00  0.00    +0.000 A 
ATOM     16  C   UNL     1       2.577   4.766  18.147  0.00  0.00    +0.000 A 
ENDBRANCH   5  11
BRANCH  10  17
ATOM     17  C   UNL     1       0.710  12.264  20.540  0.00  0.00    +0.000 A 
ATOM     18  C   UNL     1      -0.166  13.356  20.507  0.00  0.00    +0.000 A 
ATOM     19  C   UNL     1       0.338  14.656  20.411  0.00  0.00    +0.000 A 
ATOM     20  C   UNL     1       1.715  14.875  20.339  0.00  0.00    +0.000 A 
ATOM     21  C   UNL     1       2.595  13.802  20.426  0.00  0.00    +0.000 A 
ATOM     22  C   UNL     1       2.095  12.510  20.558  0.00  0.00    +0.000 A 
ENDBRANCH  10  17
BRANCH   1  23
ATOM     23  C   UNL     1      -0.031  10.404  22.896  0.00  0.00    +0.000 C 
BRANCH  23  25
ATOM     24  C   UNL     1      -1.822  12.128  23.320  0.00  0.00    +0.000 C 
ATOM     25  C   UNL     1      -1.533  10.650  23.061  0.00  0.00    +0.000 C 
ENDBRANCH  23  25
ENDBRANCH   1  23
TORSDOF 4
ENDMDL
