MODEL 1
REMARK VINA RESULT:      -9.0      0.000      0.000
REMARK  Name = 
REMARK  6 active torsions:
REMARK  status: ('A' for Active; 'I' for Inactive)
REMARK    1  A    between atoms: N_1  and  C_2
REMARK    2  A    between atoms: C_5  and  C_6
REMARK    3  A    between atoms: N_9  and  C_10
REMARK    4  A    between atoms: C_18  and  C_19
REMARK    5  A    between atoms: C_24  and  O_25
REMARK    6  A    between atoms: O_25  and  C_26
REMARK                            x       y       z     vdW  Elec       q    Type
REMARK                         _______ _______ _______ _____ _____    ______ ____
ROOT
ATOM      1  C   UNL     1       1.265  11.658  18.420  0.00  0.00    +0.000 A 
ATOM      2  N   UNL     1       0.679  12.873  18.288  0.00  0.00    +0.000 NA
ATOM      3  C   UNL     1      -0.617  13.012  18.654  0.00  0.00    +0.000 A 
ATOM      4  C   UNL     1      -1.404  11.995  19.167  0.00  0.00    +0.000 A 
ATOM      5  C   UNL     1      -0.758  10.748  19.318  0.00  0.00    +0.000 A 
ATOM      6  C   UNL     1       0.607  10.540  18.938  0.00  0.00    +0.000 A 
ENDROOT
BRANCH   6   7
ATOM      7  C   UNL     1       1.198   9.185  19.114  0.00  0.00    +0.000 A 
ATOM      8  N   UNL     1       1.169   8.468  20.227  0.00  0.00    +0.000 NA
ATOM      9  C   UNL     1       1.851   7.318  19.926  0.00  0.00    +0.000 A 
ATOM     10  C   UNL     1       2.164   6.222  20.738  0.00  0.00    +0.000 A 
ATOM     11  C   UNL     1       2.914   5.161  20.205  0.00  0.00    +0.000 A 
ATOM     12  C   UNL     1       3.293   5.137  18.859  0.00  0.00    +0.000 A 
ATOM     13  C   UNL     1       2.997   6.254  18.025  0.00  0.00    +0.000 A 
ATOM     14  C   UNL     1       2.274   7.323  18.606  0.00  0.00    +0.000 A 
ATOM     15  O   UNL     1       1.846   8.532  18.065  0.00  0.00    +0.000 OA
BRANCH  12  16
ATOM     16  O   UNL     1       4.022   4.075  18.311  0.00  0.00    +0.000 OA
BRANCH  16  17
ATOM     17  C   UNL     1       5.036   4.318  17.386  0.00  0.00    +0.000 A 
ATOM     18  C   UNL     1       4.858   4.173  16.006  0.00  0.00    +0.000 A 
ATOM     19  C   UNL     1       5.917   4.404  15.116  0.00  0.00    +0.000 A 
ATOM     20  C   UNL     1       7.151   4.841  15.590  0.00  0.00    +0.000 A 
ATOM     21  C   UNL     1       7.322   5.061  16.956  0.00  0.00    +0.000 A 
ATOM     22  C   UNL     1       6.268   4.804  17.851  0.00  0.00    +0.000 A 
ENDBRANCH  16  17
ENDBRANCH  12  16
ENDBRANCH   6   7
BRANCH   4  23
ATOM     23  C   UNL     1      -2.812  12.256  19.495  0.00  0.00    +0.000 A 
ATOM     24  C   UNL     1      -3.393  12.970  20.575  0.00  0.00    +0.000 A 
ATOM     25  N   UNL     1      -4.724  13.028  20.525  0.00  0.00    +0.000 NA
ATOM     26  N   UNL     1      -5.029  12.346  19.398  0.00  0.00    +0.000 N 
ATOM     27  C   UNL     1      -3.916  11.878  18.755  0.00  0.00    +0.000 A 
BRANCH  26  28
ATOM     28  C   UNL     1      -6.452  12.220  19.048  0.00  0.00    +0.000 C 
ATOM     29  C   UNL     1      -7.403  12.461  20.224  0.00  0.00    +0.000 C 
ATOM     30  C   UNL     1      -7.527  11.242  21.131  0.00  0.00    +0.000 C 
ATOM     31  N   UNL     1      -7.856  10.022  20.395  0.00  0.00    +0.000 NA
ATOM     32  C   UNL     1      -6.935   9.742  19.293  0.00  0.00    +0.000 C 
ATOM     33  C   UNL     1      -6.805  10.915  18.328  0.00  0.00    +0.000 C 
ATOM     34  H   UNL     1      -8.807  10.089  20.033  0.00  0.00    +0.000 HD
ENDBRANCH  26  28
ENDBRANCH   4  23
BRANCH   1  35
ATOM     35  N   UNL     1       2.589  11.674  18.003  0.00  0.00    +0.000 N 
ATOM     36  H   UNL     1       2.821  12.654  17.839  0.00  0.00    +0.000 HD
ATOM     37  H   UNL     1       2.734  11.106  17.177  0.00  0.00    +0.000 HD
ENDBRANCH   1  35
TORSDOF 6
ENDMDL
MODEL 2
REMARK VINA RESULT:      -8.9      1.879      2.998
REMARK  Name = 
REMARK  6 active torsions:
REMARK  status: ('A' for Active; 'I' for Inactive)
REMARK    1  A    between atoms: N_1  and  C_2
REMARK    2  A    between atoms: C_5  and  C_6
REMARK    3  A    between atoms: N_9  and  C_10
REMARK    4  A    between atoms: C_18  and  C_19
REMARK    5  A    between atoms: C_24  and  O_25
REMARK    6  A    between atoms: O_25  and  C_26
REMARK                            x       y       z     vdW  Elec       q    Type
REMARK                         _______ _______ _______ _____ _____    ______ ____
ROOT
ATOM      1  C   UNL     1       1.254  11.639  18.665  0.00  0.00    +0.000 A 
ATOM      2  N   UNL     1       0.717  12.883  18.654  0.00  0.00    +0.000 NA
ATOM      3  C   UNL     1      -0.438  13.097  19.327  0.00  0.00    +0.000 A 
ATOM      4  C   UNL     1      -1.123  12.131  20.042  0.00  0.00    +0.000 A 
ATOM      5  C   UNL     1      -0.525  10.851  20.058  0.00  0.00    +0.000 A 
ATOM      6  C   UNL     1       0.690  10.564  19.357  0.00  0.00    +0.000 A 
ENDROOT
BRANCH   6   7
ATOM      7  C   UNL     1       1.236   9.181  19.413  0.00  0.00    +0.000 A 
ATOM      8  N   UNL     1       1.224   8.388  20.473  0.00  0.00    +0.000 NA
ATOM      9  C   UNL     1       1.850   7.239  20.064  0.00  0.00    +0.000 A 
ATOM     10  C   UNL     1       2.154   6.077  20.784  0.00  0.00    +0.000 A 
ATOM     11  C   UNL     1       2.841   5.032  20.148  0.00  0.00    +0.000 A 
ATOM     12  C   UNL     1       3.165   5.090  18.787  0.00  0.00    +0.000 A 
ATOM     13  C   UNL     1       2.878   6.273  18.047  0.00  0.00    +0.000 A 
ATOM     14  C   UNL     1       2.220   7.323  18.731  0.00  0.00    +0.000 A 
ATOM     15  O   UNL     1       1.816   8.581  18.295  0.00  0.00    +0.000 OA
BRANCH  12  16
ATOM     16  O   UNL     1       3.832   4.045  18.137  0.00  0.00    +0.000 OA
BRANCH  16  17
ATOM     17  C   UNL     1       4.994   4.295  17.409  0.00  0.00    +0.000 A 
ATOM     18  C   UNL     1       6.216   4.614  18.011  0.00  0.00    +0.000 A 
ATOM     19  C   UNL     1       7.352   4.882  17.234  0.00  0.00    +0.000 A 
ATOM     20  C   UNL     1       7.295   4.778  15.846  0.00  0.00    +0.000 A 
ATOM     21  C   UNL     1       6.104   4.390  15.236  0.00  0.00    +0.000 A 
ATOM     22  C   UNL     1       4.958   4.146  16.014  0.00  0.00    +0.000 A 
ENDBRANCH  16  17
ENDBRANCH  12  16
ENDBRANCH   6   7
BRANCH   4  23
ATOM     23  C   UNL     1      -2.390  12.473  20.703  0.00  0.00    +0.000 A 
ATOM     24  C   UNL     1      -3.653  12.821  20.157  0.00  0.00    +0.000 A 
ATOM     25  N   UNL     1      -4.594  13.035  21.077  0.00  0.00    +0.000 NA
ATOM     26  N   UNL     1      -3.948  12.826  22.246  0.00  0.00    +0.000 N 
ATOM     27  C   UNL     1      -2.636  12.484  22.062  0.00  0.00    +0.000 A 
BRANCH  26  28
ATOM     28  C   UNL     1      -4.722  12.989  23.486  0.00  0.00    +0.000 C 
ATOM     29  C   UNL     1      -5.751  14.123  23.429  0.00  0.00    +0.000 C 
ATOM     30  C   UNL     1      -5.119  15.492  23.653  0.00  0.00    +0.000 C 
ATOM     31  N   UNL     1      -4.303  15.547  24.865  0.00  0.00    +0.000 NA
ATOM     32  C   UNL     1      -3.281  14.502  24.925  0.00  0.00    +0.000 C 
ATOM     33  C   UNL     1      -3.863  13.104  24.749  0.00  0.00    +0.000 C 
ATOM     34  H   UNL     1      -4.907  15.478  25.685  0.00  0.00    +0.000 HD
ENDBRANCH  26  28
ENDBRANCH   4  23
BRANCH   1  35
ATOM     35  N   UNL     1       2.433  11.577  17.933  0.00  0.00    +0.000 N 
ATOM     36  H   UNL     1       3.187  11.751  18.597  0.00  0.00    +0.000 HD
ATOM     37  H   UNL     1       2.439  12.241  17.168  0.00  0.00    +0.000 HD
ENDBRANCH   1  35
TORSDOF 6
ENDMDL
MODEL 3
REMARK VINA RESULT:      -8.8      0.635      1.188
REMARK  Name = 
REMARK  6 active torsions:
REMARK  status: ('A' for Active; 'I' for Inactive)
REMARK    1  A    between atoms: N_1  and  C_2
REMARK    2  A    between atoms: C_5  and  C_6
REMARK    3  A    between atoms: N_9  and  C_10
REMARK    4  A    between atoms: C_18  and  C_19
REMARK    5  A    between atoms: C_24  and  O_25
REMARK    6  A    between atoms: O_25  and  C_26
REMARK                            x       y       z     vdW  Elec       q    Type
REMARK                         _______ _______ _______ _____ _____    ______ ____
ROOT
ATOM      1  C   UNL     1       1.300  11.642  18.563  0.00  0.00    +0.000 A 
ATOM      2  N   UNL     1       0.752  12.880  18.494  0.00  0.00    +0.000 NA
ATOM      3  C   UNL     1      -0.470  13.080  19.042  0.00  0.00    +0.000 A 
ATOM      4  C   UNL     1      -1.216  12.106  19.683  0.00  0.00    +0.000 A 
ATOM      5  C   UNL     1      -0.607  10.833  19.762  0.00  0.00    +0.000 A 
ATOM      6  C   UNL     1       0.678  10.561  19.192  0.00  0.00    +0.000 A 
ENDROOT
BRANCH   6   7
ATOM      7  C   UNL     1       1.231   9.183  19.306  0.00  0.00    +0.000 A 
ATOM      8  N   UNL     1       1.168   8.412  20.380  0.00  0.00    +0.000 NA
ATOM      9  C   UNL     1       1.825   7.261  20.029  0.00  0.00    +0.000 A 
ATOM     10  C   UNL     1       2.098   6.116  20.788  0.00  0.00    +0.000 A 
ATOM     11  C   UNL     1       2.827   5.065  20.212  0.00  0.00    +0.000 A 
ATOM     12  C   UNL     1       3.224   5.099  18.870  0.00  0.00    +0.000 A 
ATOM     13  C   UNL     1       2.969   6.265  18.091  0.00  0.00    +0.000 A 
ATOM     14  C   UNL     1       2.266   7.322  18.717  0.00  0.00    +0.000 A 
ATOM     15  O   UNL     1       1.877   8.567  18.233  0.00  0.00    +0.000 OA
BRANCH  12  16
ATOM     16  O   UNL     1       3.934   4.048  18.279  0.00  0.00    +0.000 OA
BRANCH  16  17
ATOM     17  C   UNL     1       5.017   4.310  17.442  0.00  0.00    +0.000 A 
ATOM     18  C   UNL     1       6.285   4.658  17.924  0.00  0.00    +0.000 A 
ATOM     19  C   UNL     1       7.337   4.939  17.040  0.00  0.00    +0.000 A 
ATOM     20  C   UNL     1       7.153   4.818  15.665  0.00  0.00    +0.000 A 
ATOM     21  C   UNL     1       5.917   4.401  15.174  0.00  0.00    +0.000 A 
ATOM     22  C   UNL     1       4.854   4.144  16.058  0.00  0.00    +0.000 A 
ENDBRANCH  16  17
ENDBRANCH  12  16
ENDBRANCH   6   7
BRANCH   4  23
ATOM     23  C   UNL     1      -2.548  12.432  20.206  0.00  0.00    +0.000 A 
ATOM     24  C   UNL     1      -2.947  12.934  21.473  0.00  0.00    +0.000 A 
ATOM     25  N   UNL     1      -4.260  13.144  21.577  0.00  0.00    +0.000 NA
ATOM     26  N   UNL     1      -4.737  12.778  20.366  0.00  0.00    +0.000 N 
ATOM     27  C   UNL     1      -3.746  12.355  19.522  0.00  0.00    +0.000 A 
BRANCH  26  28
ATOM     28  C   UNL     1      -6.187  12.889  20.148  0.00  0.00    +0.000 C 
ATOM     29  C   UNL     1      -7.002  11.788  20.833  0.00  0.00    +0.000 C 
ATOM     30  C   UNL     1      -6.992  10.483  20.045  0.00  0.00    +0.000 C 
ATOM     31  N   UNL     1      -7.375  10.665  18.645  0.00  0.00    +0.000 NA
ATOM     32  C   UNL     1      -6.581  11.680  17.954  0.00  0.00    +0.000 C 
ATOM     33  C   UNL     1      -6.590  13.022  18.676  0.00  0.00    +0.000 C 
ATOM     34  H   UNL     1      -8.363  10.913  18.593  0.00  0.00    +0.000 HD
ENDBRANCH  26  28
ENDBRANCH   4  23
BRANCH   1  35
ATOM     35  N   UNL     1       2.549  11.595  17.958  0.00  0.00    +0.000 N 
ATOM     36  H   UNL     1       2.386  11.747  16.963  0.00  0.00    +0.000 HD
ATOM     37  H   UNL     1       3.023  10.717  18.136  0.00  0.00    +0.000 HD
ENDBRANCH   1  35
TORSDOF 6
ENDMDL
MODEL 4
REMARK VINA RESULT:      -8.6      2.653      3.713
REMARK  Name = 
REMARK  6 active torsions:
REMARK  status: ('A' for Active; 'I' for Inactive)
REMARK    1  A    between atoms: N_1  and  C_2
REMARK    2  A    between atoms: C_5  and  C_6
REMARK    3  A    between atoms: N_9  and  C_10
REMARK    4  A    between atoms: C_18  and  C_19
REMARK    5  A    between atoms: C_24  and  O_25
REMARK    6  A    between atoms: O_25  and  C_26
REMARK                            x       y       z     vdW  Elec       q    Type
REMARK                         _______ _______ _______ _____ _____    ______ ____
ROOT
ATOM      1  C   UNL     1      -0.103  12.933  19.164  0.00  0.00    +0.000 A 
ATOM      2  N   UNL     1      -0.876  14.007  19.459  0.00  0.00    +0.000 NA
ATOM      3  C   UNL     1      -1.855  13.868  20.383  0.00  0.00    +0.000 A 
ATOM      4  C   UNL     1      -2.132  12.697  21.067  0.00  0.00    +0.000 A 
ATOM      5  C   UNL     1      -1.293  11.603  20.758  0.00  0.00    +0.000 A 
ATOM      6  C   UNL     1      -0.249  11.689  19.783  0.00  0.00    +0.000 A 
ENDROOT
BRANCH   6   7
ATOM      7  C   UNL     1       0.572  10.478  19.508  0.00  0.00    +0.000 A 
ATOM      8  N   UNL     1       1.183  10.200  18.367  0.00  0.00    +0.000 NA
ATOM      9  C   UNL     1       1.785   8.986  18.572  0.00  0.00    +0.000 A 
ATOM     10  C   UNL     1       2.533   8.195  17.691  0.00  0.00    +0.000 A 
ATOM     11  C   UNL     1       3.025   6.955  18.128  0.00  0.00    +0.000 A 
ATOM     12  C   UNL     1       2.851   6.523  19.447  0.00  0.00    +0.000 A 
ATOM     13  C   UNL     1       2.077   7.309  20.349  0.00  0.00    +0.000 A 
ATOM     14  C   UNL     1       1.562   8.534  19.863  0.00  0.00    +0.000 A 
ATOM     15  O   UNL     1       0.780   9.503  20.484  0.00  0.00    +0.000 OA
BRANCH  12  16
ATOM     16  O   UNL     1       3.356   5.298  19.900  0.00  0.00    +0.000 OA
BRANCH  16  17
ATOM     17  C   UNL     1       2.797   4.099  19.460  0.00  0.00    +0.000 A 
ATOM     18  C   UNL     1       3.540   3.101  18.819  0.00  0.00    +0.000 A 
ATOM     19  C   UNL     1       2.926   1.923  18.372  0.00  0.00    +0.000 A 
ATOM     20  C   UNL     1       1.572   1.700  18.610  0.00  0.00    +0.000 A 
ATOM     21  C   UNL     1       0.834   2.653  19.311  0.00  0.00    +0.000 A 
ATOM     22  C   UNL     1       1.444   3.846  19.738  0.00  0.00    +0.000 A 
ENDBRANCH  16  17
ENDBRANCH  12  16
ENDBRANCH   6   7
BRANCH   4  23
ATOM     23  C   UNL     1      -3.247  12.656  22.023  0.00  0.00    +0.000 A 
ATOM     24  C   UNL     1      -3.263  12.371  23.413  0.00  0.00    +0.000 A 
ATOM     25  N   UNL     1      -4.474  12.463  23.965  0.00  0.00    +0.000 NA
ATOM     26  N   UNL     1      -5.269  12.814  22.929  0.00  0.00    +0.000 N 
ATOM     27  C   UNL     1      -4.572  12.943  21.759  0.00  0.00    +0.000 A 
BRANCH  26  28
ATOM     28  C   UNL     1      -6.701  12.997  23.208  0.00  0.00    +0.000 C 
ATOM     29  C   UNL     1      -7.595  12.862  21.971  0.00  0.00    +0.000 C 
ATOM     30  C   UNL     1      -7.606  14.127  21.121  0.00  0.00    +0.000 C 
ATOM     31  N   UNL     1      -7.915  15.327  21.898  0.00  0.00    +0.000 NA
ATOM     32  C   UNL     1      -7.046  15.506  23.060  0.00  0.00    +0.000 C 
ATOM     33  C   UNL     1      -7.030  14.284  23.972  0.00  0.00    +0.000 C 
ATOM     34  H   UNL     1      -8.888  15.293  22.203  0.00  0.00    +0.000 HD
ENDBRANCH  26  28
ENDBRANCH   4  23
BRANCH   1  35
ATOM     35  N   UNL     1       0.852  13.231  18.201  0.00  0.00    +0.000 N 
ATOM     36  H   UNL     1       1.450  12.408  18.134  0.00  0.00    +0.000 HD
ATOM     37  H   UNL     1       1.378  14.065  18.433  0.00  0.00    +0.000 HD
ENDBRANCH   1  35
TORSDOF 6
ENDMDL
MODEL 5
REMARK VINA RESULT:      -8.6      1.715      2.390
REMARK  Name = 
REMARK  6 active torsions:
REMARK  status: ('A' for Active; 'I' for Inactive)
REMARK    1  A    between atoms: N_1  and  C_2
REMARK    2  A    between atoms: C_5  and  C_6
REMARK    3  A    between atoms: N_9  and  C_10
REMARK    4  A    between atoms: C_18  and  C_19
REMARK    5  A    between atoms: C_24  and  O_25
REMARK    6  A    between atoms: O_25  and  C_26
REMARK                            x       y       z     vdW  Elec       q    Type
REMARK                         _______ _______ _______ _____ _____    ______ ____
ROOT
ATOM      1  C   UNL     1       1.497  11.687  18.395  0.00  0.00    +0.000 A 
ATOM      2  N   UNL     1       1.016  12.950  18.298  0.00  0.00    +0.000 NA
ATOM      3  C   UNL     1      -0.131  13.259  18.947  0.00  0.00    +0.000 A 
ATOM      4  C   UNL     1      -0.862  12.375  19.720  0.00  0.00    +0.000 A 
ATOM      5  C   UNL     1      -0.321  11.073  19.825  0.00  0.00    +0.000 A 
ATOM      6  C   UNL     1       0.883  10.687  19.153  0.00  0.00    +0.000 A 
ENDROOT
BRANCH   6   7
ATOM      7  C   UNL     1       1.366   9.287  19.305  0.00  0.00    +0.000 A 
ATOM      8  N   UNL     1       1.084   8.477  20.314  0.00  0.00    +0.000 NA
ATOM      9  C   UNL     1       1.761   7.318  20.038  0.00  0.00    +0.000 A 
ATOM     10  C   UNL     1       1.858   6.136  20.783  0.00  0.00    +0.000 A 
ATOM     11  C   UNL     1       2.651   5.082  20.303  0.00  0.00    +0.000 A 
ATOM     12  C   UNL     1       3.289   5.154  19.060  0.00  0.00    +0.000 A 
ATOM     13  C   UNL     1       3.215   6.357  18.300  0.00  0.00    +0.000 A 
ATOM     14  C   UNL     1       2.439   7.413  18.833  0.00  0.00    +0.000 A 
ATOM     15  O   UNL     1       2.181   8.690  18.342  0.00  0.00    +0.000 OA
BRANCH  12  16
ATOM     16  O   UNL     1       4.065   4.101  18.562  0.00  0.00    +0.000 OA
BRANCH  16  17
ATOM     17  C   UNL     1       5.016   4.333  17.570  0.00  0.00    +0.000 A 
ATOM     18  C   UNL     1       4.710   4.328  16.205  0.00  0.00    +0.000 A 
ATOM     19  C   UNL     1       5.708   4.542  15.243  0.00  0.00    +0.000 A 
ATOM     20  C   UNL     1       7.015   4.821  15.635  0.00  0.00    +0.000 A 
ATOM     21  C   UNL     1       7.320   4.902  16.993  0.00  0.00    +0.000 A 
ATOM     22  C   UNL     1       6.325   4.662  17.957  0.00  0.00    +0.000 A 
ENDBRANCH  16  17
ENDBRANCH  12  16
ENDBRANCH   6   7
BRANCH   4  23
ATOM     23  C   UNL     1      -2.114  12.815  20.348  0.00  0.00    +0.000 A 
ATOM     24  C   UNL     1      -3.460  12.688  19.915  0.00  0.00    +0.000 A 
ATOM     25  N   UNL     1      -4.349  13.186  20.775  0.00  0.00    +0.000 NA
ATOM     26  N   UNL     1      -3.585  13.647  21.791  0.00  0.00    +0.000 N 
ATOM     27  C   UNL     1      -2.250  13.438  21.574  0.00  0.00    +0.000 A 
BRANCH  26  28
ATOM     28  C   UNL     1      -4.276  14.273  22.927  0.00  0.00    +0.000 C 
ATOM     29  C   UNL     1      -3.761  13.814  24.295  0.00  0.00    +0.000 C 
ATOM     30  C   UNL     1      -4.329  12.461  24.706  0.00  0.00    +0.000 C 
ATOM     31  N   UNL     1      -5.788  12.412  24.620  0.00  0.00    +0.000 NA
ATOM     32  C   UNL     1      -6.306  12.802  23.309  0.00  0.00    +0.000 C 
ATOM     33  C   UNL     1      -5.803  14.170  22.865  0.00  0.00    +0.000 C 
ATOM     34  H   UNL     1      -6.191  13.015  25.337  0.00  0.00    +0.000 HD
ENDBRANCH  26  28
ENDBRANCH   4  23
BRANCH   1  35
ATOM     35  N   UNL     1       2.675  11.524  17.677  0.00  0.00    +0.000 N 
ATOM     36  H   UNL     1       3.122  10.689  18.055  0.00  0.00    +0.000 HD
ATOM     37  H   UNL     1       3.274  12.338  17.741  0.00  0.00    +0.000 HD
ENDBRANCH   1  35
TORSDOF 6
ENDMDL
MODEL 6
REMARK VINA RESULT:      -8.6      1.634      2.233
REMARK  Name = 
REMARK  6 active torsions:
REMARK  status: ('A' for Active; 'I' for Inactive)
REMARK    1  A    between atoms: N_1  and  C_2
REMARK    2  A    between atoms: C_5  and  C_6
REMARK    3  A    between atoms: N_9  and  C_10
REMARK    4  A    between atoms: C_18  and  C_19
REMARK    5  A    between atoms: C_24  and  O_25
REMARK    6  A    between atoms: O_25  and  C_26
REMARK                            x       y       z     vdW  Elec       q    Type
REMARK                         _______ _______ _______ _____ _____    ______ ____
ROOT
ATOM      1  C   UNL     1       1.120  11.430  18.964  0.00  0.00    +0.000 A 
ATOM      2  N   UNL     1       0.601  12.679  19.045  0.00  0.00    +0.000 NA
ATOM      3  C   UNL     1      -0.395  12.912  19.932  0.00  0.00    +0.000 A 
ATOM      4  C   UNL     1      -0.932  11.961  20.781  0.00  0.00    +0.000 A 
ATOM      5  C   UNL     1      -0.353  10.675  20.693  0.00  0.00    +0.000 A 
ATOM      6  C   UNL     1       0.696  10.368  19.767  0.00  0.00    +0.000 A 
ENDROOT
BRANCH   6   7
ATOM      7  C   UNL     1       1.231   8.980  19.730  0.00  0.00    +0.000 A 
ATOM      8  N   UNL     1       1.212   8.117  20.735  0.00  0.00    +0.000 NA
ATOM      9  C   UNL     1       1.829   6.994  20.249  0.00  0.00    +0.000 A 
ATOM     10  C   UNL     1       2.124   5.784  20.890  0.00  0.00    +0.000 A 
ATOM     11  C   UNL     1       2.803   4.778  20.184  0.00  0.00    +0.000 A 
ATOM     12  C   UNL     1       3.127   4.925  18.831  0.00  0.00    +0.000 A 
ATOM     13  C   UNL     1       2.850   6.158  18.171  0.00  0.00    +0.000 A 
ATOM     14  C   UNL     1       2.200   7.164  18.925  0.00  0.00    +0.000 A 
ATOM     15  O   UNL     1       1.806   8.452  18.574  0.00  0.00    +0.000 OA
BRANCH  12  16
ATOM     16  O   UNL     1       3.786   3.921  18.112  0.00  0.00    +0.000 OA
BRANCH  16  17
ATOM     17  C   UNL     1       4.965   4.203  17.425  0.00  0.00    +0.000 A 
ATOM     18  C   UNL     1       6.155   4.561  18.069  0.00  0.00    +0.000 A 
ATOM     19  C   UNL     1       7.309   4.861  17.331  0.00  0.00    +0.000 A 
ATOM     20  C   UNL     1       7.306   4.750  15.944  0.00  0.00    +0.000 A 
ATOM     21  C   UNL     1       6.149   4.324  15.293  0.00  0.00    +0.000 A 
ATOM     22  C   UNL     1       4.984   4.048  16.030  0.00  0.00    +0.000 A 
ENDBRANCH  16  17
ENDBRANCH  12  16
ENDBRANCH   6   7
BRANCH   4  23
ATOM     23  C   UNL     1      -2.039  12.322  21.676  0.00  0.00    +0.000 A 
ATOM     24  C   UNL     1      -2.299  11.952  23.022  0.00  0.00    +0.000 A 
ATOM     25  N   UNL     1      -3.400  12.510  23.527  0.00  0.00    +0.000 NA
ATOM     26  N   UNL     1      -3.874  13.259  22.507  0.00  0.00    +0.000 N 
ATOM     27  C   UNL     1      -3.087  13.177  21.391  0.00  0.00    +0.000 A 
BRANCH  26  28
ATOM     28  C   UNL     1      -5.110  14.020  22.743  0.00  0.00    +0.000 C 
ATOM     29  C   UNL     1      -5.905  13.546  23.964  0.00  0.00    +0.000 C 
ATOM     30  C   UNL     1      -6.735  12.302  23.670  0.00  0.00    +0.000 C 
ATOM     31  N   UNL     1      -7.580  12.453  22.486  0.00  0.00    +0.000 NA
ATOM     32  C   UNL     1      -6.839  12.861  21.293  0.00  0.00    +0.000 C 
ATOM     33  C   UNL     1      -6.022  14.128  21.516  0.00  0.00    +0.000 C 
ATOM     34  H   UNL     1      -8.315  13.134  22.678  0.00  0.00    +0.000 HD
ENDBRANCH  26  28
ENDBRANCH   4  23
BRANCH   1  35
ATOM     35  N   UNL     1       2.129  11.348  18.013  0.00  0.00    +0.000 N 
ATOM     36  H   UNL     1       1.986  12.138  17.383  0.00  0.00    +0.000 HD
ATOM     37  H   UNL     1       2.116  10.463  17.521  0.00  0.00    +0.000 HD
ENDBRANCH   1  35
TORSDOF 6
ENDMDL
MODEL 7
REMARK VINA RESULT:      -8.5      3.769      5.973
REMARK  Name = 
REMARK  6 active torsions:
REMARK  status: ('A' for Active; 'I' for Inactive)
REMARK    1  A    between atoms: N_1  and  C_2
REMARK    2  A    between atoms: C_5  and  C_6
REMARK    3  A    between atoms: N_9  and  C_10
REMARK    4  A    between atoms: C_18  and  C_19
REMARK    5  A    between atoms: C_24  and  O_25
REMARK    6  A    between atoms: O_25  and  C_26
REMARK                            x       y       z     vdW  Elec       q    Type
REMARK                         _______ _______ _______ _____ _____    ______ ____
ROOT
ATOM      1  C   UNL     1      -0.093  10.240  22.424  0.00  0.00    +0.000 A 
ATOM      2  N   UNL     1      -0.530  11.460  22.821  0.00  0.00    +0.000 NA
ATOM      3  C   UNL     1      -0.305  12.524  22.016  0.00  0.00    +0.000 A 
ATOM      4  C   UNL     1       0.344  12.465  20.795  0.00  0.00    +0.000 A 
ATOM      5  C   UNL     1       0.764  11.176  20.395  0.00  0.00    +0.000 A 
ATOM      6  C   UNL     1       0.562  10.016  21.211  0.00  0.00    +0.000 A 
ENDROOT
BRANCH   6   7
ATOM      7  C   UNL     1       1.058   8.702  20.717  0.00  0.00    +0.000 A 
ATOM      8  N   UNL     1       1.050   7.568  21.399  0.00  0.00    +0.000 NA
ATOM      9  C   UNL     1       1.619   6.645  20.560  0.00  0.00    +0.000 A 
ATOM     10  C   UNL     1       1.902   5.291  20.774  0.00  0.00    +0.000 A 
ATOM     11  C   UNL     1       2.530   4.549  19.761  0.00  0.00    +0.000 A 
ATOM     12  C   UNL     1       2.813   5.111  18.512  0.00  0.00    +0.000 A 
ATOM     13  C   UNL     1       2.547   6.493  18.285  0.00  0.00    +0.000 A 
ATOM     14  C   UNL     1       1.950   7.219  19.343  0.00  0.00    +0.000 A 
ATOM     15  O   UNL     1       1.580   8.558  19.431  0.00  0.00    +0.000 OA
BRANCH  12  16
ATOM     16  O   UNL     1       3.420   4.375  17.487  0.00  0.00    +0.000 OA
BRANCH  16  17
ATOM     17  C   UNL     1       4.758   4.589  17.162  0.00  0.00    +0.000 A 
ATOM     18  C   UNL     1       5.182   4.950  15.878  0.00  0.00    +0.000 A 
ATOM     19  C   UNL     1       6.544   5.129  15.595  0.00  0.00    +0.000 A 
ATOM     20  C   UNL     1       7.495   5.006  16.604  0.00  0.00    +0.000 A 
ATOM     21  C   UNL     1       7.081   4.719  17.904  0.00  0.00    +0.000 A 
ATOM     22  C   UNL     1       5.718   4.515  18.184  0.00  0.00    +0.000 A 
ENDBRANCH  16  17
ENDBRANCH  12  16
ENDBRANCH   6   7
BRANCH   4  23
ATOM     23  C   UNL     1       0.565  13.695  20.024  0.00  0.00    +0.000 A 
ATOM     24  C   UNL     1      -0.310  14.424  19.175  0.00  0.00    +0.000 A 
ATOM     25  N   UNL     1       0.237  15.528  18.665  0.00  0.00    +0.000 NA
ATOM     26  N   UNL     1       1.486  15.532  19.181  0.00  0.00    +0.000 N 
ATOM     27  C   UNL     1       1.715  14.460  20.000  0.00  0.00    +0.000 A 
BRANCH  26  28
ATOM     28  C   UNL     1       2.371  16.644  18.803  0.00  0.00    +0.000 C 
ATOM     29  C   UNL     1       3.106  16.428  17.476  0.00  0.00    +0.000 C 
ATOM     30  C   UNL     1       4.322  15.521  17.627  0.00  0.00    +0.000 C 
ATOM     31  N   UNL     1       5.223  15.958  18.693  0.00  0.00    +0.000 NA
ATOM     32  C   UNL     1       4.556  16.129  19.983  0.00  0.00    +0.000 C 
ATOM     33  C   UNL     1       3.354  17.063  19.901  0.00  0.00    +0.000 C 
ATOM     34  H   UNL     1       5.670  16.834  18.422  0.00  0.00    +0.000 HD
ENDBRANCH  26  28
ENDBRANCH   4  23
BRANCH   1  35
ATOM     35  N   UNL     1      -0.396   9.254  23.353  0.00  0.00    +0.000 N 
ATOM     36  H   UNL     1      -0.677   9.743  24.203  0.00  0.00    +0.000 HD
ATOM     37  H   UNL     1       0.386   8.631  23.515  0.00  0.00    +0.000 HD
ENDBRANCH   1  35
TORSDOF 6
ENDMDL
MODEL 8
REMARK VINA RESULT:      -8.5      1.994      2.807
REMARK  Name = 
REMARK  6 active torsions:
REMARK  status: ('A' for Active; 'I' for Inactive)
REMARK    1  A    between atoms: N_1  and  C_2
REMARK    2  A    between atoms: C_5  and  C_6
REMARK    3  A    between atoms: N_9  and  C_10
REMARK    4  A    between atoms: C_18  and  C_19
REMARK    5  A    between atoms: C_24  and  O_25
REMARK    6  A    between atoms: O_25  and  C_26
REMARK                            x       y       z     vdW  Elec       q    Type
REMARK                         _______ _______ _______ _____ _____    ______ ____
ROOT
ATOM      1  C   UNL     1       1.156  11.238  19.012  0.00  0.00    +0.000 A 
ATOM      2  N   UNL     1       0.614  12.474  19.131  0.00  0.00    +0.000 NA
ATOM      3  C   UNL     1      -0.374  12.666  20.036  0.00  0.00    +0.000 A 
ATOM      4  C   UNL     1      -0.882  11.683  20.868  0.00  0.00    +0.000 A 
ATOM      5  C   UNL     1      -0.280  10.411  20.739  0.00  0.00    +0.000 A 
ATOM      6  C   UNL     1       0.763  10.149  19.793  0.00  0.00    +0.000 A 
ENDROOT
BRANCH   6   7
ATOM      7  C   UNL     1       1.324   8.772  19.715  0.00  0.00    +0.000 A 
ATOM      8  N   UNL     1       1.325   7.880  20.693  0.00  0.00    +0.000 NA
ATOM      9  C   UNL     1       1.961   6.784  20.174  0.00  0.00    +0.000 A 
ATOM     10  C   UNL     1       2.281   5.561  20.778  0.00  0.00    +0.000 A 
ATOM     11  C   UNL     1       2.977   4.590  20.042  0.00  0.00    +0.000 A 
ATOM     12  C   UNL     1       3.295   4.783  18.693  0.00  0.00    +0.000 A 
ATOM     13  C   UNL     1       2.993   6.029  18.070  0.00  0.00    +0.000 A 
ATOM     14  C   UNL     1       2.326   7.000  18.855  0.00  0.00    +0.000 A 
ATOM     15  O   UNL     1       1.907   8.290  18.542  0.00  0.00    +0.000 OA
BRANCH  12  16
ATOM     16  O   UNL     1       3.971   3.813  17.943  0.00  0.00    +0.000 OA
BRANCH  16  17
ATOM     17  C   UNL     1       5.086   4.160  17.183  0.00  0.00    +0.000 A 
ATOM     18  C   UNL     1       6.322   4.491  17.750  0.00  0.00    +0.000 A 
ATOM     19  C   UNL     1       7.408   4.858  16.943  0.00  0.00    +0.000 A 
ATOM     20  C   UNL     1       7.290   4.843  15.555  0.00  0.00    +0.000 A 
ATOM     21  C   UNL     1       6.088   4.445  14.974  0.00  0.00    +0.000 A 
ATOM     22  C   UNL     1       4.991   4.101  15.783  0.00  0.00    +0.000 A 
ENDBRANCH  16  17
ENDBRANCH  12  16
ENDBRANCH   6   7
BRANCH   4  23
ATOM     23  C   UNL     1      -1.984  12.000  21.785  0.00  0.00    +0.000 A 
ATOM     24  C   UNL     1      -2.172  11.671  23.154  0.00  0.00    +0.000 A 
ATOM     25  N   UNL     1      -3.295  12.168  23.674  0.00  0.00    +0.000 NA
ATOM     26  N   UNL     1      -3.857  12.833  22.641  0.00  0.00    +0.000 N 
ATOM     27  C   UNL     1      -3.103  12.760  21.502  0.00  0.00    +0.000 A 
BRANCH  26  28
ATOM     28  C   UNL     1      -5.140  13.508  22.889  0.00  0.00    +0.000 C 
ATOM     29  C   UNL     1      -6.054  13.573  21.661  0.00  0.00    +0.000 C 
ATOM     30  C   UNL     1      -5.660  14.690  20.701  0.00  0.00    +0.000 C 
ATOM     31  N   UNL     1      -5.535  15.987  21.366  0.00  0.00    +0.000 NA
ATOM     32  C   UNL     1      -4.632  15.965  22.516  0.00  0.00    +0.000 C 
ATOM     33  C   UNL     1      -5.004  14.892  23.532  0.00  0.00    +0.000 C 
ATOM     34  H   UNL     1      -6.457  16.306  21.664  0.00  0.00    +0.000 HD
ENDBRANCH  26  28
ENDBRANCH   4  23
BRANCH   1  35
ATOM     35  N   UNL     1       2.153  11.200  18.047  0.00  0.00    +0.000 N 
ATOM     36  H   UNL     1       1.865  10.493  17.371  0.00  0.00    +0.000 HD
ATOM     37  H   UNL     1       3.061  10.996  18.446  0.00  0.00    +0.000 HD
ENDBRANCH   1  35
TORSDOF 6
ENDMDL
MODEL 9
REMARK VINA RESULT:      -8.4      3.839      5.211
REMARK  Name = 
REMARK  6 active torsions:
REMARK  status: ('A' for Active; 'I' for Inactive)
REMARK    1  A    between atoms: N_1  and  C_2
REMARK    2  A    between atoms: C_5  and  C_6
REMARK    3  A    between atoms: N_9  and  C_10
REMARK    4  A    between atoms: C_18  and  C_19
REMARK    5  A    between atoms: C_24  and  O_25
REMARK    6  A    between atoms: O_25  and  C_26
REMARK                            x       y       z     vdW  Elec       q    Type
REMARK                         _______ _______ _______ _____ _____    ______ ____
ROOT
ATOM      1  C   UNL     1      -0.011  10.242  22.141  0.00  0.00    +0.000 A 
ATOM      2  N   UNL     1      -0.412  11.490  22.487  0.00  0.00    +0.000 NA
ATOM      3  C   UNL     1      -0.018  12.534  21.721  0.00  0.00    +0.000 A 
ATOM      4  C   UNL     1       0.773  12.428  20.591  0.00  0.00    +0.000 A 
ATOM      5  C   UNL     1       1.154  11.113  20.240  0.00  0.00    +0.000 A 
ATOM      6  C   UNL     1       0.774   9.972  21.018  0.00  0.00    +0.000 A 
ENDROOT
BRANCH   6   7
ATOM      7  C   UNL     1       1.239   8.626  20.583  0.00  0.00    +0.000 A 
ATOM      8  N   UNL     1       1.197   7.521  21.311  0.00  0.00    +0.000 NA
ATOM      9  C   UNL     1       1.749   6.551  20.516  0.00  0.00    +0.000 A 
ATOM     10  C   UNL     1       1.995   5.200  20.788  0.00  0.00    +0.000 A 
ATOM     11  C   UNL     1       2.611   4.401  19.812  0.00  0.00    +0.000 A 
ATOM     12  C   UNL     1       2.918   4.903  18.542  0.00  0.00    +0.000 A 
ATOM     13  C   UNL     1       2.690   6.280  18.257  0.00  0.00    +0.000 A 
ATOM     14  C   UNL     1       2.104   7.065  19.279  0.00  0.00    +0.000 A 
ATOM     15  O   UNL     1       1.768   8.416  19.309  0.00  0.00    +0.000 OA
BRANCH  12  16
ATOM     16  O   UNL     1       3.513   4.110  17.554  0.00  0.00    +0.000 OA
BRANCH  16  17
ATOM     17  C   UNL     1       4.814   4.371  17.130  0.00  0.00    +0.000 A 
ATOM     18  C   UNL     1       5.900   4.455  18.009  0.00  0.00    +0.000 A 
ATOM     19  C   UNL     1       7.188   4.745  17.535  0.00  0.00    +0.000 A 
ATOM     20  C   UNL     1       7.418   4.898  16.171  0.00  0.00    +0.000 A 
ATOM     21  C   UNL     1       6.360   4.745  15.276  0.00  0.00    +0.000 A 
ATOM     22  C   UNL     1       5.064   4.479  15.753  0.00  0.00    +0.000 A 
ENDBRANCH  16  17
ENDBRANCH  12  16
ENDBRANCH   6   7
BRANCH   4  23
ATOM     23  C   UNL     1       1.170  13.638  19.860  0.00  0.00    +0.000 A 
ATOM     24  C   UNL     1       1.922  13.793  18.666  0.00  0.00    +0.000 A 
ATOM     25  N   UNL     1       2.055  15.062  18.278  0.00  0.00    +0.000 NA
ATOM     26  N   UNL     1       1.382  15.756  19.223  0.00  0.00    +0.000 N 
ATOM     27  C   UNL     1       0.837  14.941  20.177  0.00  0.00    +0.000 A 
BRANCH  26  28
ATOM     28  C   UNL     1       1.339  17.219  19.086  0.00  0.00    +0.000 C 
ATOM     29  C   UNL     1       0.570  17.924  20.207  0.00  0.00    +0.000 C 
ATOM     30  C   UNL     1      -0.940  17.868  20.001  0.00  0.00    +0.000 C 
ATOM     31  N   UNL     1      -1.347  18.333  18.676  0.00  0.00    +0.000 NA
ATOM     32  C   UNL     1      -0.661  17.644  17.583  0.00  0.00    +0.000 C 
ATOM     33  C   UNL     1       0.857  17.705  17.715  0.00  0.00    +0.000 C 
ATOM     34  H   UNL     1      -1.180  19.336  18.602  0.00  0.00    +0.000 HD
ENDBRANCH  26  28
ENDBRANCH   4  23
BRANCH   1  35
ATOM     35  N   UNL     1      -0.493   9.281  23.019  0.00  0.00    +0.000 N 
ATOM     36  H   UNL     1      -1.509   9.370  23.005  0.00  0.00    +0.000 HD
ATOM     37  H   UNL     1      -0.115   9.395  23.952  0.00  0.00    +0.000 HD
ENDBRANCH   1  35
TORSDOF 6
ENDMDL
