MODEL 1
REMARK VINA RESULT:      -8.1      0.000      0.000
REMARK  Name = 
REMARK  8 active torsions:
REMARK  status: ('A' for Active; 'I' for Inactive)
REMARK    1  A    between atoms: C_1  and  O_2
REMARK    2  A    between atoms: O_2  and  C_3
REMARK    3  A    between atoms: C_6  and  C_7
REMARK    4  A    between atoms: N_11  and  C_12
REMARK    5  A    between atoms: C_12  and  C_13
REMARK    6  A    between atoms: C_16  and  N_17
REMARK    7  A    between atoms: C_22  and  O_23
REMARK    8  A    between atoms: O_23  and  C_24
REMARK                            x       y       z     vdW  Elec       q    Type
REMARK                         _______ _______ _______ _____ _____    ______ ____
ROOT
ATOM      1  C   UNL     1       2.189   7.950  20.262  0.00  0.00    +0.000 C 
ATOM      2  C   UNL     1       1.200   8.255  21.391  0.00  0.00    +0.000 C 
ATOM      3  C   UNL     1       0.209   9.228  20.808  0.00  0.00    +0.000 C 
ATOM      4  O   UNL     1      -0.767   9.660  21.409  0.00  0.00    +0.000 OA
ATOM      5  N   UNL     1       0.617   9.592  19.541  0.00  0.00    +0.000 N 
ATOM      6  C   UNL     1       1.844   8.944  19.138  0.00  0.00    +0.000 C 
ENDROOT
BRANCH   1  10
ATOM      7  C   UNL     1       1.859   3.957  18.619  0.00  0.00    +0.000 A 
ATOM      8  C   UNL     1       1.242   4.290  19.838  0.00  0.00    +0.000 A 
ATOM      9  C   UNL     1       1.365   5.558  20.396  0.00  0.00    +0.000 A 
ATOM     10  C   UNL     1       2.166   6.514  19.779  0.00  0.00    +0.000 A 
ATOM     11  C   UNL     1       2.915   6.123  18.653  0.00  0.00    +0.000 A 
ATOM     12  C   UNL     1       2.778   4.850  18.061  0.00  0.00    +0.000 A 
BRANCH   7  14
ATOM     13  C   UNL     1       2.575   1.773  18.172  0.00  0.00    +0.000 C 
ATOM     14  O   UNL     1       1.563   2.773  17.994  0.00  0.00    +0.000 OA
ENDBRANCH   7  14
BRANCH  12  15
ATOM     15  O   UNL     1       3.635   4.676  17.011  0.00  0.00    +0.000 OA
BRANCH  15  16
ATOM     16  C   UNL     1       4.918   5.301  16.946  0.00  0.00    +0.000 C 
ATOM     17  C   UNL     1       5.955   4.525  17.751  0.00  0.00    +0.000 C 
ATOM     18  C   UNL     1       7.252   4.563  16.959  0.00  0.00    +0.000 C 
ATOM     19  C   UNL     1       6.871   4.798  15.508  0.00  0.00    +0.000 C 
ATOM     20  C   UNL     1       5.398   5.184  15.489  0.00  0.00    +0.000 C 
ENDBRANCH  15  16
ENDBRANCH  12  15
ENDBRANCH   1  10
BRANCH   5  21
ATOM     21  C   UNL     1       0.151  10.812  18.909  0.00  0.00    +0.000 C 
BRANCH  21  22
ATOM     22  C   UNL     1      -1.273  10.784  18.412  0.00  0.00    +0.000 A 
ATOM     23  C   UNL     1      -2.243  11.631  18.959  0.00  0.00    +0.000 A 
ATOM     24  C   UNL     1      -3.521  11.711  18.389  0.00  0.00    +0.000 A 
ATOM     25  C   UNL     1      -3.843  10.984  17.240  0.00  0.00    +0.000 A 
ATOM     26  C   UNL     1      -2.906  10.076  16.747  0.00  0.00    +0.000 A 
ATOM     27  C   UNL     1      -1.627   9.991  17.312  0.00  0.00    +0.000 A 
BRANCH  25  28
ATOM     28  N   UNL     1      -5.147  11.003  16.726  0.00  0.00    +0.000 N 
ATOM     29  H   UNL     1      -5.185  10.859  15.721  0.00  0.00    +0.000 HD
ATOM     30  H   UNL     1      -5.787  10.390  17.222  0.00  0.00    +0.000 HD
ENDBRANCH  25  28
ENDBRANCH  21  22
ENDBRANCH   5  21
TORSDOF 7
ENDMDL
MODEL 2
REMARK VINA RESULT:      -7.8      2.480      3.467
REMARK  Name = 
REMARK  8 active torsions:
REMARK  status: ('A' for Active; 'I' for Inactive)
REMARK    1  A    between atoms: C_1  and  O_2
REMARK    2  A    between atoms: O_2  and  C_3
REMARK    3  A    between atoms: C_6  and  C_7
REMARK    4  A    between atoms: N_11  and  C_12
REMARK    5  A    between atoms: C_12  and  C_13
REMARK    6  A    between atoms: C_16  and  N_17
REMARK    7  A    between atoms: C_22  and  O_23
REMARK    8  A    between atoms: O_23  and  C_24
REMARK                            x       y       z     vdW  Elec       q    Type
REMARK                         _______ _______ _______ _____ _____    ______ ____
ROOT
ATOM      1  C   UNL     1       1.367   9.931  17.942  0.00  0.00    +0.000 C 
ATOM      2  C   UNL     1       2.223  11.176  18.191  0.00  0.00    +0.000 C 
ATOM      3  C   UNL     1       1.320  12.152  18.899  0.00  0.00    +0.000 C 
ATOM      4  O   UNL     1       1.678  13.250  19.308  0.00  0.00    +0.000 OA
ATOM      5  N   UNL     1       0.039  11.641  18.943  0.00  0.00    +0.000 N 
ATOM      6  C   UNL     1      -0.068  10.339  18.323  0.00  0.00    +0.000 C 
ENDROOT
BRANCH   1  10
ATOM      7  C   UNL     1       2.377   6.209  19.910  0.00  0.00    +0.000 A 
ATOM      8  C   UNL     1       1.736   7.245  20.611  0.00  0.00    +0.000 A 
ATOM      9  C   UNL     1       1.433   8.459  20.002  0.00  0.00    +0.000 A 
ATOM     10  C   UNL     1       1.825   8.694  18.688  0.00  0.00    +0.000 A 
ATOM     11  C   UNL     1       2.613   7.720  18.048  0.00  0.00    +0.000 A 
ATOM     12  C   UNL     1       2.903   6.475  18.642  0.00  0.00    +0.000 A 
BRANCH   7  14
ATOM     13  C   UNL     1       1.234   4.262  20.532  0.00  0.00    +0.000 C 
ATOM     14  O   UNL     1       2.485   4.960  20.466  0.00  0.00    +0.000 OA
ENDBRANCH   7  14
BRANCH  12  15
ATOM     15  O   UNL     1       3.721   5.709  17.860  0.00  0.00    +0.000 OA
BRANCH  15  16
ATOM     16  C   UNL     1       5.101   6.013  17.652  0.00  0.00    +0.000 C 
ATOM     17  C   UNL     1       5.993   5.219  18.602  0.00  0.00    +0.000 C 
ATOM     18  C   UNL     1       7.225   4.806  17.814  0.00  0.00    +0.000 C 
ATOM     19  C   UNL     1       6.826   4.804  16.349  0.00  0.00    +0.000 C 
ATOM     20  C   UNL     1       5.467   5.487  16.253  0.00  0.00    +0.000 C 
ENDBRANCH  15  16
ENDBRANCH  12  15
ENDBRANCH   1  10
BRANCH   5  21
ATOM     21  C   UNL     1      -1.118  12.493  19.140  0.00  0.00    +0.000 C 
BRANCH  21  22
ATOM     22  C   UNL     1      -1.853  12.300  20.443  0.00  0.00    +0.000 A 
ATOM     23  C   UNL     1      -1.204  11.769  21.564  0.00  0.00    +0.000 A 
ATOM     24  C   UNL     1      -1.845  11.739  22.810  0.00  0.00    +0.000 A 
ATOM     25  C   UNL     1      -3.126  12.275  22.973  0.00  0.00    +0.000 A 
ATOM     26  C   UNL     1      -3.805  12.723  21.839  0.00  0.00    +0.000 A 
ATOM     27  C   UNL     1      -3.170  12.756  20.592  0.00  0.00    +0.000 A 
BRANCH  25  28
ATOM     28  N   UNL     1      -3.794  12.163  24.200  0.00  0.00    +0.000 N 
ATOM     29  H   UNL     1      -3.367  12.710  24.941  0.00  0.00    +0.000 HD
ATOM     30  H   UNL     1      -4.794  12.330  24.134  0.00  0.00    +0.000 HD
ENDBRANCH  25  28
ENDBRANCH  21  22
ENDBRANCH   5  21
TORSDOF 7
ENDMDL
MODEL 3
REMARK VINA RESULT:      -7.7      3.462      8.974
REMARK  Name = 
REMARK  8 active torsions:
REMARK  status: ('A' for Active; 'I' for Inactive)
REMARK    1  A    between atoms: C_1  and  O_2
REMARK    2  A    between atoms: O_2  and  C_3
REMARK    3  A    between atoms: C_6  and  C_7
REMARK    4  A    between atoms: N_11  and  C_12
REMARK    5  A    between atoms: C_12  and  C_13
REMARK    6  A    between atoms: C_16  and  N_17
REMARK    7  A    between atoms: C_22  and  O_23
REMARK    8  A    between atoms: O_23  and  C_24
REMARK                            x       y       z     vdW  Elec       q    Type
REMARK                         _______ _______ _______ _____ _____    ______ ____
ROOT
ATOM      1  C   UNL     1       2.281   5.673  19.201  0.00  0.00    +0.000 C 
ATOM      2  C   UNL     1       3.384   5.198  20.151  0.00  0.00    +0.000 C 
ATOM      3  C   UNL     1       4.384   4.481  19.281  0.00  0.00    +0.000 C 
ATOM      4  O   UNL     1       5.436   4.005  19.690  0.00  0.00    +0.000 OA
ATOM      5  N   UNL     1       3.891   4.392  17.995  0.00  0.00    +0.000 N 
ATOM      6  C   UNL     1       2.591   5.008  17.848  0.00  0.00    +0.000 C 
ENDROOT
BRANCH   1  10
ATOM      7  C   UNL     1       1.567   9.923  18.780  0.00  0.00    +0.000 A 
ATOM      8  C   UNL     1       2.198   9.193  17.759  0.00  0.00    +0.000 A 
ATOM      9  C   UNL     1       2.464   7.834  17.891  0.00  0.00    +0.000 A 
ATOM     10  C   UNL     1       2.163   7.180  19.081  0.00  0.00    +0.000 A 
ATOM     11  C   UNL     1       1.688   7.951  20.159  0.00  0.00    +0.000 A 
ATOM     12  C   UNL     1       1.388   9.322  20.030  0.00  0.00    +0.000 A 
BRANCH   7  14
ATOM     13  C   UNL     1       2.213  12.131  18.340  0.00  0.00    +0.000 C 
ATOM     14  O   UNL     1       1.138  11.206  18.551  0.00  0.00    +0.000 OA
ENDBRANCH   7  14
BRANCH  12  15
ATOM     15  O   UNL     1       0.988   9.875  21.214  0.00  0.00    +0.000 OA
BRANCH  15  16
ATOM     16  C   UNL     1      -0.364  10.261  21.471  0.00  0.00    +0.000 C 
ATOM     17  C   UNL     1      -0.752   9.987  22.920  0.00  0.00    +0.000 C 
ATOM     18  C   UNL     1      -1.621  11.149  23.374  0.00  0.00    +0.000 C 
ATOM     19  C   UNL     1      -1.270  12.330  22.487  0.00  0.00    +0.000 C 
ATOM     20  C   UNL     1      -0.422  11.793  21.341  0.00  0.00    +0.000 C 
ENDBRANCH  15  16
ENDBRANCH  12  15
ENDBRANCH   1  10
BRANCH   5  21
ATOM     21  C   UNL     1       4.381   3.402  17.055  0.00  0.00    +0.000 C 
BRANCH  21  22
ATOM     22  C   UNL     1       5.441   3.883  16.097  0.00  0.00    +0.000 A 
ATOM     23  C   UNL     1       5.390   3.550  14.739  0.00  0.00    +0.000 A 
ATOM     24  C   UNL     1       6.287   4.126  13.829  0.00  0.00    +0.000 A 
ATOM     25  C   UNL     1       7.222   5.078  14.247  0.00  0.00    +0.000 A 
ATOM     26  C   UNL     1       7.331   5.344  15.612  0.00  0.00    +0.000 A 
ATOM     27  C   UNL     1       6.438   4.771  16.526  0.00  0.00    +0.000 A 
BRANCH  25  28
ATOM     28  N   UNL     1       8.171   5.585  13.349  0.00  0.00    +0.000 N 
ATOM     29  H   UNL     1       7.795   6.293  12.724  0.00  0.00    +0.000 HD
ATOM     30  H   UNL     1       9.029   5.893  13.797  0.00  0.00    +0.000 HD
ENDBRANCH  25  28
ENDBRANCH  21  22
ENDBRANCH   5  21
TORSDOF 7
ENDMDL
MODEL 4
REMARK VINA RESULT:      -7.7      0.753      1.087
REMARK  Name = 
REMARK  8 active torsions:
REMARK  status: ('A' for Active; 'I' for Inactive)
REMARK    1  A    between atoms: C_1  and  O_2
REMARK    2  A    between atoms: O_2  and  C_3
REMARK    3  A    between atoms: C_6  and  C_7
REMARK    4  A    between atoms: N_11  and  C_12
REMARK    5  A    between atoms: C_12  and  C_13
REMARK    6  A    between atoms: C_16  and  N_17
REMARK    7  A    between atoms: C_22  and  O_23
REMARK    8  A    between atoms: O_23  and  C_24
REMARK                            x       y       z     vdW  Elec       q    Type
REMARK                         _______ _______ _______ _____ _____    ______ ____
ROOT
ATOM      1  C   UNL     1       2.121   8.001  20.211  0.00  0.00    +0.000 C 
ATOM      2  C   UNL     1       1.259   8.478  21.383  0.00  0.00    +0.000 C 
ATOM      3  C   UNL     1       0.257   9.431  20.785  0.00  0.00    +0.000 C 
ATOM      4  O   UNL     1      -0.638   9.977  21.419  0.00  0.00    +0.000 OA
ATOM      5  N   UNL     1       0.556   9.633  19.453  0.00  0.00    +0.000 N 
ATOM      6  C   UNL     1       1.711   8.882  19.017  0.00  0.00    +0.000 C 
ENDROOT
BRANCH   1  10
ATOM      7  C   UNL     1       1.441   3.869  19.109  0.00  0.00    +0.000 A 
ATOM      8  C   UNL     1       1.094   4.342  20.387  0.00  0.00    +0.000 A 
ATOM      9  C   UNL     1       1.335   5.658  20.768  0.00  0.00    +0.000 A 
ATOM     10  C   UNL     1       1.993   6.523  19.899  0.00  0.00    +0.000 A 
ATOM     11  C   UNL     1       2.487   5.999  18.690  0.00  0.00    +0.000 A 
ATOM     12  C   UNL     1       2.226   4.676  18.280  0.00  0.00    +0.000 A 
BRANCH   7  14
ATOM     13  C   UNL     1       1.987   1.601  18.904  0.00  0.00    +0.000 C 
ATOM     14  O   UNL     1       1.016   2.635  18.689  0.00  0.00    +0.000 OA
ENDBRANCH   7  14
BRANCH  12  15
ATOM     15  O   UNL     1       2.843   4.371  17.099  0.00  0.00    +0.000 OA
BRANCH  15  16
ATOM     16  C   UNL     1       4.264   4.318  16.959  0.00  0.00    +0.000 C 
ATOM     17  C   UNL     1       4.842   5.693  16.641  0.00  0.00    +0.000 C 
ATOM     18  C   UNL     1       6.146   5.816  17.411  0.00  0.00    +0.000 C 
ATOM     19  C   UNL     1       6.052   4.859  18.586  0.00  0.00    +0.000 C 
ATOM     20  C   UNL     1       4.835   3.973  18.345  0.00  0.00    +0.000 C 
ENDBRANCH  15  16
ENDBRANCH  12  15
ENDBRANCH   1  10
BRANCH   5  21
ATOM     21  C   UNL     1       0.082  10.799  18.731  0.00  0.00    +0.000 C 
BRANCH  21  22
ATOM     22  C   UNL     1      -1.383  10.791  18.373  0.00  0.00    +0.000 A 
ATOM     23  C   UNL     1      -2.275  11.687  18.972  0.00  0.00    +0.000 A 
ATOM     24  C   UNL     1      -3.600  11.780  18.524  0.00  0.00    +0.000 A 
ATOM     25  C   UNL     1      -4.048  11.015  17.443  0.00  0.00    +0.000 A 
ATOM     26  C   UNL     1      -3.185  10.060  16.905  0.00  0.00    +0.000 A 
ATOM     27  C   UNL     1      -1.861   9.962  17.348  0.00  0.00    +0.000 A 
BRANCH  25  28
ATOM     28  N   UNL     1      -5.394  11.050  17.056  0.00  0.00    +0.000 N 
ATOM     29  H   UNL     1      -5.996  11.510  17.733  0.00  0.00    +0.000 HD
ATOM     30  H   UNL     1      -5.537  11.409  16.116  0.00  0.00    +0.000 HD
ENDBRANCH  25  28
ENDBRANCH  21  22
ENDBRANCH   5  21
TORSDOF 7
ENDMDL
MODEL 5
REMARK VINA RESULT:      -7.5      2.614      3.622
REMARK  Name = 
REMARK  8 active torsions:
REMARK  status: ('A' for Active; 'I' for Inactive)
REMARK    1  A    between atoms: C_1  and  O_2
REMARK    2  A    between atoms: O_2  and  C_3
REMARK    3  A    between atoms: C_6  and  C_7
REMARK    4  A    between atoms: N_11  and  C_12
REMARK    5  A    between atoms: C_12  and  C_13
REMARK    6  A    between atoms: C_16  and  N_17
REMARK    7  A    between atoms: C_22  and  O_23
REMARK    8  A    between atoms: O_23  and  C_24
REMARK                            x       y       z     vdW  Elec       q    Type
REMARK                         _______ _______ _______ _____ _____    ______ ____
ROOT
ATOM      1  C   UNL     1       1.235  10.039  18.107  0.00  0.00    +0.000 C 
ATOM      2  C   UNL     1       2.317  11.118  17.999  0.00  0.00    +0.000 C 
ATOM      3  C   UNL     1       1.773  12.311  18.742  0.00  0.00    +0.000 C 
ATOM      4  O   UNL     1       2.389  13.355  18.913  0.00  0.00    +0.000 OA
ATOM      5  N   UNL     1       0.471  12.057  19.124  0.00  0.00    +0.000 N 
ATOM      6  C   UNL     1       0.014  10.745  18.724  0.00  0.00    +0.000 C 
ENDROOT
BRANCH   1  10
ATOM      7  C   UNL     1       2.103   6.363  20.223  0.00  0.00    +0.000 A 
ATOM      8  C   UNL     1       1.521   7.457  20.886  0.00  0.00    +0.000 A 
ATOM      9  C   UNL     1       1.266   8.656  20.229  0.00  0.00    +0.000 A 
ATOM     10  C   UNL     1       1.647   8.816  18.901  0.00  0.00    +0.000 A 
ATOM     11  C   UNL     1       2.380   7.779  18.294  0.00  0.00    +0.000 A 
ATOM     12  C   UNL     1       2.621   6.548  18.938  0.00  0.00    +0.000 A 
BRANCH   7  14
ATOM     13  C   UNL     1       1.075   4.273  20.470  0.00  0.00    +0.000 C 
ATOM     14  O   UNL     1       2.162   5.135  20.832  0.00  0.00    +0.000 OA
ENDBRANCH   7  14
BRANCH  12  15
ATOM     15  O   UNL     1       3.391   5.712  18.179  0.00  0.00    +0.000 OA
BRANCH  15  16
ATOM     16  C   UNL     1       4.754   5.993  17.857  0.00  0.00    +0.000 C 
ATOM     17  C   UNL     1       5.705   5.370  18.875  0.00  0.00    +0.000 C 
ATOM     18  C   UNL     1       6.904   4.849  18.101  0.00  0.00    +0.000 C 
ATOM     19  C   UNL     1       6.436   4.610  16.677  0.00  0.00    +0.000 C 
ATOM     20  C   UNL     1       5.063   5.255  16.543  0.00  0.00    +0.000 C 
ENDBRANCH  15  16
ENDBRANCH  12  15
ENDBRANCH   1  10
BRANCH   5  21
ATOM     21  C   UNL     1      -0.454  13.127  19.444  0.00  0.00    +0.000 C 
BRANCH  21  22
ATOM     22  C   UNL     1      -1.287  12.917  20.684  0.00  0.00    +0.000 A 
ATOM     23  C   UNL     1      -2.678  13.073  20.652  0.00  0.00    +0.000 A 
ATOM     24  C   UNL     1      -3.458  12.726  21.764  0.00  0.00    +0.000 A 
ATOM     25  C   UNL     1      -2.875  12.178  22.909  0.00  0.00    +0.000 A 
ATOM     26  C   UNL     1      -1.483  12.105  22.974  0.00  0.00    +0.000 A 
ATOM     27  C   UNL     1      -0.698  12.450  21.867  0.00  0.00    +0.000 A 
BRANCH  25  28
ATOM     28  N   UNL     1      -3.650  11.914  24.047  0.00  0.00    +0.000 N 
ATOM     29  H   UNL     1      -3.140  12.031  24.917  0.00  0.00    +0.000 HD
ATOM     30  H   UNL     1      -4.537  12.410  24.058  0.00  0.00    +0.000 HD
ENDBRANCH  25  28
ENDBRANCH  21  22
ENDBRANCH   5  21
TORSDOF 7
ENDMDL
MODEL 6
REMARK VINA RESULT:      -7.5      1.266      3.175
REMARK  Name = 
REMARK  8 active torsions:
REMARK  status: ('A' for Active; 'I' for Inactive)
REMARK    1  A    between atoms: C_1  and  O_2
REMARK    2  A    between atoms: O_2  and  C_3
REMARK    3  A    between atoms: C_6  and  C_7
REMARK    4  A    between atoms: N_11  and  C_12
REMARK    5  A    between atoms: C_12  and  C_13
REMARK    6  A    between atoms: C_16  and  N_17
REMARK    7  A    between atoms: C_22  and  O_23
REMARK    8  A    between atoms: O_23  and  C_24
REMARK                            x       y       z     vdW  Elec       q    Type
REMARK                         _______ _______ _______ _____ _____    ______ ____
ROOT
ATOM      1  C   UNL     1       2.221   8.319  19.926  0.00  0.00    +0.000 C 
ATOM      2  C   UNL     1       1.342   7.839  21.084  0.00  0.00    +0.000 C 
ATOM      3  C   UNL     1       0.033   8.570  20.928  0.00  0.00    +0.000 C 
ATOM      4  O   UNL     1      -0.941   8.399  21.650  0.00  0.00    +0.000 OA
ATOM      5  N   UNL     1       0.143   9.490  19.905  0.00  0.00    +0.000 N 
ATOM      6  C   UNL     1       1.447   9.483  19.281  0.00  0.00    +0.000 C 
ENDROOT
BRANCH   1  10
ATOM      7  C   UNL     1       3.456   5.084  17.328  0.00  0.00    +0.000 A 
ATOM      8  C   UNL     1       4.015   6.367  17.198  0.00  0.00    +0.000 A 
ATOM      9  C   UNL     1       3.606   7.425  18.003  0.00  0.00    +0.000 A 
ATOM     10  C   UNL     1       2.576   7.243  18.920  0.00  0.00    +0.000 A 
ATOM     11  C   UNL     1       1.907   6.005  18.927  0.00  0.00    +0.000 A 
ATOM     12  C   UNL     1       2.328   4.916  18.137  0.00  0.00    +0.000 A 
BRANCH   7  14
ATOM     13  C   UNL     1       5.442   4.066  16.617  0.00  0.00    +0.000 C 
ATOM     14  O   UNL     1       4.010   4.017  16.666  0.00  0.00    +0.000 OA
ENDBRANCH   7  14
BRANCH  12  15
ATOM     15  O   UNL     1       1.504   3.834  18.269  0.00  0.00    +0.000 OA
BRANCH  15  16
ATOM     16  C   UNL     1       1.741   2.791  19.217  0.00  0.00    +0.000 C 
ATOM     17  C   UNL     1       3.139   2.895  19.818  0.00  0.00    +0.000 C 
ATOM     18  C   UNL     1       3.017   2.537  21.290  0.00  0.00    +0.000 C 
ATOM     19  C   UNL     1       1.578   2.809  21.688  0.00  0.00    +0.000 C 
ATOM     20  C   UNL     1       0.794   3.043  20.403  0.00  0.00    +0.000 C 
ENDBRANCH  15  16
ENDBRANCH  12  15
ENDBRANCH   1  10
BRANCH   5  21
ATOM     21  C   UNL     1      -0.751  10.627  19.801  0.00  0.00    +0.000 C 
BRANCH  21  22
ATOM     22  C   UNL     1      -1.737  10.577  18.661  0.00  0.00    +0.000 A 
ATOM     23  C   UNL     1      -2.896  11.362  18.676  0.00  0.00    +0.000 A 
ATOM     24  C   UNL     1      -3.726  11.428  17.549  0.00  0.00    +0.000 A 
ATOM     25  C   UNL     1      -3.396  10.750  16.372  0.00  0.00    +0.000 A 
ATOM     26  C   UNL     1      -2.290   9.899  16.387  0.00  0.00    +0.000 A 
ATOM     27  C   UNL     1      -1.457   9.828  17.509  0.00  0.00    +0.000 A 
BRANCH  25  28
ATOM     28  N   UNL     1      -4.273  10.751  15.279  0.00  0.00    +0.000 N 
ATOM     29  H   UNL     1      -4.662   9.835  15.075  0.00  0.00    +0.000 HD
ATOM     30  H   UNL     1      -4.995  11.464  15.338  0.00  0.00    +0.000 HD
ENDBRANCH  25  28
ENDBRANCH  21  22
ENDBRANCH   5  21
TORSDOF 7
ENDMDL
MODEL 7
REMARK VINA RESULT:      -7.4      2.519      4.026
REMARK  Name = 
REMARK  8 active torsions:
REMARK  status: ('A' for Active; 'I' for Inactive)
REMARK    1  A    between atoms: C_1  and  O_2
REMARK    2  A    between atoms: O_2  and  C_3
REMARK    3  A    between atoms: C_6  and  C_7
REMARK    4  A    between atoms: N_11  and  C_12
REMARK    5  A    between atoms: C_12  and  C_13
REMARK    6  A    between atoms: C_16  and  N_17
REMARK    7  A    between atoms: C_22  and  O_23
REMARK    8  A    between atoms: O_23  and  C_24
REMARK                            x       y       z     vdW  Elec       q    Type
REMARK                         _______ _______ _______ _____ _____    ______ ____
ROOT
ATOM      1  C   UNL     1       1.095   8.911  18.608  0.00  0.00    +0.000 C 
ATOM      2  C   UNL     1       1.360  10.158  17.761  0.00  0.00    +0.000 C 
ATOM      3  C   UNL     1       1.575  11.278  18.746  0.00  0.00    +0.000 C 
ATOM      4  O   UNL     1       1.866  12.425  18.433  0.00  0.00    +0.000 OA
ATOM      5  N   UNL     1       1.324  10.817  20.023  0.00  0.00    +0.000 N 
ATOM      6  C   UNL     1       0.947   9.421  20.053  0.00  0.00    +0.000 C 
ENDROOT
BRANCH   1  10
ATOM      7  C   UNL     1       4.319   6.021  18.554  0.00  0.00    +0.000 A 
ATOM      8  C   UNL     1       4.221   7.011  17.562  0.00  0.00    +0.000 A 
ATOM      9  C   UNL     1       3.174   7.927  17.546  0.00  0.00    +0.000 A 
ATOM     10  C   UNL     1       2.156   7.835  18.490  0.00  0.00    +0.000 A 
ATOM     11  C   UNL     1       2.170   6.740  19.374  0.00  0.00    +0.000 A 
ATOM     12  C   UNL     1       3.239   5.822  19.420  0.00  0.00    +0.000 A 
BRANCH   7  14
ATOM     13  C   UNL     1       5.757   4.520  17.475  0.00  0.00    +0.000 C 
ATOM     14  O   UNL     1       5.455   5.262  18.665  0.00  0.00    +0.000 OA
ENDBRANCH   7  14
BRANCH  12  15
ATOM     15  O   UNL     1       3.017   4.817  20.320  0.00  0.00    +0.000 OA
BRANCH  15  16
ATOM     16  C   UNL     1       2.500   3.540  19.943  0.00  0.00    +0.000 C 
ATOM     17  C   UNL     1       1.960   3.559  18.516  0.00  0.00    +0.000 C 
ATOM     18  C   UNL     1       2.340   2.233  17.880  0.00  0.00    +0.000 C 
ATOM     19  C   UNL     1       3.548   1.713  18.638  0.00  0.00    +0.000 C 
ATOM     20  C   UNL     1       3.697   2.574  19.887  0.00  0.00    +0.000 C 
ENDBRANCH  15  16
ENDBRANCH  12  15
ENDBRANCH   1  10
BRANCH   5  21
ATOM     21  C   UNL     1       1.007  11.720  21.113  0.00  0.00    +0.000 C 
BRANCH  21  22
ATOM     22  C   UNL     1      -0.456  11.829  21.463  0.00  0.00    +0.000 A 
ATOM     23  C   UNL     1      -0.912  11.528  22.752  0.00  0.00    +0.000 A 
ATOM     24  C   UNL     1      -2.243  11.780  23.112  0.00  0.00    +0.000 A 
ATOM     25  C   UNL     1      -3.131  12.377  22.213  0.00  0.00    +0.000 A 
ATOM     26  C   UNL     1      -2.701  12.595  20.904  0.00  0.00    +0.000 A 
ATOM     27  C   UNL     1      -1.373  12.345  20.537  0.00  0.00    +0.000 A 
BRANCH  25  28
ATOM     28  N   UNL     1      -4.480  12.547  22.551  0.00  0.00    +0.000 N 
ATOM     29  H   UNL     1      -4.723  13.510  22.766  0.00  0.00    +0.000 HD
ATOM     30  H   UNL     1      -5.122  12.135  21.880  0.00  0.00    +0.000 HD
ENDBRANCH  25  28
ENDBRANCH  21  22
ENDBRANCH   5  21
TORSDOF 7
ENDMDL
MODEL 8
REMARK VINA RESULT:      -7.4      1.778      2.319
REMARK  Name = 
REMARK  8 active torsions:
REMARK  status: ('A' for Active; 'I' for Inactive)
REMARK    1  A    between atoms: C_1  and  O_2
REMARK    2  A    between atoms: O_2  and  C_3
REMARK    3  A    between atoms: C_6  and  C_7
REMARK    4  A    between atoms: N_11  and  C_12
REMARK    5  A    between atoms: C_12  and  C_13
REMARK    6  A    between atoms: C_16  and  N_17
REMARK    7  A    between atoms: C_22  and  O_23
REMARK    8  A    between atoms: O_23  and  C_24
REMARK                            x       y       z     vdW  Elec       q    Type
REMARK                         _______ _______ _______ _____ _____    ______ ____
ROOT
ATOM      1  C   UNL     1       1.340   9.669  17.921  0.00  0.00    +0.000 C 
ATOM      2  C   UNL     1       2.237  10.909  17.979  0.00  0.00    +0.000 C 
ATOM      3  C   UNL     1       1.507  11.894  18.855  0.00  0.00    +0.000 C 
ATOM      4  O   UNL     1       1.949  12.991  19.175  0.00  0.00    +0.000 OA
ATOM      5  N   UNL     1       0.261  11.391  19.169  0.00  0.00    +0.000 N 
ATOM      6  C   UNL     1       0.019  10.088  18.592  0.00  0.00    +0.000 C 
ENDROOT
BRANCH   1  10
ATOM      7  C   UNL     1       2.745   5.936  19.604  0.00  0.00    +0.000 A 
ATOM      8  C   UNL     1       2.113   6.898  20.410  0.00  0.00    +0.000 A 
ATOM      9  C   UNL     1       1.684   8.116  19.892  0.00  0.00    +0.000 A 
ATOM     10  C   UNL     1       1.937   8.432  18.561  0.00  0.00    +0.000 A 
ATOM     11  C   UNL     1       2.718   7.539  17.805  0.00  0.00    +0.000 A 
ATOM     12  C   UNL     1       3.135   6.289  18.308  0.00  0.00    +0.000 A 
BRANCH   7  14
ATOM     13  C   UNL     1       2.131   4.326  21.190  0.00  0.00    +0.000 C 
ATOM     14  O   UNL     1       2.978   4.673  20.086  0.00  0.00    +0.000 OA
ENDBRANCH   7  14
BRANCH  12  15
ATOM     15  O   UNL     1       3.920   5.611  17.419  0.00  0.00    +0.000 OA
BRANCH  15  16
ATOM     16  C   UNL     1       5.313   5.881  17.253  0.00  0.00    +0.000 C 
ATOM     17  C   UNL     1       6.158   5.033  18.199  0.00  0.00    +0.000 C 
ATOM     18  C   UNL     1       7.397   4.608  17.428  0.00  0.00    +0.000 C 
ATOM     19  C   UNL     1       7.034   4.661  15.954  0.00  0.00    +0.000 C 
ATOM     20  C   UNL     1       5.699   5.387  15.848  0.00  0.00    +0.000 C 
ENDBRANCH  15  16
ENDBRANCH  12  15
ENDBRANCH   1  10
BRANCH   5  21
ATOM     21  C   UNL     1      -0.825  12.252  19.600  0.00  0.00    +0.000 C 
BRANCH  21  22
ATOM     22  C   UNL     1      -2.170  11.960  18.985  0.00  0.00    +0.000 A 
ATOM     23  C   UNL     1      -3.353  12.192  19.697  0.00  0.00    +0.000 A 
ATOM     24  C   UNL     1      -4.599  12.066  19.067  0.00  0.00    +0.000 A 
ATOM     25  C   UNL     1      -4.689  11.752  17.709  0.00  0.00    +0.000 A 
ATOM     26  C   UNL     1      -3.516  11.435  17.023  0.00  0.00    +0.000 A 
ATOM     27  C   UNL     1      -2.269  11.558  17.646  0.00  0.00    +0.000 A 
BRANCH  25  28
ATOM     28  N   UNL     1      -5.938  11.544  17.107  0.00  0.00    +0.000 N 
ATOM     29  H   UNL     1      -6.370  10.663  17.371  0.00  0.00    +0.000 HD
ATOM     30  H   UNL     1      -6.577  12.327  17.218  0.00  0.00    +0.000 HD
ENDBRANCH  25  28
ENDBRANCH  21  22
ENDBRANCH   5  21
TORSDOF 7
ENDMDL
MODEL 9
REMARK VINA RESULT:      -7.4      1.874      2.793
REMARK  Name = 
REMARK  8 active torsions:
REMARK  status: ('A' for Active; 'I' for Inactive)
REMARK    1  A    between atoms: C_1  and  O_2
REMARK    2  A    between atoms: O_2  and  C_3
REMARK    3  A    between atoms: C_6  and  C_7
REMARK    4  A    between atoms: N_11  and  C_12
REMARK    5  A    between atoms: C_12  and  C_13
REMARK    6  A    between atoms: C_16  and  N_17
REMARK    7  A    between atoms: C_22  and  O_23
REMARK    8  A    between atoms: O_23  and  C_24
REMARK                            x       y       z     vdW  Elec       q    Type
REMARK                         _______ _______ _______ _____ _____    ______ ____
ROOT
ATOM      1  C   UNL     1       2.044   8.165  20.383  0.00  0.00    +0.000 C 
ATOM      2  C   UNL     1       1.370   8.340  21.747  0.00  0.00    +0.000 C 
ATOM      3  C   UNL     1       0.091   9.087  21.472  0.00  0.00    +0.000 C 
ATOM      4  O   UNL     1      -0.742   9.364  22.327  0.00  0.00    +0.000 OA
ATOM      5  N   UNL     1       0.054   9.459  20.144  0.00  0.00    +0.000 N 
ATOM      6  C   UNL     1       1.220   9.025  19.407  0.00  0.00    +0.000 C 
ENDROOT
BRANCH   1  10
ATOM      7  C   UNL     1       2.079   4.132  18.809  0.00  0.00    +0.000 A 
ATOM      8  C   UNL     1       1.497   4.415  20.057  0.00  0.00    +0.000 A 
ATOM      9  C   UNL     1       1.506   5.699  20.592  0.00  0.00    +0.000 A 
ATOM     10  C   UNL     1       2.158   6.727  19.919  0.00  0.00    +0.000 A 
ATOM     11  C   UNL     1       2.882   6.403  18.756  0.00  0.00    +0.000 A 
ATOM     12  C   UNL     1       2.858   5.113  18.188  0.00  0.00    +0.000 A 
BRANCH   7  14
ATOM     13  C   UNL     1       2.920   1.965  18.519  0.00  0.00    +0.000 C 
ATOM     14  O   UNL     1       1.885   2.911  18.215  0.00  0.00    +0.000 OA
ENDBRANCH   7  14
BRANCH  12  15
ATOM     15  O   UNL     1       3.670   5.017  17.093  0.00  0.00    +0.000 OA
BRANCH  15  16
ATOM     16  C   UNL     1       5.009   5.513  17.076  0.00  0.00    +0.000 C 
ATOM     17  C   UNL     1       5.957   4.579  17.821  0.00  0.00    +0.000 C 
ATOM     18  C   UNL     1       7.257   4.545  17.035  0.00  0.00    +0.000 C 
ATOM     19  C   UNL     1       6.914   4.924  15.606  0.00  0.00    +0.000 C 
ATOM     20  C   UNL     1       5.487   5.457  15.614  0.00  0.00    +0.000 C 
ENDBRANCH  15  16
ENDBRANCH  12  15
ENDBRANCH   1  10
BRANCH   5  21
ATOM     21  C   UNL     1      -0.790  10.541  19.675  0.00  0.00    +0.000 C 
BRANCH  21  22
ATOM     22  C   UNL     1      -0.172  11.916  19.726  0.00  0.00    +0.000 A 
ATOM     23  C   UNL     1       0.611  12.314  20.816  0.00  0.00    +0.000 A 
ATOM     24  C   UNL     1       1.308  13.529  20.786  0.00  0.00    +0.000 A 
ATOM     25  C   UNL     1       1.274  14.350  19.655  0.00  0.00    +0.000 A 
ATOM     26  C   UNL     1       0.425  13.996  18.606  0.00  0.00    +0.000 A 
ATOM     27  C   UNL     1      -0.274  12.784  18.630  0.00  0.00    +0.000 A 
BRANCH  25  28
ATOM     28  N   UNL     1       1.903  15.602  19.665  0.00  0.00    +0.000 N 
ATOM     29  H   UNL     1       2.119  15.951  18.735  0.00  0.00    +0.000 HD
ATOM     30  H   UNL     1       1.417  16.296  20.225  0.00  0.00    +0.000 HD
ENDBRANCH  25  28
ENDBRANCH  21  22
ENDBRANCH   5  21
TORSDOF 7
ENDMDL
