MODEL 1
REMARK VINA RESULT:      -8.7      0.000      0.000
REMARK  Name = 
REMARK  8 active torsions:
REMARK  status: ('A' for Active; 'I' for Inactive)
REMARK    1  A    between atoms: C_1  and  C_2
REMARK    2  A    between atoms: C_6  and  C_7
REMARK    3  A    between atoms: C_7  and  O_8
REMARK    4  A    between atoms: O_8  and  C_9
REMARK    5  A    between atoms: C_9  and  C_11
REMARK    6  A    between atoms: C_11  and  N_12
REMARK    7  A    between atoms: N_12  and  S_13
REMARK    8  A    between atoms: S_13  and  C_16
REMARK                            x       y       z     vdW  Elec       q    Type
REMARK                         _______ _______ _______ _____ _____    ______ ____
ROOT
ATOM      1  O   UNL     1       4.761   3.210  18.724  0.00  0.00    +0.000 OA
ENDROOT
BRANCH   1   2
ATOM      2  C   UNL     1       4.565   2.150  19.560  0.00  0.00    +0.000 C 
ATOM      3  O   UNL     1       5.018   2.040  20.685  0.00  0.00    +0.000 OA
BRANCH   2   4
ATOM      4  C   UNL     1       3.557   1.198  18.941  0.00  0.00    +0.000 C 
BRANCH   4   5
ATOM      5  N   UNL     1       2.461   1.888  18.242  0.00  0.00    +0.000 NA
ATOM      6  H   UNL     1       2.072   1.435  17.414  0.00  0.00    +0.000 HD
BRANCH   5   7
ATOM      7  S   UNL     1       1.279   2.600  19.190  0.00  0.00    +0.000 S 
ATOM      8  O   UNL     1       0.041   2.432  18.461  0.00  0.00    +0.000 OA
ATOM      9  O   UNL     1       1.441   2.113  20.540  0.00  0.00    +0.000 OA
BRANCH   7  10
ATOM     10  C   UNL     1       1.726   4.316  19.138  0.00  0.00    +0.000 A 
ATOM     11  C   UNL     1       2.024   4.921  17.914  0.00  0.00    +0.000 A 
ATOM     12  C   UNL     1       2.399   6.264  17.887  0.00  0.00    +0.000 A 
ATOM     13  C   UNL     1       2.464   6.997  19.073  0.00  0.00    +0.000 A 
ATOM     14  C   UNL     1       2.135   6.397  20.289  0.00  0.00    +0.000 A 
ATOM     15  C   UNL     1       1.752   5.056  20.324  0.00  0.00    +0.000 A 
ENDBRANCH   7  10
ENDBRANCH   5   7
ENDBRANCH   4   5
ENDBRANCH   2   4
ENDBRANCH   1   2
BRANCH   1  16
ATOM     16  C   UNL     1       5.351   4.372  19.311  0.00  0.00    +0.000 C 
BRANCH  16  22
ATOM     17  C   UNL     1       6.405   3.806  12.582  0.00  0.00    +0.000 C 
ATOM     18  C   UNL     1       6.329   4.116  14.049  0.00  0.00    +0.000 A 
ATOM     19  C   UNL     1       5.587   3.312  14.925  0.00  0.00    +0.000 A 
ATOM     20  C   UNL     1       5.502   3.615  16.299  0.00  0.00    +0.000 A 
ATOM     21  C   UNL     1       6.163   4.726  16.837  0.00  0.00    +0.000 A 
ATOM     22  C   UNL     1       6.130   5.125  18.260  0.00  0.00    +0.000 A 
ATOM     23  C   UNL     1       6.824   6.213  18.623  0.00  0.00    +0.000 A 
ATOM     24  C   UNL     1       7.612   7.031  17.692  0.00  0.00    +0.000 A 
ATOM     25  O   UNL     1       8.235   8.006  18.098  0.00  0.00    +0.000 OA
ATOM     26  O   UNL     1       7.608   6.649  16.370  0.00  0.00    +0.000 OA
ATOM     27  C   UNL     1       6.899   5.510  15.940  0.00  0.00    +0.000 A 
ATOM     28  C   UNL     1       6.992   5.227  14.572  0.00  0.00    +0.000 A 
ENDBRANCH  16  22
ENDBRANCH   1  16
TORSDOF 7
ENDMDL
MODEL 2
REMARK VINA RESULT:      -8.3      0.896      1.427
REMARK  Name = 
REMARK  8 active torsions:
REMARK  status: ('A' for Active; 'I' for Inactive)
REMARK    1  A    between atoms: C_1  and  C_2
REMARK    2  A    between atoms: C_6  and  C_7
REMARK    3  A    between atoms: C_7  and  O_8
REMARK    4  A    between atoms: O_8  and  C_9
REMARK    5  A    between atoms: C_9  and  C_11
REMARK    6  A    between atoms: C_11  and  N_12
REMARK    7  A    between atoms: N_12  and  S_13
REMARK    8  A    between atoms: S_13  and  C_16
REMARK                            x       y       z     vdW  Elec       q    Type
REMARK                         _______ _______ _______ _____ _____    ______ ____
ROOT
ATOM      1  O   UNL     1       4.974   3.422  19.364  0.00  0.00    +0.000 OA
ENDROOT
BRANCH   1   2
ATOM      2  C   UNL     1       4.673   2.256  20.004  0.00  0.00    +0.000 C 
ATOM      3  O   UNL     1       5.121   1.902  21.080  0.00  0.00    +0.000 OA
BRANCH   2   4
ATOM      4  C   UNL     1       3.566   1.538  19.254  0.00  0.00    +0.000 C 
BRANCH   4   5
ATOM      5  N   UNL     1       2.217   1.934  19.693  0.00  0.00    +0.000 NA
ATOM      6  H   UNL     1       2.114   2.271  20.650  0.00  0.00    +0.000 HD
BRANCH   5   7
ATOM      7  S   UNL     1       1.288   2.808  18.609  0.00  0.00    +0.000 S 
ATOM      8  O   UNL     1       1.837   2.520  17.302  0.00  0.00    +0.000 OA
ATOM      9  O   UNL     1      -0.102   2.568  18.921  0.00  0.00    +0.000 OA
BRANCH   7  10
ATOM     10  C   UNL     1       1.690   4.486  19.023  0.00  0.00    +0.000 A 
ATOM     11  C   UNL     1       1.550   4.930  20.341  0.00  0.00    +0.000 A 
ATOM     12  C   UNL     1       1.844   6.258  20.652  0.00  0.00    +0.000 A 
ATOM     13  C   UNL     1       2.286   7.128  19.654  0.00  0.00    +0.000 A 
ATOM     14  C   UNL     1       2.455   6.672  18.347  0.00  0.00    +0.000 A 
ATOM     15  C   UNL     1       2.169   5.344  18.029  0.00  0.00    +0.000 A 
ENDBRANCH   7  10
ENDBRANCH   5   7
ENDBRANCH   4   5
ENDBRANCH   2   4
ENDBRANCH   1   2
BRANCH   1  16
ATOM     16  C   UNL     1       4.862   3.404  17.939  0.00  0.00    +0.000 C 
BRANCH  16  22
ATOM     17  C   UNL     1       7.363   4.735  11.719  0.00  0.00    +0.000 C 
ATOM     18  C   UNL     1       6.968   4.612  13.162  0.00  0.00    +0.000 A 
ATOM     19  C   UNL     1       6.049   3.643  13.585  0.00  0.00    +0.000 A 
ATOM     20  C   UNL     1       5.666   3.541  14.938  0.00  0.00    +0.000 A 
ATOM     21  C   UNL     1       6.198   4.401  15.907  0.00  0.00    +0.000 A 
ATOM     22  C   UNL     1       5.856   4.372  17.344  0.00  0.00    +0.000 A 
ATOM     23  C   UNL     1       6.459   5.257  18.150  0.00  0.00    +0.000 A 
ATOM     24  C   UNL     1       7.436   6.252  17.690  0.00  0.00    +0.000 A 
ATOM     25  O   UNL     1       7.960   7.022  18.488  0.00  0.00    +0.000 OA
ATOM     26  O   UNL     1       7.720   6.270  16.344  0.00  0.00    +0.000 OA
ATOM     27  C   UNL     1       7.117   5.356  15.457  0.00  0.00    +0.000 A 
ATOM     28  C   UNL     1       7.506   5.475  14.117  0.00  0.00    +0.000 A 
ENDBRANCH  16  22
ENDBRANCH   1  16
TORSDOF 7
ENDMDL
MODEL 3
REMARK VINA RESULT:      -8.0      4.983      8.071
REMARK  Name = 
REMARK  8 active torsions:
REMARK  status: ('A' for Active; 'I' for Inactive)
REMARK    1  A    between atoms: C_1  and  C_2
REMARK    2  A    between atoms: C_6  and  C_7
REMARK    3  A    between atoms: C_7  and  O_8
REMARK    4  A    between atoms: O_8  and  C_9
REMARK    5  A    between atoms: C_9  and  C_11
REMARK    6  A    between atoms: C_11  and  N_12
REMARK    7  A    between atoms: N_12  and  S_13
REMARK    8  A    between atoms: S_13  and  C_16
REMARK                            x       y       z     vdW  Elec       q    Type
REMARK                         _______ _______ _______ _____ _____    ______ ____
ROOT
ATOM      1  O   UNL     1       1.799   8.203  19.087  0.00  0.00    +0.000 OA
ENDROOT
BRANCH   1   2
ATOM      2  C   UNL     1       2.704   7.281  18.652  0.00  0.00    +0.000 C 
ATOM      3  O   UNL     1       3.437   7.406  17.687  0.00  0.00    +0.000 OA
BRANCH   2   4
ATOM      4  C   UNL     1       2.782   6.139  19.650  0.00  0.00    +0.000 C 
BRANCH   4   5
ATOM      5  N   UNL     1       4.096   5.475  19.671  0.00  0.00    +0.000 NA
ATOM      6  H   UNL     1       4.640   5.537  20.532  0.00  0.00    +0.000 HD
BRANCH   5   7
ATOM      7  S   UNL     1       4.198   3.963  18.960  0.00  0.00    +0.000 S 
ATOM      8  O   UNL     1       4.922   3.138  19.902  0.00  0.00    +0.000 OA
ATOM      9  O   UNL     1       2.881   3.604  18.488  0.00  0.00    +0.000 OA
BRANCH   7  10
ATOM     10  C   UNL     1       5.249   4.265  17.563  0.00  0.00    +0.000 A 
ATOM     11  C   UNL     1       6.601   4.557  17.759  0.00  0.00    +0.000 A 
ATOM     12  C   UNL     1       7.413   4.818  16.655  0.00  0.00    +0.000 A 
ATOM     13  C   UNL     1       6.878   4.775  15.367  0.00  0.00    +0.000 A 
ATOM     14  C   UNL     1       5.534   4.451  15.174  0.00  0.00    +0.000 A 
ATOM     15  C   UNL     1       4.717   4.182  16.272  0.00  0.00    +0.000 A 
ENDBRANCH   7  10
ENDBRANCH   5   7
ENDBRANCH   4   5
ENDBRANCH   2   4
ENDBRANCH   1   2
BRANCH   1  16
ATOM     16  C   UNL     1       1.377   9.173  18.124  0.00  0.00    +0.000 C 
BRANCH  16  22
ATOM     17  C   UNL     1      -4.987  11.467  17.151  0.00  0.00    +0.000 C 
ATOM     18  C   UNL     1      -3.578  11.126  17.543  0.00  0.00    +0.000 A 
ATOM     19  C   UNL     1      -2.826  10.192  16.817  0.00  0.00    +0.000 A 
ATOM     20  C   UNL     1      -1.511   9.860  17.198  0.00  0.00    +0.000 A 
ATOM     21  C   UNL     1      -0.907  10.459  18.311  0.00  0.00    +0.000 A 
ATOM     22  C   UNL     1       0.463  10.174  18.787  0.00  0.00    +0.000 A 
ATOM     23  C   UNL     1       0.902  10.837  19.866  0.00  0.00    +0.000 A 
ATOM     24  C   UNL     1       0.105  11.827  20.601  0.00  0.00    +0.000 A 
ATOM     25  O   UNL     1       0.578  12.408  21.572  0.00  0.00    +0.000 OA
ATOM     26  O   UNL     1      -1.173  12.058  20.148  0.00  0.00    +0.000 OA
ATOM     27  C   UNL     1      -1.679  11.390  19.015  0.00  0.00    +0.000 A 
ATOM     28  C   UNL     1      -2.989  11.730  18.654  0.00  0.00    +0.000 A 
ENDBRANCH  16  22
ENDBRANCH   1  16
TORSDOF 7
ENDMDL
MODEL 4
REMARK VINA RESULT:      -7.9      3.708      7.470
REMARK  Name = 
REMARK  8 active torsions:
REMARK  status: ('A' for Active; 'I' for Inactive)
REMARK    1  A    between atoms: C_1  and  C_2
REMARK    2  A    between atoms: C_6  and  C_7
REMARK    3  A    between atoms: C_7  and  O_8
REMARK    4  A    between atoms: O_8  and  C_9
REMARK    5  A    between atoms: C_9  and  C_11
REMARK    6  A    between atoms: C_11  and  N_12
REMARK    7  A    between atoms: N_12  and  S_13
REMARK    8  A    between atoms: S_13  and  C_16
REMARK                            x       y       z     vdW  Elec       q    Type
REMARK                         _______ _______ _______ _____ _____    ______ ____
ROOT
ATOM      1  O   UNL     1       2.366   5.903  19.965  0.00  0.00    +0.000 OA
ENDROOT
BRANCH   1   2
ATOM      2  C   UNL     1       1.732   4.748  19.613  0.00  0.00    +0.000 C 
ATOM      3  O   UNL     1       0.850   4.201  20.250  0.00  0.00    +0.000 OA
BRANCH   2   4
ATOM      4  C   UNL     1       2.173   4.332  18.222  0.00  0.00    +0.000 C 
BRANCH   4   5
ATOM      5  N   UNL     1       3.389   5.027  17.767  0.00  0.00    +0.000 NA
ATOM      6  H   UNL     1       3.518   5.994  18.067  0.00  0.00    +0.000 HD
BRANCH   5   7
ATOM      7  S   UNL     1       4.820   4.158  17.793  0.00  0.00    +0.000 S 
ATOM      8  O   UNL     1       4.806   3.421  19.038  0.00  0.00    +0.000 OA
ATOM      9  O   UNL     1       4.960   3.496  16.517  0.00  0.00    +0.000 OA
BRANCH   7  10
ATOM     10  C   UNL     1       6.044   5.436  17.917  0.00  0.00    +0.000 A 
ATOM     11  C   UNL     1       7.082   5.319  18.846  0.00  0.00    +0.000 A 
ATOM     12  C   UNL     1       8.024   6.342  18.953  0.00  0.00    +0.000 A 
ATOM     13  C   UNL     1       7.935   7.465  18.129  0.00  0.00    +0.000 A 
ATOM     14  C   UNL     1       6.915   7.563  17.182  0.00  0.00    +0.000 A 
ATOM     15  C   UNL     1       5.973   6.541  17.064  0.00  0.00    +0.000 A 
ENDBRANCH   7  10
ENDBRANCH   5   7
ENDBRANCH   4   5
ENDBRANCH   2   4
ENDBRANCH   1   2
BRANCH   1  16
ATOM     16  C   UNL     1       1.715   6.701  20.957  0.00  0.00    +0.000 C 
BRANCH  16  22
ATOM     17  C   UNL     1      -1.458  12.370  23.082  0.00  0.00    +0.000 C 
ATOM     18  C   UNL     1      -0.731  11.243  22.406  0.00  0.00    +0.000 A 
ATOM     19  C   UNL     1      -0.556  10.005  23.040  0.00  0.00    +0.000 A 
ATOM     20  C   UNL     1       0.142   8.955  22.411  0.00  0.00    +0.000 A 
ATOM     21  C   UNL     1       0.678   9.110  21.127  0.00  0.00    +0.000 A 
ATOM     22  C   UNL     1       1.425   8.069  20.389  0.00  0.00    +0.000 A 
ATOM     23  C   UNL     1       1.869   8.368  19.160  0.00  0.00    +0.000 A 
ATOM     24  C   UNL     1       1.657   9.665  18.505  0.00  0.00    +0.000 A 
ATOM     25  O   UNL     1       2.078   9.863  17.371  0.00  0.00    +0.000 OA
ATOM     26  O   UNL     1       0.976  10.622  19.222  0.00  0.00    +0.000 OA
ATOM     27  C   UNL     1       0.485  10.354  20.515  0.00  0.00    +0.000 A 
ATOM     28  C   UNL     1      -0.202  11.411  21.126  0.00  0.00    +0.000 A 
ENDBRANCH  16  22
ENDBRANCH   1  16
TORSDOF 7
ENDMDL
MODEL 5
REMARK VINA RESULT:      -7.8      5.063      7.895
REMARK  Name = 
REMARK  8 active torsions:
REMARK  status: ('A' for Active; 'I' for Inactive)
REMARK    1  A    between atoms: C_1  and  C_2
REMARK    2  A    between atoms: C_6  and  C_7
REMARK    3  A    between atoms: C_7  and  O_8
REMARK    4  A    between atoms: O_8  and  C_9
REMARK    5  A    between atoms: C_9  and  C_11
REMARK    6  A    between atoms: C_11  and  N_12
REMARK    7  A    between atoms: N_12  and  S_13
REMARK    8  A    between atoms: S_13  and  C_16
REMARK                            x       y       z     vdW  Elec       q    Type
REMARK                         _______ _______ _______ _____ _____    ______ ____
ROOT
ATOM      1  O   UNL     1       2.415   8.820  18.118  0.00  0.00    +0.000 OA
ENDROOT
BRANCH   1   2
ATOM      2  C   UNL     1       2.685   7.642  18.750  0.00  0.00    +0.000 C 
ATOM      3  O   UNL     1       2.173   7.260  19.787  0.00  0.00    +0.000 OA
BRANCH   2   4
ATOM      4  C   UNL     1       3.599   6.799  17.879  0.00  0.00    +0.000 C 
BRANCH   4   5
ATOM      5  N   UNL     1       4.499   5.929  18.655  0.00  0.00    +0.000 NA
ATOM      6  H   UNL     1       4.599   6.126  19.651  0.00  0.00    +0.000 HD
BRANCH   5   7
ATOM      7  S   UNL     1       4.438   4.287  18.334  0.00  0.00    +0.000 S 
ATOM      8  O   UNL     1       3.970   4.174  16.970  0.00  0.00    +0.000 OA
ATOM      9  O   UNL     1       5.689   3.705  18.762  0.00  0.00    +0.000 OA
BRANCH   7  10
ATOM     10  C   UNL     1       3.144   3.733  19.414  0.00  0.00    +0.000 A 
ATOM     11  C   UNL     1       1.808   3.947  19.066  0.00  0.00    +0.000 A 
ATOM     12  C   UNL     1       0.799   3.530  19.934  0.00  0.00    +0.000 A 
ATOM     13  C   UNL     1       1.125   2.893  21.133  0.00  0.00    +0.000 A 
ATOM     14  C   UNL     1       2.460   2.652  21.460  0.00  0.00    +0.000 A 
ATOM     15  C   UNL     1       3.475   3.061  20.594  0.00  0.00    +0.000 A 
ENDBRANCH   7  10
ENDBRANCH   5   7
ENDBRANCH   4   5
ENDBRANCH   2   4
ENDBRANCH   1   2
BRANCH   1  16
ATOM     16  C   UNL     1       1.093   8.963  17.592  0.00  0.00    +0.000 C 
BRANCH  16  22
ATOM     17  C   UNL     1      -5.173  11.691  17.521  0.00  0.00    +0.000 C 
ATOM     18  C   UNL     1      -3.752  11.247  17.717  0.00  0.00    +0.000 A 
ATOM     19  C   UNL     1      -3.163  10.297  16.871  0.00  0.00    +0.000 A 
ATOM     20  C   UNL     1      -1.836   9.868  17.068  0.00  0.00    +0.000 A 
ATOM     21  C   UNL     1      -1.057  10.382  18.112  0.00  0.00    +0.000 A 
ATOM     22  C   UNL     1       0.340   9.992  18.399  0.00  0.00    +0.000 A 
ATOM     23  C   UNL     1       0.957  10.582  19.433  0.00  0.00    +0.000 A 
ATOM     24  C   UNL     1       0.327  11.590  20.296  0.00  0.00    +0.000 A 
ATOM     25  O   UNL     1       0.958  12.100  21.215  0.00  0.00    +0.000 OA
ATOM     26  O   UNL     1      -0.979  11.919  20.019  0.00  0.00    +0.000 OA
ATOM     27  C   UNL     1      -1.669  11.331  18.939  0.00  0.00    +0.000 A 
ATOM     28  C   UNL     1      -2.988  11.767  18.761  0.00  0.00    +0.000 A 
ENDBRANCH  16  22
ENDBRANCH   1  16
TORSDOF 7
ENDMDL
MODEL 6
REMARK VINA RESULT:      -7.7      5.293      8.088
REMARK  Name = 
REMARK  8 active torsions:
REMARK  status: ('A' for Active; 'I' for Inactive)
REMARK    1  A    between atoms: C_1  and  C_2
REMARK    2  A    between atoms: C_6  and  C_7
REMARK    3  A    between atoms: C_7  and  O_8
REMARK    4  A    between atoms: O_8  and  C_9
REMARK    5  A    between atoms: C_9  and  C_11
REMARK    6  A    between atoms: C_11  and  N_12
REMARK    7  A    between atoms: N_12  and  S_13
REMARK    8  A    between atoms: S_13  and  C_16
REMARK                            x       y       z     vdW  Elec       q    Type
REMARK                         _______ _______ _______ _____ _____    ______ ____
ROOT
ATOM      1  O   UNL     1       8.594   9.426  18.104  0.00  0.00    +0.000 OA
ENDROOT
BRANCH   1   2
ATOM      2  C   UNL     1       8.188   8.124  18.114  0.00  0.00    +0.000 C 
ATOM      3  O   UNL     1       8.524   7.283  18.928  0.00  0.00    +0.000 OA
BRANCH   2   4
ATOM      4  C   UNL     1       7.122   7.918  17.053  0.00  0.00    +0.000 C 
BRANCH   4   5
ATOM      5  N   UNL     1       6.049   7.005  17.479  0.00  0.00    +0.000 NA
ATOM      6  H   UNL     1       5.136   7.414  17.680  0.00  0.00    +0.000 HD
BRANCH   5   7
ATOM      7  S   UNL     1       5.927   5.542  16.674  0.00  0.00    +0.000 S 
ATOM      8  O   UNL     1       5.899   5.873  15.266  0.00  0.00    +0.000 OA
ATOM      9  O   UNL     1       6.917   4.647  17.228  0.00  0.00    +0.000 OA
BRANCH   7  10
ATOM     10  C   UNL     1       4.312   4.978  17.145  0.00  0.00    +0.000 A 
ATOM     11  C   UNL     1       3.937   3.655  16.898  0.00  0.00    +0.000 A 
ATOM     12  C   UNL     1       2.656   3.228  17.250  0.00  0.00    +0.000 A 
ATOM     13  C   UNL     1       1.764   4.116  17.853  0.00  0.00    +0.000 A 
ATOM     14  C   UNL     1       2.154   5.428  18.126  0.00  0.00    +0.000 A 
ATOM     15  C   UNL     1       3.435   5.860  17.784  0.00  0.00    +0.000 A 
ENDBRANCH   7  10
ENDBRANCH   5   7
ENDBRANCH   4   5
ENDBRANCH   2   4
ENDBRANCH   1   2
BRANCH   1  16
ATOM     16  C   UNL     1       9.165   9.916  19.320  0.00  0.00    +0.000 C 
BRANCH  16  22
ATOM     17  C   UNL     1       9.861  15.653  22.969  0.00  0.00    +0.000 C 
ATOM     18  C   UNL     1       9.802  14.521  21.985  0.00  0.00    +0.000 A 
ATOM     19  C   UNL     1       9.220  13.292  22.323  0.00  0.00    +0.000 A 
ATOM     20  C   UNL     1       9.183  12.224  21.404  0.00  0.00    +0.000 A 
ATOM     21  C   UNL     1       9.719  12.358  20.118  0.00  0.00    +0.000 A 
ATOM     22  C   UNL     1       9.729  11.297  19.089  0.00  0.00    +0.000 A 
ATOM     23  C   UNL     1      10.274  11.583  17.898  0.00  0.00    +0.000 A 
ATOM     24  C   UNL     1      10.861  12.885  17.556  0.00  0.00    +0.000 A 
ATOM     25  O   UNL     1      11.328  13.081  16.440  0.00  0.00    +0.000 OA
ATOM     26  O   UNL     1      10.857  13.847  18.539  0.00  0.00    +0.000 OA
ATOM     27  C   UNL     1      10.291  13.597  19.805  0.00  0.00    +0.000 A 
ATOM     28  C   UNL     1      10.341  14.668  20.707  0.00  0.00    +0.000 A 
ENDBRANCH  16  22
ENDBRANCH   1  16
TORSDOF 7
ENDMDL
MODEL 7
REMARK VINA RESULT:      -7.7      5.574      7.002
REMARK  Name = 
REMARK  8 active torsions:
REMARK  status: ('A' for Active; 'I' for Inactive)
REMARK    1  A    between atoms: C_1  and  C_2
REMARK    2  A    between atoms: C_6  and  C_7
REMARK    3  A    between atoms: C_7  and  O_8
REMARK    4  A    between atoms: O_8  and  C_9
REMARK    5  A    between atoms: C_9  and  C_11
REMARK    6  A    between atoms: C_11  and  N_12
REMARK    7  A    between atoms: N_12  and  S_13
REMARK    8  A    between atoms: S_13  and  C_16
REMARK                            x       y       z     vdW  Elec       q    Type
REMARK                         _______ _______ _______ _____ _____    ______ ____
ROOT
ATOM      1  O   UNL     1       2.147   7.918  18.829  0.00  0.00    +0.000 OA
ENDROOT
BRANCH   1   2
ATOM      2  C   UNL     1       1.402   8.892  19.426  0.00  0.00    +0.000 C 
ATOM      3  O   UNL     1       0.968   8.856  20.563  0.00  0.00    +0.000 OA
BRANCH   2   4
ATOM      4  C   UNL     1       1.335  10.106  18.517  0.00  0.00    +0.000 C 
BRANCH   4   5
ATOM      5  N   UNL     1      -0.026  10.392  18.032  0.00  0.00    +0.000 NA
ATOM      6  H   UNL     1      -0.651   9.598  17.889  0.00  0.00    +0.000 HD
BRANCH   5   7
ATOM      7  S   UNL     1      -0.814  11.709  18.702  0.00  0.00    +0.000 S 
ATOM      8  O   UNL     1      -0.896  11.434  20.120  0.00  0.00    +0.000 OA
ATOM      9  O   UNL     1      -0.187  12.907  18.192  0.00  0.00    +0.000 OA
BRANCH   7  10
ATOM     10  C   UNL     1      -2.443  11.572  18.014  0.00  0.00    +0.000 A 
ATOM     11  C   UNL     1      -2.607  11.162  16.687  0.00  0.00    +0.000 A 
ATOM     12  C   UNL     1      -3.891  11.083  16.148  0.00  0.00    +0.000 A 
ATOM     13  C   UNL     1      -5.000  11.399  16.933  0.00  0.00    +0.000 A 
ATOM     14  C   UNL     1      -4.834  11.777  18.266  0.00  0.00    +0.000 A 
ATOM     15  C   UNL     1      -3.554  11.852  18.815  0.00  0.00    +0.000 A 
ENDBRANCH   7  10
ENDBRANCH   5   7
ENDBRANCH   4   5
ENDBRANCH   2   4
ENDBRANCH   1   2
BRANCH   1  16
ATOM     16  C   UNL     1       2.466   6.784  19.640  0.00  0.00    +0.000 C 
BRANCH  16  22
ATOM     17  C   UNL     1       6.878   4.764  14.827  0.00  0.00    +0.000 C 
ATOM     18  C   UNL     1       5.791   5.002  15.835  0.00  0.00    +0.000 A 
ATOM     19  C   UNL     1       5.728   6.194  16.569  0.00  0.00    +0.000 A 
ATOM     20  C   UNL     1       4.718   6.408  17.528  0.00  0.00    +0.000 A 
ATOM     21  C   UNL     1       3.737   5.439  17.774  0.00  0.00    +0.000 A 
ATOM     22  C   UNL     1       2.643   5.571  18.759  0.00  0.00    +0.000 A 
ATOM     23  C   UNL     1       1.775   4.557  18.873  0.00  0.00    +0.000 A 
ATOM     24  C   UNL     1       1.847   3.323  18.079  0.00  0.00    +0.000 A 
ATOM     25  O   UNL     1       1.007   2.441  18.225  0.00  0.00    +0.000 OA
ATOM     26  O   UNL     1       2.887   3.218  17.185  0.00  0.00    +0.000 OA
ATOM     27  C   UNL     1       3.822   4.260  17.024  0.00  0.00    +0.000 A 
ATOM     28  C   UNL     1       4.821   4.028  16.070  0.00  0.00    +0.000 A 
ENDBRANCH  16  22
ENDBRANCH   1  16
TORSDOF 7
ENDMDL
MODEL 8
REMARK VINA RESULT:      -7.7      3.335      7.018
REMARK  Name = 
REMARK  8 active torsions:
REMARK  status: ('A' for Active; 'I' for Inactive)
REMARK    1  A    between atoms: C_1  and  C_2
REMARK    2  A    between atoms: C_6  and  C_7
REMARK    3  A    between atoms: C_7  and  O_8
REMARK    4  A    between atoms: O_8  and  C_9
REMARK    5  A    between atoms: C_9  and  C_11
REMARK    6  A    between atoms: C_11  and  N_12
REMARK    7  A    between atoms: N_12  and  S_13
REMARK    8  A    between atoms: S_13  and  C_16
REMARK                            x       y       z     vdW  Elec       q    Type
REMARK                         _______ _______ _______ _____ _____    ______ ____
ROOT
ATOM      1  O   UNL     1       2.412   5.066  19.643  0.00  0.00    +0.000 OA
ENDROOT
BRANCH   1   2
ATOM      2  C   UNL     1       2.914   3.862  20.040  0.00  0.00    +0.000 C 
ATOM      3  O   UNL     1       2.868   3.412  21.171  0.00  0.00    +0.000 OA
BRANCH   2   4
ATOM      4  C   UNL     1       3.392   3.088  18.824  0.00  0.00    +0.000 C 
BRANCH   4   5
ATOM      5  N   UNL     1       4.779   3.405  18.444  0.00  0.00    +0.000 NA
ATOM      6  H   UNL     1       5.460   2.647  18.480  0.00  0.00    +0.000 HD
BRANCH   5   7
ATOM      7  S   UNL     1       4.998   4.394  17.111  0.00  0.00    +0.000 S 
ATOM      8  O   UNL     1       5.564   3.545  16.085  0.00  0.00    +0.000 OA
ATOM      9  O   UNL     1       3.775   5.133  16.901  0.00  0.00    +0.000 OA
BRANCH   7  10
ATOM     10  C   UNL     1       6.259   5.511  17.666  0.00  0.00    +0.000 A 
ATOM     11  C   UNL     1       7.045   5.180  18.773  0.00  0.00    +0.000 A 
ATOM     12  C   UNL     1       8.017   6.078  19.216  0.00  0.00    +0.000 A 
ATOM     13  C   UNL     1       8.207   7.289  18.550  0.00  0.00    +0.000 A 
ATOM     14  C   UNL     1       7.442   7.601  17.425  0.00  0.00    +0.000 A 
ATOM     15  C   UNL     1       6.473   6.706  16.972  0.00  0.00    +0.000 A 
ENDBRANCH   7  10
ENDBRANCH   5   7
ENDBRANCH   4   5
ENDBRANCH   2   4
ENDBRANCH   1   2
BRANCH   1  16
ATOM     16  C   UNL     1       2.006   5.953  20.689  0.00  0.00    +0.000 C 
BRANCH  16  22
ATOM     17  C   UNL     1      -1.042  11.707  22.765  0.00  0.00    +0.000 C 
ATOM     18  C   UNL     1      -0.339  10.560  22.099  0.00  0.00    +0.000 A 
ATOM     19  C   UNL     1      -0.199   9.321  22.740  0.00  0.00    +0.000 A 
ATOM     20  C   UNL     1       0.477   8.251  22.121  0.00  0.00    +0.000 A 
ATOM     21  C   UNL     1       1.027   8.387  20.841  0.00  0.00    +0.000 A 
ATOM     22  C   UNL     1       1.754   7.326  20.113  0.00  0.00    +0.000 A 
ATOM     23  C   UNL     1       2.215   7.608  18.887  0.00  0.00    +0.000 A 
ATOM     24  C   UNL     1       2.040   8.907  18.224  0.00  0.00    +0.000 A 
ATOM     25  O   UNL     1       2.476   9.090  17.093  0.00  0.00    +0.000 OA
ATOM     26  O   UNL     1       1.378   9.883  18.932  0.00  0.00    +0.000 OA
ATOM     27  C   UNL     1       0.869   9.633  20.222  0.00  0.00    +0.000 A 
ATOM     28  C   UNL     1       0.204  10.709  20.823  0.00  0.00    +0.000 A 
ENDBRANCH  16  22
ENDBRANCH   1  16
TORSDOF 7
ENDMDL
MODEL 9
REMARK VINA RESULT:      -7.7      3.709      4.605
REMARK  Name = 
REMARK  8 active torsions:
REMARK  status: ('A' for Active; 'I' for Inactive)
REMARK    1  A    between atoms: C_1  and  C_2
REMARK    2  A    between atoms: C_6  and  C_7
REMARK    3  A    between atoms: C_7  and  O_8
REMARK    4  A    between atoms: O_8  and  C_9
REMARK    5  A    between atoms: C_9  and  C_11
REMARK    6  A    between atoms: C_11  and  N_12
REMARK    7  A    between atoms: N_12  and  S_13
REMARK    8  A    between atoms: S_13  and  C_16
REMARK                            x       y       z     vdW  Elec       q    Type
REMARK                         _______ _______ _______ _____ _____    ______ ____
ROOT
ATOM      1  O   UNL     1       3.515   5.935  19.326  0.00  0.00    +0.000 OA
ENDROOT
BRANCH   1   2
ATOM      2  C   UNL     1       2.626   6.187  18.323  0.00  0.00    +0.000 C 
ATOM      3  O   UNL     1       1.936   5.355  17.762  0.00  0.00    +0.000 OA
BRANCH   2   4
ATOM      4  C   UNL     1       2.500   7.686  18.123  0.00  0.00    +0.000 C 
BRANCH   4   5
ATOM      5  N   UNL     1       1.909   8.379  19.280  0.00  0.00    +0.000 NA
ATOM      6  H   UNL     1       2.487   8.479  20.114  0.00  0.00    +0.000 HD
BRANCH   5   7
ATOM      7  S   UNL     1       1.002   9.751  18.967  0.00  0.00    +0.000 S 
ATOM      8  O   UNL     1       1.961  10.794  18.676  0.00  0.00    +0.000 OA
ATOM      9  O   UNL     1      -0.040   9.391  18.033  0.00  0.00    +0.000 OA
BRANCH   7  10
ATOM     10  C   UNL     1       0.268  10.095  20.545  0.00  0.00    +0.000 A 
ATOM     11  C   UNL     1       0.153   9.077  21.496  0.00  0.00    +0.000 A 
ATOM     12  C   UNL     1      -0.448   9.352  22.724  0.00  0.00    +0.000 A 
ATOM     13  C   UNL     1      -0.919  10.636  23.001  0.00  0.00    +0.000 A 
ATOM     14  C   UNL     1      -0.773  11.657  22.061  0.00  0.00    +0.000 A 
ATOM     15  C   UNL     1      -0.167  11.392  20.833  0.00  0.00    +0.000 A 
ENDBRANCH   7  10
ENDBRANCH   5   7
ENDBRANCH   4   5
ENDBRANCH   2   4
ENDBRANCH   1   2
BRANCH   1  16
ATOM     16  C   UNL     1       4.435   4.865  19.097  0.00  0.00    +0.000 C 
BRANCH  16  22
ATOM     17  C   UNL     1       6.441   3.716  12.665  0.00  0.00    +0.000 C 
ATOM     18  C   UNL     1       6.198   4.108  14.094  0.00  0.00    +0.000 A 
ATOM     19  C   UNL     1       5.136   3.562  14.827  0.00  0.00    +0.000 A 
ATOM     20  C   UNL     1       4.898   3.945  16.163  0.00  0.00    +0.000 A 
ATOM     21  C   UNL     1       5.720   4.879  16.804  0.00  0.00    +0.000 A 
ATOM     22  C   UNL     1       5.548   5.344  18.197  0.00  0.00    +0.000 A 
ATOM     23  C   UNL     1       6.425   6.239  18.672  0.00  0.00    +0.000 A 
ATOM     24  C   UNL     1       7.544   6.785  17.893  0.00  0.00    +0.000 A 
ATOM     25  O   UNL     1       8.317   7.591  18.398  0.00  0.00    +0.000 OA
ATOM     26  O   UNL     1       7.668   6.351  16.593  0.00  0.00    +0.000 OA
ATOM     27  C   UNL     1       6.775   5.406  16.049  0.00  0.00    +0.000 A 
ATOM     28  C   UNL     1       7.024   5.041  14.720  0.00  0.00    +0.000 A 
ENDBRANCH  16  22
ENDBRANCH   1  16
TORSDOF 7
ENDMDL
