MODEL 1
REMARK VINA RESULT:      -5.4      0.000      0.000
REMARK  Name = 
REMARK  6 active torsions:
REMARK  status: ('A' for Active; 'I' for Inactive)
REMARK    1  A    between atoms: C_1  and  C_2
REMARK    2  A    between atoms: C_2  and  C_3
REMARK    3  A    between atoms: C_3  and  N_4
REMARK    4  A    between atoms: N_9  and  C_10
REMARK    5  A    between atoms: C_10  and  C_11
REMARK    6  A    between atoms: C_11  and  O_13
REMARK                            x       y       z     vdW  Elec       q    Type
REMARK                         _______ _______ _______ _____ _____    ______ ____
ROOT
ATOM      1  N   UNL     1       5.872   5.053  17.517  0.00  0.00    +0.000 NA
ATOM      2  C   UNL     1       5.238   6.355  17.503  0.00  0.00    +0.000 C 
ATOM      3  S   UNL     1       3.521   6.392  17.984  0.00  0.00    +0.000 S 
ATOM      4  C   UNL     1       3.418   5.145  19.205  0.00  0.00    +0.000 C 
ATOM      5  S   UNL     1       2.114   5.152  20.261  0.00  0.00    +0.000 S 
ATOM      6  N   UNL     1       4.389   4.150  19.172  0.00  0.00    +0.000 N 
ATOM      7  C   UNL     1       5.768   4.448  18.820  0.00  0.00    +0.000 C 
ENDROOT
BRANCH   1   8
ATOM      8  C   UNL     1       5.560   4.159  16.405  0.00  0.00    +0.000 C 
BRANCH   8  10
ATOM      9  C   UNL     1       5.921   3.992  13.872  0.00  0.00    +0.000 C 
ATOM     10  C   UNL     1       6.555   4.246  15.235  0.00  0.00    +0.000 C 
ENDBRANCH   8  10
ENDBRANCH   1   8
BRANCH   6  11
ATOM     11  C   UNL     1       4.095   2.745  19.535  0.00  0.00    +0.000 C 
BRANCH  11  12
ATOM     12  C   UNL     1       3.512   1.863  18.434  0.00  0.00    +0.000 C 
ATOM     13  O   UNL     1       2.573   2.203  17.722  0.00  0.00    +0.000 OA
BRANCH  12  14
ATOM     14  O   UNL     1       4.082   0.636  18.346  0.00  0.00    +0.000 OA
ATOM     15  H   UNL     1       3.463  -0.022  17.970  0.00  0.00    +0.000 HD
ENDBRANCH  12  14
ENDBRANCH  11  12
ENDBRANCH   6  11
TORSDOF 5
ENDMDL
MODEL 2
REMARK VINA RESULT:      -5.3      2.774      4.654
REMARK  Name = 
REMARK  6 active torsions:
REMARK  status: ('A' for Active; 'I' for Inactive)
REMARK    1  A    between atoms: C_1  and  C_2
REMARK    2  A    between atoms: C_2  and  C_3
REMARK    3  A    between atoms: C_3  and  N_4
REMARK    4  A    between atoms: N_9  and  C_10
REMARK    5  A    between atoms: C_10  and  C_11
REMARK    6  A    between atoms: C_11  and  O_13
REMARK                            x       y       z     vdW  Elec       q    Type
REMARK                         _______ _______ _______ _____ _____    ______ ____
ROOT
ATOM      1  N   UNL     1       3.425   2.705  18.332  0.00  0.00    +0.000 NA
ATOM      2  C   UNL     1       2.215   3.363  17.886  0.00  0.00    +0.000 C 
ATOM      3  S   UNL     1       2.194   5.140  18.035  0.00  0.00    +0.000 S 
ATOM      4  C   UNL     1       3.856   5.589  17.726  0.00  0.00    +0.000 C 
ATOM      5  S   UNL     1       4.199   7.176  17.298  0.00  0.00    +0.000 S 
ATOM      6  N   UNL     1       4.822   4.615  17.946  0.00  0.00    +0.000 N 
ATOM      7  C   UNL     1       4.575   3.217  17.634  0.00  0.00    +0.000 C 
ENDROOT
BRANCH   1   8
ATOM      8  C   UNL     1       3.603   2.567  19.776  0.00  0.00    +0.000 C 
BRANCH   8  10
ATOM      9  C   UNL     1       2.094   3.446  21.653  0.00  0.00    +0.000 C 
ATOM     10  C   UNL     1       2.286   2.406  20.556  0.00  0.00    +0.000 C 
ENDBRANCH   8  10
ENDBRANCH   1   8
BRANCH   6  11
ATOM     11  C   UNL     1       6.171   4.940  18.466  0.00  0.00    +0.000 C 
BRANCH  11  12
ATOM     12  C   UNL     1       7.315   4.914  17.456  0.00  0.00    +0.000 C 
ATOM     13  O   UNL     1       7.357   5.633  16.463  0.00  0.00    +0.000 OA
BRANCH  12  14
ATOM     14  O   UNL     1       8.262   3.979  17.715  0.00  0.00    +0.000 OA
ATOM     15  H   UNL     1       8.601   4.054  18.630  0.00  0.00    +0.000 HD
ENDBRANCH  12  14
ENDBRANCH  11  12
ENDBRANCH   6  11
TORSDOF 5
ENDMDL
MODEL 3
REMARK VINA RESULT:      -5.2      1.443      1.509
REMARK  Name = 
REMARK  6 active torsions:
REMARK  status: ('A' for Active; 'I' for Inactive)
REMARK    1  A    between atoms: C_1  and  C_2
REMARK    2  A    between atoms: C_2  and  C_3
REMARK    3  A    between atoms: C_3  and  N_4
REMARK    4  A    between atoms: N_9  and  C_10
REMARK    5  A    between atoms: C_10  and  C_11
REMARK    6  A    between atoms: C_11  and  O_13
REMARK                            x       y       z     vdW  Elec       q    Type
REMARK                         _______ _______ _______ _____ _____    ______ ____
ROOT
ATOM      1  N   UNL     1       6.455   4.772  16.794  0.00  0.00    +0.000 NA
ATOM      2  C   UNL     1       6.213   6.200  16.780  0.00  0.00    +0.000 C 
ATOM      3  S   UNL     1       4.535   6.710  17.105  0.00  0.00    +0.000 S 
ATOM      4  C   UNL     1       3.970   5.521  18.257  0.00  0.00    +0.000 C 
ATOM      5  S   UNL     1       2.622   5.877  19.191  0.00  0.00    +0.000 S 
ATOM      6  N   UNL     1       4.624   4.295  18.268  0.00  0.00    +0.000 N 
ATOM      7  C   UNL     1       6.059   4.199  18.054  0.00  0.00    +0.000 C 
ENDROOT
BRANCH   1   8
ATOM      8  C   UNL     1       6.018   4.020  15.621  0.00  0.00    +0.000 C 
BRANCH   8  10
ATOM      9  C   UNL     1       6.183   3.717  13.080  0.00  0.00    +0.000 C 
ATOM     10  C   UNL     1       6.589   4.547  14.292  0.00  0.00    +0.000 C 
ENDBRANCH   8  10
ENDBRANCH   1   8
BRANCH   6  11
ATOM     11  C   UNL     1       3.917   3.022  18.542  0.00  0.00    +0.000 C 
BRANCH  11  12
ATOM     12  C   UNL     1       4.071   2.445  19.946  0.00  0.00    +0.000 C 
ATOM     13  O   UNL     1       3.312   2.708  20.872  0.00  0.00    +0.000 OA
BRANCH  12  14
ATOM     14  O   UNL     1       5.162   1.655  20.104  0.00  0.00    +0.000 OA
ATOM     15  H   UNL     1       5.089   1.097  20.904  0.00  0.00    +0.000 HD
ENDBRANCH  12  14
ENDBRANCH  11  12
ENDBRANCH   6  11
TORSDOF 5
ENDMDL
MODEL 4
REMARK VINA RESULT:      -5.2      0.833      1.016
REMARK  Name = 
REMARK  6 active torsions:
REMARK  status: ('A' for Active; 'I' for Inactive)
REMARK    1  A    between atoms: C_1  and  C_2
REMARK    2  A    between atoms: C_2  and  C_3
REMARK    3  A    between atoms: C_3  and  N_4
REMARK    4  A    between atoms: N_9  and  C_10
REMARK    5  A    between atoms: C_10  and  C_11
REMARK    6  A    between atoms: C_11  and  O_13
REMARK                            x       y       z     vdW  Elec       q    Type
REMARK                         _______ _______ _______ _____ _____    ______ ____
ROOT
ATOM      1  N   UNL     1       5.260   5.323  17.775  0.00  0.00    +0.000 NA
ATOM      2  C   UNL     1       4.438   6.514  17.770  0.00  0.00    +0.000 C 
ATOM      3  S   UNL     1       2.736   6.290  18.253  0.00  0.00    +0.000 S 
ATOM      4  C   UNL     1       2.825   5.033  19.466  0.00  0.00    +0.000 C 
ATOM      5  S   UNL     1       1.536   4.837  20.524  0.00  0.00    +0.000 S 
ATOM      6  N   UNL     1       3.934   4.196  19.425  0.00  0.00    +0.000 N 
ATOM      7  C   UNL     1       5.251   4.699  19.073  0.00  0.00    +0.000 C 
ENDROOT
BRANCH   1   8
ATOM      8  C   UNL     1       5.084   4.399  16.657  0.00  0.00    +0.000 C 
BRANCH   8  10
ATOM      9  C   UNL     1       6.097   3.968  14.341  0.00  0.00    +0.000 C 
ATOM     10  C   UNL     1       5.480   4.987  15.291  0.00  0.00    +0.000 C 
ENDBRANCH   8  10
ENDBRANCH   1   8
BRANCH   6  11
ATOM     11  C   UNL     1       3.856   2.760  19.778  0.00  0.00    +0.000 C 
BRANCH  11  12
ATOM     12  C   UNL     1       3.188   1.841  18.758  0.00  0.00    +0.000 C 
ATOM     13  O   UNL     1       3.761   1.404  17.765  0.00  0.00    +0.000 OA
BRANCH  12  14
ATOM     14  O   UNL     1       1.879   1.594  19.007  0.00  0.00    +0.000 OA
ATOM     15  H   UNL     1       1.661   1.724  19.952  0.00  0.00    +0.000 HD
ENDBRANCH  12  14
ENDBRANCH  11  12
ENDBRANCH   6  11
TORSDOF 5
ENDMDL
MODEL 5
REMARK VINA RESULT:      -5.2      2.848      4.548
REMARK  Name = 
REMARK  6 active torsions:
REMARK  status: ('A' for Active; 'I' for Inactive)
REMARK    1  A    between atoms: C_1  and  C_2
REMARK    2  A    between atoms: C_2  and  C_3
REMARK    3  A    between atoms: C_3  and  N_4
REMARK    4  A    between atoms: N_9  and  C_10
REMARK    5  A    between atoms: C_10  and  C_11
REMARK    6  A    between atoms: C_11  and  O_13
REMARK                            x       y       z     vdW  Elec       q    Type
REMARK                         _______ _______ _______ _____ _____    ______ ____
ROOT
ATOM      1  N   UNL     1       3.787   4.381  18.147  0.00  0.00    +0.000 NA
ATOM      2  C   UNL     1       4.439   4.721  19.394  0.00  0.00    +0.000 C 
ATOM      3  S   UNL     1       6.139   5.245  19.269  0.00  0.00    +0.000 S 
ATOM      4  C   UNL     1       6.183   6.106  17.747  0.00  0.00    +0.000 C 
ATOM      5  S   UNL     1       7.451   7.167  17.454  0.00  0.00    +0.000 S 
ATOM      6  N   UNL     1       5.200   5.790  16.816  0.00  0.00    +0.000 N 
ATOM      7  C   UNL     1       3.839   5.485  17.224  0.00  0.00    +0.000 C 
ENDROOT
BRANCH   1   8
ATOM      8  C   UNL     1       4.124   3.085  17.562  0.00  0.00    +0.000 C 
BRANCH   8  10
ATOM      9  C   UNL     1       1.864   2.193  18.380  0.00  0.00    +0.000 C 
ATOM     10  C   UNL     1       3.345   1.904  18.167  0.00  0.00    +0.000 C 
ENDBRANCH   8  10
ENDBRANCH   1   8
BRANCH   6  11
ATOM     11  C   UNL     1       5.462   5.786  15.358  0.00  0.00    +0.000 C 
BRANCH  11  12
ATOM     12  C   UNL     1       6.584   4.874  14.869  0.00  0.00    +0.000 C 
ATOM     13  O   UNL     1       7.678   5.287  14.500  0.00  0.00    +0.000 OA
BRANCH  12  14
ATOM     14  O   UNL     1       6.248   3.561  14.816  0.00  0.00    +0.000 OA
ATOM     15  H   UNL     1       7.036   2.986  14.890  0.00  0.00    +0.000 HD
ENDBRANCH  12  14
ENDBRANCH  11  12
ENDBRANCH   6  11
TORSDOF 5
ENDMDL
MODEL 6
REMARK VINA RESULT:      -5.1      2.168      4.290
REMARK  Name = 
REMARK  6 active torsions:
REMARK  status: ('A' for Active; 'I' for Inactive)
REMARK    1  A    between atoms: C_1  and  C_2
REMARK    2  A    between atoms: C_2  and  C_3
REMARK    3  A    between atoms: C_3  and  N_4
REMARK    4  A    between atoms: N_9  and  C_10
REMARK    5  A    between atoms: C_10  and  C_11
REMARK    6  A    between atoms: C_11  and  O_13
REMARK                            x       y       z     vdW  Elec       q    Type
REMARK                         _______ _______ _______ _____ _____    ______ ____
ROOT
ATOM      1  N   UNL     1       2.070   5.418  18.715  0.00  0.00    +0.000 NA
ATOM      2  C   UNL     1       2.708   6.655  18.316  0.00  0.00    +0.000 C 
ATOM      3  S   UNL     1       4.390   6.514  17.740  0.00  0.00    +0.000 S 
ATOM      4  C   UNL     1       4.408   4.967  16.925  0.00  0.00    +0.000 C 
ATOM      5  S   UNL     1       5.641   4.642  15.833  0.00  0.00    +0.000 S 
ATOM      6  N   UNL     1       3.438   4.046  17.303  0.00  0.00    +0.000 N 
ATOM      7  C   UNL     1       2.086   4.462  17.639  0.00  0.00    +0.000 C 
ENDROOT
BRANCH   1   8
ATOM      8  C   UNL     1       2.450   4.874  20.017  0.00  0.00    +0.000 C 
BRANCH   8  10
ATOM      9  C   UNL     1       1.809   3.077  21.729  0.00  0.00    +0.000 C 
ATOM     10  C   UNL     1       1.317   4.122  20.736  0.00  0.00    +0.000 C 
ENDBRANCH   8  10
ENDBRANCH   1   8
BRANCH   6  11
ATOM     11  C   UNL     1       3.702   2.589  17.342  0.00  0.00    +0.000 C 
BRANCH  11  12
ATOM     12  C   UNL     1       3.447   1.885  18.672  0.00  0.00    +0.000 C 
ATOM     13  O   UNL     1       4.265   1.849  19.586  0.00  0.00    +0.000 OA
BRANCH  12  14
ATOM     14  O   UNL     1       2.255   1.243  18.741  0.00  0.00    +0.000 OA
ATOM     15  H   UNL     1       2.161   0.580  18.027  0.00  0.00    +0.000 HD
ENDBRANCH  12  14
ENDBRANCH  11  12
ENDBRANCH   6  11
TORSDOF 5
ENDMDL
MODEL 7
REMARK VINA RESULT:      -5.0      1.367      1.602
REMARK  Name = 
REMARK  6 active torsions:
REMARK  status: ('A' for Active; 'I' for Inactive)
REMARK    1  A    between atoms: C_1  and  C_2
REMARK    2  A    between atoms: C_2  and  C_3
REMARK    3  A    between atoms: C_3  and  N_4
REMARK    4  A    between atoms: N_9  and  C_10
REMARK    5  A    between atoms: C_10  and  C_11
REMARK    6  A    between atoms: C_11  and  O_13
REMARK                            x       y       z     vdW  Elec       q    Type
REMARK                         _______ _______ _______ _____ _____    ______ ____
ROOT
ATOM      1  N   UNL     1       6.071   4.632  16.002  0.00  0.00    +0.000 NA
ATOM      2  C   UNL     1       6.143   6.029  16.378  0.00  0.00    +0.000 C 
ATOM      3  S   UNL     1       4.628   6.754  16.979  0.00  0.00    +0.000 S 
ATOM      4  C   UNL     1       3.861   5.434  17.832  0.00  0.00    +0.000 C 
ATOM      5  S   UNL     1       2.657   5.783  18.948  0.00  0.00    +0.000 S 
ATOM      6  N   UNL     1       4.235   4.146  17.466  0.00  0.00    +0.000 N 
ATOM      7  C   UNL     1       5.606   3.829  17.102  0.00  0.00    +0.000 C 
ENDROOT
BRANCH   1   8
ATOM      8  C   UNL     1       5.439   4.330  14.719  0.00  0.00    +0.000 C 
BRANCH   8  10
ATOM      9  C   UNL     1       5.852   3.325  12.397  0.00  0.00    +0.000 C 
ATOM     10  C   UNL     1       6.436   4.104  13.569  0.00  0.00    +0.000 C 
ENDBRANCH   8  10
ENDBRANCH   1   8
BRANCH   6  11
ATOM     11  C   UNL     1       3.279   3.014  17.466  0.00  0.00    +0.000 C 
BRANCH  11  12
ATOM     12  C   UNL     1       3.413   2.009  18.607  0.00  0.00    +0.000 C 
ATOM     13  O   UNL     1       3.120   2.263  19.770  0.00  0.00    +0.000 OA
BRANCH  12  14
ATOM     14  O   UNL     1       3.945   0.818  18.237  0.00  0.00    +0.000 OA
ATOM     15  H   UNL     1       3.781   0.629  17.291  0.00  0.00    +0.000 HD
ENDBRANCH  12  14
ENDBRANCH  11  12
ENDBRANCH   6  11
TORSDOF 5
ENDMDL
MODEL 8
REMARK VINA RESULT:      -5.0      0.997      1.300
REMARK  Name = 
REMARK  6 active torsions:
REMARK  status: ('A' for Active; 'I' for Inactive)
REMARK    1  A    between atoms: C_1  and  C_2
REMARK    2  A    between atoms: C_2  and  C_3
REMARK    3  A    between atoms: C_3  and  N_4
REMARK    4  A    between atoms: N_9  and  C_10
REMARK    5  A    between atoms: C_10  and  C_11
REMARK    6  A    between atoms: C_11  and  O_13
REMARK                            x       y       z     vdW  Elec       q    Type
REMARK                         _______ _______ _______ _____ _____    ______ ____
ROOT
ATOM      1  N   UNL     1       5.346   4.999  17.478  0.00  0.00    +0.000 NA
ATOM      2  C   UNL     1       4.946   6.384  17.615  0.00  0.00    +0.000 C 
ATOM      3  S   UNL     1       3.290   6.662  18.217  0.00  0.00    +0.000 S 
ATOM      4  C   UNL     1       3.043   5.341  19.337  0.00  0.00    +0.000 C 
ATOM      5  S   UNL     1       1.821   5.467  20.480  0.00  0.00    +0.000 S 
ATOM      6  N   UNL     1       3.825   4.206  19.154  0.00  0.00    +0.000 N 
ATOM      7  C   UNL     1       5.212   4.301  18.730  0.00  0.00    +0.000 C 
ENDROOT
BRANCH   1   8
ATOM      8  C   UNL     1       4.823   4.276  16.321  0.00  0.00    +0.000 C 
BRANCH   8  10
ATOM      9  C   UNL     1       6.940   4.773  14.962  0.00  0.00    +0.000 C 
ATOM     10  C   UNL     1       5.912   3.729  15.381  0.00  0.00    +0.000 C 
ENDBRANCH   8  10
ENDBRANCH   1   8
BRANCH   6  11
ATOM     11  C   UNL     1       3.315   2.841  19.420  0.00  0.00    +0.000 C 
BRANCH  11  12
ATOM     12  C   UNL     1       4.361   1.749  19.622  0.00  0.00    +0.000 C 
ATOM     13  O   UNL     1       5.144   1.729  20.566  0.00  0.00    +0.000 OA
BRANCH  12  14
ATOM     14  O   UNL     1       4.396   0.824  18.631  0.00  0.00    +0.000 OA
ATOM     15  H   UNL     1       4.411   1.244  17.747  0.00  0.00    +0.000 HD
ENDBRANCH  12  14
ENDBRANCH  11  12
ENDBRANCH   6  11
TORSDOF 5
ENDMDL
MODEL 9
REMARK VINA RESULT:      -5.0      2.935      4.346
REMARK  Name = 
REMARK  6 active torsions:
REMARK  status: ('A' for Active; 'I' for Inactive)
REMARK    1  A    between atoms: C_1  and  C_2
REMARK    2  A    between atoms: C_2  and  C_3
REMARK    3  A    between atoms: C_3  and  N_4
REMARK    4  A    between atoms: N_9  and  C_10
REMARK    5  A    between atoms: C_10  and  C_11
REMARK    6  A    between atoms: C_11  and  O_13
REMARK                            x       y       z     vdW  Elec       q    Type
REMARK                         _______ _______ _______ _____ _____    ______ ____
ROOT
ATOM      1  N   UNL     1       2.934   6.129  19.432  0.00  0.00    +0.000 NA
ATOM      2  C   UNL     1       2.039   5.326  20.237  0.00  0.00    +0.000 C 
ATOM      3  S   UNL     1       1.705   3.682  19.629  0.00  0.00    +0.000 S 
ATOM      4  C   UNL     1       3.217   3.214  18.884  0.00  0.00    +0.000 C 
ATOM      5  S   UNL     1       3.510   1.586  18.605  0.00  0.00    +0.000 S 
ATOM      6  N   UNL     1       4.062   4.240  18.477  0.00  0.00    +0.000 N 
ATOM      7  C   UNL     1       4.198   5.463  19.251  0.00  0.00    +0.000 C 
ENDROOT
BRANCH   1   8
ATOM      8  C   UNL     1       2.376   6.714  18.215  0.00  0.00    +0.000 C 
BRANCH   8  10
ATOM      9  C   UNL     1       1.790   9.186  17.874  0.00  0.00    +0.000 C 
ATOM     10  C   UNL     1       2.890   8.131  17.909  0.00  0.00    +0.000 C 
ENDBRANCH   8  10
ENDBRANCH   1   8
BRANCH   6  11
ATOM     11  C   UNL     1       4.905   4.136  17.264  0.00  0.00    +0.000 C 
BRANCH  11  12
ATOM     12  C   UNL     1       6.263   4.831  17.316  0.00  0.00    +0.000 C 
ATOM     13  O   UNL     1       6.518   5.866  16.709  0.00  0.00    +0.000 OA
BRANCH  12  14
ATOM     14  O   UNL     1       7.196   4.171  18.046  0.00  0.00    +0.000 OA
ATOM     15  H   UNL     1       8.009   4.007  17.528  0.00  0.00    +0.000 HD
ENDBRANCH  12  14
ENDBRANCH  11  12
ENDBRANCH   6  11
TORSDOF 5
ENDMDL
