MODEL 1
REMARK VINA RESULT:      -6.6      0.000      0.000
REMARK  Name = 
REMARK  3 active torsions:
REMARK  status: ('A' for Active; 'I' for Inactive)
REMARK    1  A    between atoms: C_1  and  C_2
REMARK    2  A    between atoms: C_4  and  N_5
REMARK    3  A    between atoms: C_13  and  C_14
REMARK                            x       y       z     vdW  Elec       q    Type
REMARK                         _______ _______ _______ _____ _____    ______ ____
ROOT
ATOM      1  C   UNL     1       2.336   4.473  21.258  0.00  0.00    +0.000 C 
ATOM      2  C   UNL     1       2.641   5.449  20.156  0.00  0.00    +0.000 A 
ATOM      3  C   UNL     1       3.494   5.044  19.133  0.00  0.00    +0.000 A 
ATOM      4  C   UNL     1       3.765   5.880  18.058  0.00  0.00    +0.000 A 
ATOM      5  N   UNL     1       3.216   7.110  17.990  0.00  0.00    +0.000 NA
ATOM      6  C   UNL     1       2.412   7.557  18.985  0.00  0.00    +0.000 A 
ATOM      7  C   UNL     1       1.860   8.850  18.935  0.00  0.00    +0.000 A 
ATOM      8  C   UNL     1       2.162   9.797  17.802  0.00  0.00    +0.000 C 
ATOM      9  C   UNL     1       0.996   9.317  19.948  0.00  0.00    +0.000 A 
ATOM     10  C   UNL     1       0.677   8.502  21.020  0.00  0.00    +0.000 A 
ATOM     11 BR   UNL     1      -0.487   9.122  22.371  0.00  0.00    +0.000 Br
ATOM     12  C   UNL     1       1.216   7.226  21.100  0.00  0.00    +0.000 A 
ATOM     13  C   UNL     1       2.085   6.740  20.095  0.00  0.00    +0.000 A 
ENDROOT
BRANCH   4  14
ATOM     14  N   UNL     1       4.515   5.385  17.011  0.00  0.00    +0.000 N 
ATOM     15  C   UNL     1       4.285   4.029  16.515  0.00  0.00    +0.000 C 
ATOM     16  C   UNL     1       5.647   3.498  16.019  0.00  0.00    +0.000 C 
ATOM     17  O   UNL     1       6.220   4.352  15.006  0.00  0.00    +0.000 OA
ATOM     18  C   UNL     1       6.394   5.691  15.505  0.00  0.00    +0.000 C 
ATOM     19  C   UNL     1       5.064   6.288  15.993  0.00  0.00    +0.000 C 
ENDBRANCH   4  14
TORSDOF 1
ENDMDL
MODEL 2
REMARK VINA RESULT:      -6.3      0.823      1.082
REMARK  Name = 
REMARK  3 active torsions:
REMARK  status: ('A' for Active; 'I' for Inactive)
REMARK    1  A    between atoms: C_1  and  C_2
REMARK    2  A    between atoms: C_4  and  N_5
REMARK    3  A    between atoms: C_13  and  C_14
REMARK                            x       y       z     vdW  Elec       q    Type
REMARK                         _______ _______ _______ _____ _____    ______ ____
ROOT
ATOM      1  C   UNL     1       2.362   4.167  21.448  0.00  0.00    +0.000 C 
ATOM      2  C   UNL     1       2.767   5.092  20.334  0.00  0.00    +0.000 A 
ATOM      3  C   UNL     1       3.711   4.644  19.414  0.00  0.00    +0.000 A 
ATOM      4  C   UNL     1       4.078   5.430  18.330  0.00  0.00    +0.000 A 
ATOM      5  N   UNL     1       3.536   6.652  18.153  0.00  0.00    +0.000 NA
ATOM      6  C   UNL     1       2.644   7.141  19.048  0.00  0.00    +0.000 A 
ATOM      7  C   UNL     1       2.097   8.427  18.886  0.00  0.00    +0.000 A 
ATOM      8  C   UNL     1       2.500   9.321  17.742  0.00  0.00    +0.000 C 
ATOM      9  C   UNL     1       1.143   8.937  19.792  0.00  0.00    +0.000 A 
ATOM     10  C   UNL     1       0.728   8.172  20.867  0.00  0.00    +0.000 A 
ATOM     11 BR   UNL     1      -0.556   8.848  22.075  0.00  0.00    +0.000 Br
ATOM     12  C   UNL     1       1.258   6.904  21.058  0.00  0.00    +0.000 A 
ATOM     13  C   UNL     1       2.217   6.375  20.161  0.00  0.00    +0.000 A 
ENDROOT
BRANCH   4  14
ATOM     14  N   UNL     1       4.921   4.890  17.381  0.00  0.00    +0.000 N 
ATOM     15  C   UNL     1       6.293   4.525  17.732  0.00  0.00    +0.000 C 
ATOM     16  C   UNL     1       7.152   4.748  16.469  0.00  0.00    +0.000 C 
ATOM     17  O   UNL     1       6.664   3.984  15.346  0.00  0.00    +0.000 OA
ATOM     18  C   UNL     1       5.298   4.329  15.049  0.00  0.00    +0.000 C 
ATOM     19  C   UNL     1       4.383   4.104  16.264  0.00  0.00    +0.000 C 
ENDBRANCH   4  14
TORSDOF 1
ENDMDL
MODEL 3
REMARK VINA RESULT:      -6.3      0.459      1.129
REMARK  Name = 
REMARK  3 active torsions:
REMARK  status: ('A' for Active; 'I' for Inactive)
REMARK    1  A    between atoms: C_1  and  C_2
REMARK    2  A    between atoms: C_4  and  N_5
REMARK    3  A    between atoms: C_13  and  C_14
REMARK                            x       y       z     vdW  Elec       q    Type
REMARK                         _______ _______ _______ _____ _____    ______ ____
ROOT
ATOM      1  C   UNL     1       2.367   4.478  21.244  0.00  0.00    +0.000 C 
ATOM      2  C   UNL     1       2.692   5.468  20.160  0.00  0.00    +0.000 A 
ATOM      3  C   UNL     1       3.592   5.089  19.167  0.00  0.00    +0.000 A 
ATOM      4  C   UNL     1       3.884   5.938  18.109  0.00  0.00    +0.000 A 
ATOM      5  N   UNL     1       3.310   7.155  18.026  0.00  0.00    +0.000 NA
ATOM      6  C   UNL     1       2.460   7.578  18.993  0.00  0.00    +0.000 A 
ATOM      7  C   UNL     1       1.882   8.859  18.929  0.00  0.00    +0.000 A 
ATOM      8  C   UNL     1       2.205   9.820  17.814  0.00  0.00    +0.000 C 
ATOM      9  C   UNL     1       0.971   9.301  19.912  0.00  0.00    +0.000 A 
ATOM     10  C   UNL     1       0.629   8.472  20.966  0.00  0.00    +0.000 A 
ATOM     11 BR   UNL     1      -0.598   9.057  22.276  0.00  0.00    +0.000 Br
ATOM     12  C   UNL     1       1.193   7.208  21.060  0.00  0.00    +0.000 A 
ATOM     13  C   UNL     1       2.110   6.747  20.085  0.00  0.00    +0.000 A 
ENDROOT
BRANCH   4  14
ATOM     14  N   UNL     1       4.683   5.466  17.088  0.00  0.00    +0.000 N 
ATOM     15  C   UNL     1       5.234   6.386  16.094  0.00  0.00    +0.000 C 
ATOM     16  C   UNL     1       5.333   5.605  14.767  0.00  0.00    +0.000 C 
ATOM     17  O   UNL     1       6.138   4.415  14.902  0.00  0.00    +0.000 OA
ATOM     18  C   UNL     1       5.601   3.547  15.917  0.00  0.00    +0.000 C 
ATOM     19  C   UNL     1       5.501   4.262  17.275  0.00  0.00    +0.000 C 
ENDBRANCH   4  14
TORSDOF 1
ENDMDL
MODEL 4
REMARK VINA RESULT:      -5.8      7.898     11.046
REMARK  Name = 
REMARK  3 active torsions:
REMARK  status: ('A' for Active; 'I' for Inactive)
REMARK    1  A    between atoms: C_1  and  C_2
REMARK    2  A    between atoms: C_4  and  N_5
REMARK    3  A    between atoms: C_13  and  C_14
REMARK                            x       y       z     vdW  Elec       q    Type
REMARK                         _______ _______ _______ _____ _____    ______ ____
ROOT
ATOM      1  C   UNL     1      -6.895  12.636  17.450  0.00  0.00    +0.000 C 
ATOM      2  C   UNL     1      -5.628  12.380  18.218  0.00  0.00    +0.000 A 
ATOM      3  C   UNL     1      -5.562  12.801  19.543  0.00  0.00    +0.000 A 
ATOM      4  C   UNL     1      -4.442  12.538  20.319  0.00  0.00    +0.000 A 
ATOM      5  N   UNL     1      -3.386  11.880  19.800  0.00  0.00    +0.000 NA
ATOM      6  C   UNL     1      -3.393  11.490  18.502  0.00  0.00    +0.000 A 
ATOM      7  C   UNL     1      -2.283  10.830  17.945  0.00  0.00    +0.000 A 
ATOM      8  C   UNL     1      -1.036  10.561  18.748  0.00  0.00    +0.000 C 
ATOM      9  C   UNL     1      -2.290  10.389  16.605  0.00  0.00    +0.000 A 
ATOM     10  C   UNL     1      -3.400  10.604  15.808  0.00  0.00    +0.000 A 
ATOM     11 BR   UNL     1      -3.415  10.006  14.017  0.00  0.00    +0.000 Br
ATOM     12  C   UNL     1      -4.505  11.262  16.328  0.00  0.00    +0.000 A 
ATOM     13  C   UNL     1      -4.518  11.713  17.669  0.00  0.00    +0.000 A 
ENDROOT
BRANCH   4  14
ATOM     14  N   UNL     1      -4.478  12.864  21.660  0.00  0.00    +0.000 N 
ATOM     15  C   UNL     1      -3.248  13.210  22.370  0.00  0.00    +0.000 C 
ATOM     16  C   UNL     1      -3.422  12.732  23.827  0.00  0.00    +0.000 C 
ATOM     17  O   UNL     1      -4.585  13.317  24.449  0.00  0.00    +0.000 OA
ATOM     18  C   UNL     1      -5.777  13.000  23.706  0.00  0.00    +0.000 C 
ATOM     19  C   UNL     1      -5.675  13.476  22.248  0.00  0.00    +0.000 C 
ENDBRANCH   4  14
TORSDOF 1
ENDMDL
MODEL 5
REMARK VINA RESULT:      -5.8      7.854     10.924
REMARK  Name = 
REMARK  3 active torsions:
REMARK  status: ('A' for Active; 'I' for Inactive)
REMARK    1  A    between atoms: C_1  and  C_2
REMARK    2  A    between atoms: C_4  and  N_5
REMARK    3  A    between atoms: C_13  and  C_14
REMARK                            x       y       z     vdW  Elec       q    Type
REMARK                         _______ _______ _______ _____ _____    ______ ____
ROOT
ATOM      1  C   UNL     1      -6.789  12.437  17.664  0.00  0.00    +0.000 C 
ATOM      2  C   UNL     1      -5.464  12.301  18.362  0.00  0.00    +0.000 A 
ATOM      3  C   UNL     1      -5.352  12.782  19.664  0.00  0.00    +0.000 A 
ATOM      4  C   UNL     1      -4.173  12.631  20.380  0.00  0.00    +0.000 A 
ATOM      5  N   UNL     1      -3.105  12.025  19.824  0.00  0.00    +0.000 NA
ATOM      6  C   UNL     1      -3.160  11.579  18.546  0.00  0.00    +0.000 A 
ATOM      7  C   UNL     1      -2.039  10.973  17.949  0.00  0.00    +0.000 A 
ATOM      8  C   UNL     1      -0.732  10.825  18.684  0.00  0.00    +0.000 C 
ATOM      9  C   UNL     1      -2.092  10.475  16.630  0.00  0.00    +0.000 A 
ATOM     10  C   UNL     1      -3.259  10.578  15.893  0.00  0.00    +0.000 A 
ATOM     11 BR   UNL     1      -3.335   9.904  14.132  0.00  0.00    +0.000 Br
ATOM     12  C   UNL     1      -4.376  11.181  16.454  0.00  0.00    +0.000 A 
ATOM     13  C   UNL     1      -4.343  11.688  17.774  0.00  0.00    +0.000 A 
ENDROOT
BRANCH   4  14
ATOM     14  N   UNL     1      -4.155  13.012  21.707  0.00  0.00    +0.000 N 
ATOM     15  C   UNL     1      -5.406  13.208  22.436  0.00  0.00    +0.000 C 
ATOM     16  C   UNL     1      -5.150  14.322  23.473  0.00  0.00    +0.000 C 
ATOM     17  O   UNL     1      -4.058  13.993  24.357  0.00  0.00    +0.000 OA
ATOM     18  C   UNL     1      -2.848  13.760  23.611  0.00  0.00    +0.000 C 
ATOM     19  C   UNL     1      -3.032  12.639  22.576  0.00  0.00    +0.000 C 
ENDBRANCH   4  14
TORSDOF 1
ENDMDL
MODEL 6
REMARK VINA RESULT:      -5.8      3.665      6.271
REMARK  Name = 
REMARK  3 active torsions:
REMARK  status: ('A' for Active; 'I' for Inactive)
REMARK    1  A    between atoms: C_1  and  C_2
REMARK    2  A    between atoms: C_4  and  N_5
REMARK    3  A    between atoms: C_13  and  C_14
REMARK                            x       y       z     vdW  Elec       q    Type
REMARK                         _______ _______ _______ _____ _____    ______ ____
ROOT
ATOM      1  C   UNL     1       4.903   6.562  16.366  0.00  0.00    +0.000 C 
ATOM      2  C   UNL     1       3.871   6.541  17.460  0.00  0.00    +0.000 A 
ATOM      3  C   UNL     1       3.319   7.751  17.869  0.00  0.00    +0.000 A 
ATOM      4  C   UNL     1       2.319   7.789  18.831  0.00  0.00    +0.000 A 
ATOM      5  N   UNL     1       1.870   6.652  19.399  0.00  0.00    +0.000 NA
ATOM      6  C   UNL     1       2.409   5.457  19.058  0.00  0.00    +0.000 A 
ATOM      7  C   UNL     1       1.967   4.269  19.668  0.00  0.00    +0.000 A 
ATOM      8  C   UNL     1       0.909   4.277  20.742  0.00  0.00    +0.000 C 
ATOM      9  C   UNL     1       2.497   3.015  19.300  0.00  0.00    +0.000 A 
ATOM     10  C   UNL     1       3.473   2.932  18.322  0.00  0.00    +0.000 A 
ATOM     11 BR   UNL     1       4.176   1.254  17.821  0.00  0.00    +0.000 Br
ATOM     12  C   UNL     1       3.936   4.089  17.711  0.00  0.00    +0.000 A 
ATOM     13  C   UNL     1       3.418   5.356  18.068  0.00  0.00    +0.000 A 
ENDROOT
BRANCH   4  14
ATOM     14  N   UNL     1       1.719   9.000  19.110  0.00  0.00    +0.000 N 
ATOM     15  C   UNL     1       1.420   9.942  18.032  0.00  0.00    +0.000 C 
ATOM     16  C   UNL     1       1.552  11.360  18.628  0.00  0.00    +0.000 C 
ATOM     17  O   UNL     1       0.681  11.548  19.764  0.00  0.00    +0.000 OA
ATOM     18  C   UNL     1       0.964  10.580  20.792  0.00  0.00    +0.000 C 
ATOM     19  C   UNL     1       0.825   9.142  20.265  0.00  0.00    +0.000 C 
ENDBRANCH   4  14
TORSDOF 1
ENDMDL
MODEL 7
REMARK VINA RESULT:      -5.8      7.032      9.597
REMARK  Name = 
REMARK  3 active torsions:
REMARK  status: ('A' for Active; 'I' for Inactive)
REMARK    1  A    between atoms: C_1  and  C_2
REMARK    2  A    between atoms: C_4  and  N_5
REMARK    3  A    between atoms: C_13  and  C_14
REMARK                            x       y       z     vdW  Elec       q    Type
REMARK                         _______ _______ _______ _____ _____    ______ ____
ROOT
ATOM      1  C   UNL     1       0.319  10.040  18.266  0.00  0.00    +0.000 C 
ATOM      2  C   UNL     1      -0.906  10.752  18.769  0.00  0.00    +0.000 A 
ATOM      3  C   UNL     1      -0.873  11.300  20.048  0.00  0.00    +0.000 A 
ATOM      4  C   UNL     1      -1.952  12.019  20.543  0.00  0.00    +0.000 A 
ATOM      5  N   UNL     1      -3.061  12.193  19.797  0.00  0.00    +0.000 NA
ATOM      6  C   UNL     1      -3.150  11.641  18.563  0.00  0.00    +0.000 A 
ATOM      7  C   UNL     1      -4.316  11.792  17.792  0.00  0.00    +0.000 A 
ATOM      8  C   UNL     1      -5.520  12.536  18.311  0.00  0.00    +0.000 C 
ATOM      9  C   UNL     1      -4.410  11.250  16.492  0.00  0.00    +0.000 A 
ATOM     10  C   UNL     1      -3.345  10.553  15.951  0.00  0.00    +0.000 A 
ATOM     11 BR   UNL     1      -3.464   9.836  14.209  0.00  0.00    +0.000 Br
ATOM     12  C   UNL     1      -2.185  10.380  16.694  0.00  0.00    +0.000 A 
ATOM     13  C   UNL     1      -2.072  10.914  17.999  0.00  0.00    +0.000 A 
ENDROOT
BRANCH   4  14
ATOM     14  N   UNL     1      -1.819  12.647  21.765  0.00  0.00    +0.000 N 
ATOM     15  C   UNL     1      -2.692  12.285  22.880  0.00  0.00    +0.000 C 
ATOM     16  C   UNL     1      -2.896  13.563  23.722  0.00  0.00    +0.000 C 
ATOM     17  O   UNL     1      -1.642  14.112  24.177  0.00  0.00    +0.000 OA
ATOM     18  C   UNL     1      -0.783  14.419  23.063  0.00  0.00    +0.000 C 
ATOM     19  C   UNL     1      -0.520  13.176  22.197  0.00  0.00    +0.000 C 
ENDBRANCH   4  14
TORSDOF 1
ENDMDL
MODEL 8
REMARK VINA RESULT:      -5.8      6.566      9.562
REMARK  Name = 
REMARK  3 active torsions:
REMARK  status: ('A' for Active; 'I' for Inactive)
REMARK    1  A    between atoms: C_1  and  C_2
REMARK    2  A    between atoms: C_4  and  N_5
REMARK    3  A    between atoms: C_13  and  C_14
REMARK                            x       y       z     vdW  Elec       q    Type
REMARK                         _______ _______ _______ _____ _____    ______ ____
ROOT
ATOM      1  C   UNL     1       0.421   9.337  23.363  0.00  0.00    +0.000 C 
ATOM      2  C   UNL     1      -0.346  10.254  22.452  0.00  0.00    +0.000 A 
ATOM      3  C   UNL     1      -1.271  11.126  23.019  0.00  0.00    +0.000 A 
ATOM      4  C   UNL     1      -1.966  12.037  22.235  0.00  0.00    +0.000 A 
ATOM      5  N   UNL     1      -1.767  12.087  20.902  0.00  0.00    +0.000 NA
ATOM      6  C   UNL     1      -0.906  11.228  20.306  0.00  0.00    +0.000 A 
ATOM      7  C   UNL     1      -0.716  11.254  18.912  0.00  0.00    +0.000 A 
ATOM      8  C   UNL     1      -1.480  12.204  18.026  0.00  0.00    +0.000 C 
ATOM      9  C   UNL     1       0.201  10.387  18.281  0.00  0.00    +0.000 A 
ATOM     10  C   UNL     1       0.935   9.486  19.032  0.00  0.00    +0.000 A 
ATOM     11 BR   UNL     1       2.170   8.332  18.191  0.00  0.00    +0.000 Br
ATOM     12  C   UNL     1       0.761   9.431  20.407  0.00  0.00    +0.000 A 
ATOM     13  C   UNL     1      -0.155  10.291  21.059  0.00  0.00    +0.000 A 
ENDROOT
BRANCH   4  14
ATOM     14  N   UNL     1      -2.775  12.963  22.861  0.00  0.00    +0.000 N 
ATOM     15  C   UNL     1      -3.788  12.528  23.822  0.00  0.00    +0.000 C 
ATOM     16  C   UNL     1      -4.963  13.523  23.712  0.00  0.00    +0.000 C 
ATOM     17  O   UNL     1      -4.541  14.882  23.953  0.00  0.00    +0.000 OA
ATOM     18  C   UNL     1      -3.513  15.270  23.024  0.00  0.00    +0.000 C 
ATOM     19  C   UNL     1      -2.299  14.330  23.103  0.00  0.00    +0.000 C 
ENDBRANCH   4  14
TORSDOF 1
ENDMDL
MODEL 9
REMARK VINA RESULT:      -5.8      6.567      9.640
REMARK  Name = 
REMARK  3 active torsions:
REMARK  status: ('A' for Active; 'I' for Inactive)
REMARK    1  A    between atoms: C_1  and  C_2
REMARK    2  A    between atoms: C_4  and  N_5
REMARK    3  A    between atoms: C_13  and  C_14
REMARK                            x       y       z     vdW  Elec       q    Type
REMARK                         _______ _______ _______ _____ _____    ______ ____
ROOT
ATOM      1  C   UNL     1       0.239   9.440  23.423  0.00  0.00    +0.000 C 
ATOM      2  C   UNL     1      -0.481  10.332  22.450  0.00  0.00    +0.000 A 
ATOM      3  C   UNL     1      -1.414  11.237  22.950  0.00  0.00    +0.000 A 
ATOM      4  C   UNL     1      -2.066  12.127  22.108  0.00  0.00    +0.000 A 
ATOM      5  N   UNL     1      -1.817  12.125  20.783  0.00  0.00    +0.000 NA
ATOM      6  C   UNL     1      -0.946  11.234  20.251  0.00  0.00    +0.000 A 
ATOM      7  C   UNL     1      -0.705  11.206  18.865  0.00  0.00    +0.000 A 
ATOM      8  C   UNL     1      -1.421  12.133  17.917  0.00  0.00    +0.000 C 
ATOM      9  C   UNL     1       0.223  10.305  18.302  0.00  0.00    +0.000 A 
ATOM     10  C   UNL     1       0.916   9.423  19.112  0.00  0.00    +0.000 A 
ATOM     11 BR   UNL     1       2.165   8.223  18.361  0.00  0.00    +0.000 Br
ATOM     12  C   UNL     1       0.690   9.421  20.481  0.00  0.00    +0.000 A 
ATOM     13  C   UNL     1      -0.238  10.316  21.065  0.00  0.00    +0.000 A 
ENDROOT
BRANCH   4  14
ATOM     14  N   UNL     1      -2.885  13.085  22.669  0.00  0.00    +0.000 N 
ATOM     15  C   UNL     1      -3.637  14.005  21.818  0.00  0.00    +0.000 C 
ATOM     16  C   UNL     1      -3.752  15.337  22.590  0.00  0.00    +0.000 C 
ATOM     17  O   UNL     1      -4.381  15.159  23.876  0.00  0.00    +0.000 OA
ATOM     18  C   UNL     1      -3.647  14.215  24.678  0.00  0.00    +0.000 C 
ATOM     19  C   UNL     1      -3.520  12.855  23.972  0.00  0.00    +0.000 C 
ENDBRANCH   4  14
TORSDOF 1
ENDMDL
