MODEL 1
REMARK VINA RESULT:      -9.3      0.000      0.000
REMARK  Name = 
REMARK  4 active torsions:
REMARK  status: ('A' for Active; 'I' for Inactive)
REMARK    1  A    between atoms: C_1  and  C_2
REMARK    2  A    between atoms: C_4  and  C_5
REMARK    3  A    between atoms: C_10  and  C_11
REMARK    4  A    between atoms: C_13  and  N_14
REMARK                            x       y       z     vdW  Elec       q    Type
REMARK                         _______ _______ _______ _____ _____    ______ ____
ROOT
ATOM      1  C   UNL     1      -0.091  10.573  20.578  0.00  0.00    +0.000 A 
ATOM      2  C   UNL     1       0.362  11.002  19.317  0.00  0.00    +0.000 A 
ATOM      3  N   UNL     1       1.188  10.336  18.469  0.00  0.00    +0.000 NA
ATOM      4  C   UNL     1       1.571   9.146  18.969  0.00  0.00    +0.000 A 
ATOM      5  N   UNL     1       2.350   8.216  18.365  0.00  0.00    +0.000 N 
ATOM      6  C   UNL     1       2.454   7.115  19.196  0.00  0.00    +0.000 A 
ATOM      7  N   UNL     1       1.814   7.347  20.329  0.00  0.00    +0.000 NA
ATOM      8  C   UNL     1       1.233   8.587  20.192  0.00  0.00    +0.000 A 
ATOM      9  C   UNL     1       0.378   9.319  21.023  0.00  0.00    +0.000 A 
ATOM     10  H   UNL     1       2.716   8.288  17.419  0.00  0.00    +0.000 HD
ENDROOT
BRANCH   1  14
ATOM     11  C   UNL     1      -3.472  14.300  20.897  0.00  0.00    +0.000 C 
ATOM     12  C   UNL     1      -2.665  13.211  21.538  0.00  0.00    +0.000 A 
ATOM     13  C   UNL     1      -1.789  12.418  20.787  0.00  0.00    +0.000 A 
ATOM     14  C   UNL     1      -1.025  11.387  21.383  0.00  0.00    +0.000 A 
ATOM     15  C   UNL     1      -1.185  11.174  22.765  0.00  0.00    +0.000 A 
ATOM     16  C   UNL     1      -2.057  11.960  23.523  0.00  0.00    +0.000 A 
ATOM     17  C   UNL     1      -2.785  12.971  22.904  0.00  0.00    +0.000 A 
ATOM     18  F   UNL     1      -3.615  13.717  23.644  0.00  0.00    +0.000 F 
ENDBRANCH   1  14
BRANCH   6  19
ATOM     19  C   UNL     1       3.123   5.869  18.795  0.00  0.00    +0.000 A 
ATOM     20  C   UNL     1       3.594   5.660  17.479  0.00  0.00    +0.000 A 
ATOM     21  C   UNL     1       4.283   4.493  17.117  0.00  0.00    +0.000 A 
ATOM     22  C   UNL     1       4.492   3.507  18.093  0.00  0.00    +0.000 A 
ATOM     23  C   UNL     1       4.025   3.703  19.405  0.00  0.00    +0.000 A 
ATOM     24  C   UNL     1       3.353   4.862  19.735  0.00  0.00    +0.000 A 
ATOM     25  F   UNL     1       2.913   5.007  20.996  0.00  0.00    +0.000 F 
BRANCH  21  26
ATOM     26  N   UNL     1       4.778   4.294  15.796  0.00  0.00    +0.000 N 
ATOM     27  C   UNL     1       6.014   4.723  15.326  0.00  0.00    +0.000 C 
ATOM     28  O   UNL     1       6.838   5.357  15.962  0.00  0.00    +0.000 OA
ATOM     29  N   UNL     1       6.279   4.365  14.018  0.00  0.00    +0.000 N 
ATOM     30  C   UNL     1       5.461   3.625  13.089  0.00  0.00    +0.000 C 
ATOM     31  C   UNL     1       6.469   3.133  12.068  0.00  0.00    +0.000 C 
ATOM     32  C   UNL     1       7.450   4.297  11.953  0.00  0.00    +0.000 C 
ATOM     33  C   UNL     1       7.377   5.002  13.308  0.00  0.00    +0.000 C 
ATOM     34  H   UNL     1       4.288   3.641  15.216  0.00  0.00    +0.000 HD
ENDBRANCH  21  26
ENDBRANCH   6  19
TORSDOF 3
ENDMDL
MODEL 2
REMARK VINA RESULT:      -9.1      4.086     11.737
REMARK  Name = 
REMARK  4 active torsions:
REMARK  status: ('A' for Active; 'I' for Inactive)
REMARK    1  A    between atoms: C_1  and  C_2
REMARK    2  A    between atoms: C_4  and  C_5
REMARK    3  A    between atoms: C_10  and  C_11
REMARK    4  A    between atoms: C_13  and  N_14
REMARK                            x       y       z     vdW  Elec       q    Type
REMARK                         _______ _______ _______ _____ _____    ______ ____
ROOT
ATOM      1  C   UNL     1       2.753   7.021  18.582  0.00  0.00    +0.000 A 
ATOM      2  C   UNL     1       2.305   6.757  19.890  0.00  0.00    +0.000 A 
ATOM      3  N   UNL     1       1.587   7.582  20.696  0.00  0.00    +0.000 NA
ATOM      4  C   UNL     1       1.321   8.761  20.102  0.00  0.00    +0.000 A 
ATOM      5  N   UNL     1       0.591   9.787  20.605  0.00  0.00    +0.000 N 
ATOM      6  C   UNL     1       0.514  10.788  19.653  0.00  0.00    +0.000 A 
ATOM      7  N   UNL     1       1.223  10.450  18.590  0.00  0.00    +0.000 NA
ATOM      8  C   UNL     1       1.702   9.183  18.837  0.00  0.00    +0.000 A 
ATOM      9  C   UNL     1       2.439   8.290  18.053  0.00  0.00    +0.000 A 
ATOM     10  H   UNL     1       0.107   9.772  21.499  0.00  0.00    +0.000 HD
ENDROOT
BRANCH   1  14
ATOM     11  C   UNL     1       3.678   2.196  17.446  0.00  0.00    +0.000 C 
ATOM     12  C   UNL     1       3.952   3.658  17.257  0.00  0.00    +0.000 A 
ATOM     13  C   UNL     1       3.244   4.629  17.975  0.00  0.00    +0.000 A 
ATOM     14  C   UNL     1       3.496   6.010  17.801  0.00  0.00    +0.000 A 
ATOM     15  C   UNL     1       4.479   6.380  16.865  0.00  0.00    +0.000 A 
ATOM     16  C   UNL     1       5.190   5.418  16.143  0.00  0.00    +0.000 A 
ATOM     17  C   UNL     1       4.922   4.069  16.347  0.00  0.00    +0.000 A 
ATOM     18  F   UNL     1       5.614   3.159  15.649  0.00  0.00    +0.000 F 
ENDBRANCH   1  14
BRANCH   6  19
ATOM     19  C   UNL     1      -0.312  11.991  19.822  0.00  0.00    +0.000 A 
ATOM     20  C   UNL     1      -1.511  11.979  20.570  0.00  0.00    +0.000 A 
ATOM     21  C   UNL     1      -2.266  13.144  20.776  0.00  0.00    +0.000 A 
ATOM     22  C   UNL     1      -1.814  14.345  20.208  0.00  0.00    +0.000 A 
ATOM     23  C   UNL     1      -0.624  14.367  19.459  0.00  0.00    +0.000 A 
ATOM     24  C   UNL     1       0.100  13.208  19.275  0.00  0.00    +0.000 A 
ATOM     25  F   UNL     1       1.226  13.268  18.544  0.00  0.00    +0.000 F 
BRANCH  21  26
ATOM     26  N   UNL     1      -3.462  13.136  21.549  0.00  0.00    +0.000 N 
ATOM     27  C   UNL     1      -4.725  12.803  21.075  0.00  0.00    +0.000 C 
ATOM     28  O   UNL     1      -4.999  12.501  19.926  0.00  0.00    +0.000 OA
ATOM     29  N   UNL     1      -5.717  12.829  22.036  0.00  0.00    +0.000 N 
ATOM     30  C   UNL     1      -5.623  13.153  23.439  0.00  0.00    +0.000 C 
ATOM     31  C   UNL     1      -6.870  12.514  24.019  0.00  0.00    +0.000 C 
ATOM     32  C   UNL     1      -7.916  12.731  22.928  0.00  0.00    +0.000 C 
ATOM     33  C   UNL     1      -7.113  12.808  21.629  0.00  0.00    +0.000 C 
ATOM     34  H   UNL     1      -3.365  13.193  22.544  0.00  0.00    +0.000 HD
ENDBRANCH  21  26
ENDBRANCH   6  19
TORSDOF 3
ENDMDL
MODEL 3
REMARK VINA RESULT:      -9.1      4.129     11.800
REMARK  Name = 
REMARK  4 active torsions:
REMARK  status: ('A' for Active; 'I' for Inactive)
REMARK    1  A    between atoms: C_1  and  C_2
REMARK    2  A    between atoms: C_4  and  C_5
REMARK    3  A    between atoms: C_10  and  C_11
REMARK    4  A    between atoms: C_13  and  N_14
REMARK                            x       y       z     vdW  Elec       q    Type
REMARK                         _______ _______ _______ _____ _____    ______ ____
ROOT
ATOM      1  C   UNL     1       2.690   7.065  18.678  0.00  0.00    +0.000 A 
ATOM      2  C   UNL     1       2.246   6.810  19.988  0.00  0.00    +0.000 A 
ATOM      3  N   UNL     1       1.525   7.638  20.789  0.00  0.00    +0.000 NA
ATOM      4  C   UNL     1       1.253   8.811  20.186  0.00  0.00    +0.000 A 
ATOM      5  N   UNL     1       0.519   9.837  20.682  0.00  0.00    +0.000 N 
ATOM      6  C   UNL     1       0.436  10.830  19.722  0.00  0.00    +0.000 A 
ATOM      7  N   UNL     1       1.144  10.486  18.661  0.00  0.00    +0.000 NA
ATOM      8  C   UNL     1       1.630   9.224  18.917  0.00  0.00    +0.000 A 
ATOM      9  C   UNL     1       2.370   8.328  18.139  0.00  0.00    +0.000 A 
ATOM     10  H   UNL     1       0.037   9.828  21.577  0.00  0.00    +0.000 HD
ENDROOT
BRANCH   1  14
ATOM     11  C   UNL     1       3.673   2.235  17.617  0.00  0.00    +0.000 C 
ATOM     12  C   UNL     1       3.921   3.697  17.396  0.00  0.00    +0.000 A 
ATOM     13  C   UNL     1       3.210   4.670  18.107  0.00  0.00    +0.000 A 
ATOM     14  C   UNL     1       3.436   6.051  17.904  0.00  0.00    +0.000 A 
ATOM     15  C   UNL     1       4.399   6.419  16.946  0.00  0.00    +0.000 A 
ATOM     16  C   UNL     1       5.114   5.455  16.230  0.00  0.00    +0.000 A 
ATOM     17  C   UNL     1       4.870   4.106  16.463  0.00  0.00    +0.000 A 
ATOM     18  F   UNL     1       5.565   3.194  15.771  0.00  0.00    +0.000 F 
ENDBRANCH   1  14
BRANCH   6  19
ATOM     19  C   UNL     1      -0.396  12.031  19.882  0.00  0.00    +0.000 A 
ATOM     20  C   UNL     1      -1.721  11.966  20.370  0.00  0.00    +0.000 A 
ATOM     21  C   UNL     1      -2.490  13.122  20.576  0.00  0.00    +0.000 A 
ATOM     22  C   UNL     1      -1.922  14.369  20.273  0.00  0.00    +0.000 A 
ATOM     23  C   UNL     1      -0.606  14.444  19.784  0.00  0.00    +0.000 A 
ATOM     24  C   UNL     1       0.130  13.292  19.594  0.00  0.00    +0.000 A 
ATOM     25  F   UNL     1       1.380  13.405  19.115  0.00  0.00    +0.000 F 
BRANCH  21  26
ATOM     26  N   UNL     1      -3.817  13.058  21.090  0.00  0.00    +0.000 N 
ATOM     27  C   UNL     1      -4.161  13.085  22.436  0.00  0.00    +0.000 C 
ATOM     28  O   UNL     1      -3.381  13.137  23.371  0.00  0.00    +0.000 OA
ATOM     29  N   UNL     1      -5.522  13.056  22.675  0.00  0.00    +0.000 N 
ATOM     30  C   UNL     1      -6.614  12.997  21.734  0.00  0.00    +0.000 C 
ATOM     31  C   UNL     1      -7.789  13.504  22.548  0.00  0.00    +0.000 C 
ATOM     32  C   UNL     1      -7.529  12.929  23.938  0.00  0.00    +0.000 C 
ATOM     33  C   UNL     1      -6.011  12.770  24.014  0.00  0.00    +0.000 C 
ATOM     34  H   UNL     1      -4.567  13.188  20.440  0.00  0.00    +0.000 HD
ENDBRANCH  21  26
ENDBRANCH   6  19
TORSDOF 3
ENDMDL
MODEL 4
REMARK VINA RESULT:      -9.1      4.047     11.826
REMARK  Name = 
REMARK  4 active torsions:
REMARK  status: ('A' for Active; 'I' for Inactive)
REMARK    1  A    between atoms: C_1  and  C_2
REMARK    2  A    between atoms: C_4  and  C_5
REMARK    3  A    between atoms: C_10  and  C_11
REMARK    4  A    between atoms: C_13  and  N_14
REMARK                            x       y       z     vdW  Elec       q    Type
REMARK                         _______ _______ _______ _____ _____    ______ ____
ROOT
ATOM      1  C   UNL     1       2.255   7.511  18.881  0.00  0.00    +0.000 A 
ATOM      2  C   UNL     1       2.315   8.367  17.766  0.00  0.00    +0.000 A 
ATOM      3  N   UNL     1       1.837   9.635  17.675  0.00  0.00    +0.000 NA
ATOM      4  C   UNL     1       1.254  10.037  18.820  0.00  0.00    +0.000 A 
ATOM      5  N   UNL     1       0.719  11.255  19.085  0.00  0.00    +0.000 N 
ATOM      6  C   UNL     1       0.277  11.271  20.396  0.00  0.00    +0.000 A 
ATOM      7  N   UNL     1       0.461  10.083  20.945  0.00  0.00    +0.000 NA
ATOM      8  C   UNL     1       1.097   9.317  19.994  0.00  0.00    +0.000 A 
ATOM      9  C   UNL     1       1.610   8.016  20.029  0.00  0.00    +0.000 A 
ATOM     10  H   UNL     1       0.731  12.046  18.447  0.00  0.00    +0.000 HD
ENDROOT
BRANCH   1  14
ATOM     11  C   UNL     1       4.937   3.976  16.487  0.00  0.00    +0.000 C 
ATOM     12  C   UNL     1       4.153   4.436  17.679  0.00  0.00    +0.000 A 
ATOM     13  C   UNL     1       3.594   5.718  17.731  0.00  0.00    +0.000 A 
ATOM     14  C   UNL     1       2.855   6.161  18.852  0.00  0.00    +0.000 A 
ATOM     15  C   UNL     1       2.709   5.268  19.930  0.00  0.00    +0.000 A 
ATOM     16  C   UNL     1       3.265   3.986  19.888  0.00  0.00    +0.000 A 
ATOM     17  C   UNL     1       3.977   3.582  18.765  0.00  0.00    +0.000 A 
ATOM     18  F   UNL     1       4.501   2.350  18.739  0.00  0.00    +0.000 F 
ENDBRANCH   1  14
BRANCH   6  19
ATOM     19  C   UNL     1      -0.241  12.480  21.051  0.00  0.00    +0.000 A 
ATOM     20  C   UNL     1      -1.611  12.638  21.361  0.00  0.00    +0.000 A 
ATOM     21  C   UNL     1      -2.091  13.769  22.038  0.00  0.00    +0.000 A 
ATOM     22  C   UNL     1      -1.177  14.771  22.401  0.00  0.00    +0.000 A 
ATOM     23  C   UNL     1       0.187  14.625  22.096  0.00  0.00    +0.000 A 
ATOM     24  C   UNL     1       0.633  13.501  21.431  0.00  0.00    +0.000 A 
ATOM     25  F   UNL     1       1.942  13.404  21.148  0.00  0.00    +0.000 F 
BRANCH  21  26
ATOM     26  N   UNL     1      -3.468  13.917  22.370  0.00  0.00    +0.000 N 
ATOM     27  C   UNL     1      -4.175  13.106  23.250  0.00  0.00    +0.000 C 
ATOM     28  O   UNL     1      -3.732  12.136  23.839  0.00  0.00    +0.000 OA
ATOM     29  N   UNL     1      -5.490  13.485  23.439  0.00  0.00    +0.000 N 
ATOM     30  C   UNL     1      -6.218  14.585  22.853  0.00  0.00    +0.000 C 
ATOM     31  C   UNL     1      -7.379  14.770  23.811  0.00  0.00    +0.000 C 
ATOM     32  C   UNL     1      -7.728  13.342  24.222  0.00  0.00    +0.000 C 
ATOM     33  C   UNL     1      -6.419  12.566  24.076  0.00  0.00    +0.000 C 
ATOM     34  H   UNL     1      -3.916  14.770  22.099  0.00  0.00    +0.000 HD
ENDBRANCH  21  26
ENDBRANCH   6  19
TORSDOF 3
ENDMDL
MODEL 5
REMARK VINA RESULT:      -9.1      4.111     11.772
REMARK  Name = 
REMARK  4 active torsions:
REMARK  status: ('A' for Active; 'I' for Inactive)
REMARK    1  A    between atoms: C_1  and  C_2
REMARK    2  A    between atoms: C_4  and  C_5
REMARK    3  A    between atoms: C_10  and  C_11
REMARK    4  A    between atoms: C_13  and  N_14
REMARK                            x       y       z     vdW  Elec       q    Type
REMARK                         _______ _______ _______ _____ _____    ______ ____
ROOT
ATOM      1  C   UNL     1       2.681   6.980  18.728  0.00  0.00    +0.000 A 
ATOM      2  C   UNL     1       2.217   6.716  20.030  0.00  0.00    +0.000 A 
ATOM      3  N   UNL     1       1.486   7.540  20.826  0.00  0.00    +0.000 NA
ATOM      4  C   UNL     1       1.226   8.718  20.228  0.00  0.00    +0.000 A 
ATOM      5  N   UNL     1       0.486   9.743  20.720  0.00  0.00    +0.000 N 
ATOM      6  C   UNL     1       0.420  10.743  19.766  0.00  0.00    +0.000 A 
ATOM      7  N   UNL     1       1.144  10.406  18.713  0.00  0.00    +0.000 NA
ATOM      8  C   UNL     1       1.623   9.140  18.968  0.00  0.00    +0.000 A 
ATOM      9  C   UNL     1       2.372   8.248  18.194  0.00  0.00    +0.000 A 
ATOM     10  H   UNL     1      -0.009   9.728  21.608  0.00  0.00    +0.000 HD
ENDROOT
BRANCH   1  14
ATOM     11  C   UNL     1       6.760   5.677  16.065  0.00  0.00    +0.000 C 
ATOM     12  C   UNL     1       5.421   5.342  16.651  0.00  0.00    +0.000 A 
ATOM     13  C   UNL     1       4.700   6.280  17.400  0.00  0.00    +0.000 A 
ATOM     14  C   UNL     1       3.437   5.971  17.958  0.00  0.00    +0.000 A 
ATOM     15  C   UNL     1       2.931   4.676  17.746  0.00  0.00    +0.000 A 
ATOM     16  C   UNL     1       3.644   3.732  17.001  0.00  0.00    +0.000 A 
ATOM     17  C   UNL     1       4.878   4.074  16.460  0.00  0.00    +0.000 A 
ATOM     18  F   UNL     1       5.547   3.160  15.746  0.00  0.00    +0.000 F 
ENDBRANCH   1  14
BRANCH   6  19
ATOM     19  C   UNL     1      -0.411  11.944  19.923  0.00  0.00    +0.000 A 
ATOM     20  C   UNL     1      -1.749  11.878  20.377  0.00  0.00    +0.000 A 
ATOM     21  C   UNL     1      -2.519  13.033  20.580  0.00  0.00    +0.000 A 
ATOM     22  C   UNL     1      -1.938  14.282  20.309  0.00  0.00    +0.000 A 
ATOM     23  C   UNL     1      -0.610  14.359  19.855  0.00  0.00    +0.000 A 
ATOM     24  C   UNL     1       0.126  13.207  19.667  0.00  0.00    +0.000 A 
ATOM     25  F   UNL     1       1.388  13.323  19.221  0.00  0.00    +0.000 F 
BRANCH  21  26
ATOM     26  N   UNL     1      -3.858  12.967  21.059  0.00  0.00    +0.000 N 
ATOM     27  C   UNL     1      -4.242  13.068  22.392  0.00  0.00    +0.000 C 
ATOM     28  O   UNL     1      -3.491  13.196  23.343  0.00  0.00    +0.000 OA
ATOM     29  N   UNL     1      -5.608  13.019  22.593  0.00  0.00    +0.000 N 
ATOM     30  C   UNL     1      -6.671  12.873  21.628  0.00  0.00    +0.000 C 
ATOM     31  C   UNL     1      -7.881  13.399  22.375  0.00  0.00    +0.000 C 
ATOM     32  C   UNL     1      -7.648  12.918  23.806  0.00  0.00    +0.000 C 
ATOM     33  C   UNL     1      -6.130  12.802  23.934  0.00  0.00    +0.000 C 
ATOM     34  H   UNL     1      -4.592  13.038  20.382  0.00  0.00    +0.000 HD
ENDBRANCH  21  26
ENDBRANCH   6  19
TORSDOF 3
ENDMDL
MODEL 6
REMARK VINA RESULT:      -9.0      1.260      1.619
REMARK  Name = 
REMARK  4 active torsions:
REMARK  status: ('A' for Active; 'I' for Inactive)
REMARK    1  A    between atoms: C_1  and  C_2
REMARK    2  A    between atoms: C_4  and  C_5
REMARK    3  A    between atoms: C_10  and  C_11
REMARK    4  A    between atoms: C_13  and  N_14
REMARK                            x       y       z     vdW  Elec       q    Type
REMARK                         _______ _______ _______ _____ _____    ______ ____
ROOT
ATOM      1  C   UNL     1      -0.377  11.361  21.458  0.00  0.00    +0.000 A 
ATOM      2  C   UNL     1      -0.221  11.644  20.089  0.00  0.00    +0.000 A 
ATOM      3  N   UNL     1       0.397  10.875  19.154  0.00  0.00    +0.000 NA
ATOM      4  C   UNL     1       0.889   9.738  19.682  0.00  0.00    +0.000 A 
ATOM      5  N   UNL     1       1.518   8.733  19.025  0.00  0.00    +0.000 N 
ATOM      6  C   UNL     1       1.811   7.725  19.927  0.00  0.00    +0.000 A 
ATOM      7  N   UNL     1       1.441   8.090  21.141  0.00  0.00    +0.000 NA
ATOM      8  C   UNL     1       0.837   9.320  21.004  0.00  0.00    +0.000 A 
ATOM      9  C   UNL     1       0.187  10.153  21.920  0.00  0.00    +0.000 A 
ATOM     10  H   UNL     1       1.661   8.696  18.019  0.00  0.00    +0.000 HD
ENDROOT
BRANCH   1  14
ATOM     11  C   UNL     1      -4.298  12.286  24.489  0.00  0.00    +0.000 C 
ATOM     12  C   UNL     1      -3.028  12.727  23.826  0.00  0.00    +0.000 A 
ATOM     13  C   UNL     1      -2.310  11.868  22.986  0.00  0.00    +0.000 A 
ATOM     14  C   UNL     1      -1.110  12.275  22.358  0.00  0.00    +0.000 A 
ATOM     15  C   UNL     1      -0.649  13.578  22.618  0.00  0.00    +0.000 A 
ATOM     16  C   UNL     1      -1.358  14.444  23.456  0.00  0.00    +0.000 A 
ATOM     17  C   UNL     1      -2.539  14.011  24.049  0.00  0.00    +0.000 A 
ATOM     18  F   UNL     1      -3.208  14.853  24.848  0.00  0.00    +0.000 F 
ENDBRANCH   1  14
BRANCH   6  19
ATOM     19  C   UNL     1       2.379   6.431  19.524  0.00  0.00    +0.000 A 
ATOM     20  C   UNL     1       2.985   6.237  18.262  0.00  0.00    +0.000 A 
ATOM     21  C   UNL     1       3.576   5.016  17.905  0.00  0.00    +0.000 A 
ATOM     22  C   UNL     1       3.548   3.961  18.831  0.00  0.00    +0.000 A 
ATOM     23  C   UNL     1       2.945   4.143  20.088  0.00  0.00    +0.000 A 
ATOM     24  C   UNL     1       2.373   5.355  20.414  0.00  0.00    +0.000 A 
ATOM     25  F   UNL     1       1.798   5.485  21.621  0.00  0.00    +0.000 F 
BRANCH  21  26
ATOM     26  N   UNL     1       4.207   4.829  16.642  0.00  0.00    +0.000 N 
ATOM     27  C   UNL     1       5.566   4.983  16.390  0.00  0.00    +0.000 C 
ATOM     28  O   UNL     1       6.407   5.330  17.201  0.00  0.00    +0.000 OA
ATOM     29  N   UNL     1       5.937   4.699  15.090  0.00  0.00    +0.000 N 
ATOM     30  C   UNL     1       5.121   4.276  13.977  0.00  0.00    +0.000 C 
ATOM     31  C   UNL     1       6.132   3.651  13.035  0.00  0.00    +0.000 C 
ATOM     32  C   UNL     1       7.361   4.542  13.196  0.00  0.00    +0.000 C 
ATOM     33  C   UNL     1       7.247   5.110  14.610  0.00  0.00    +0.000 C 
ATOM     34  H   UNL     1       3.674   4.376  15.926  0.00  0.00    +0.000 HD
ENDBRANCH  21  26
ENDBRANCH   6  19
TORSDOF 3
ENDMDL
MODEL 7
REMARK VINA RESULT:      -8.9      1.673      2.209
REMARK  Name = 
REMARK  4 active torsions:
REMARK  status: ('A' for Active; 'I' for Inactive)
REMARK    1  A    between atoms: C_1  and  C_2
REMARK    2  A    between atoms: C_4  and  C_5
REMARK    3  A    between atoms: C_10  and  C_11
REMARK    4  A    between atoms: C_13  and  N_14
REMARK                            x       y       z     vdW  Elec       q    Type
REMARK                         _______ _______ _______ _____ _____    ______ ____
ROOT
ATOM      1  C   UNL     1       0.529  10.878  20.485  0.00  0.00    +0.000 A 
ATOM      2  C   UNL     1       0.483  10.179  21.705  0.00  0.00    +0.000 A 
ATOM      3  N   UNL     1       0.877   8.899  21.937  0.00  0.00    +0.000 NA
ATOM      4  C   UNL     1       1.346   8.308  20.822  0.00  0.00    +0.000 A 
ATOM      5  N   UNL     1       1.861   7.058  20.712  0.00  0.00    +0.000 N 
ATOM      6  C   UNL     1       2.279   6.862  19.407  0.00  0.00    +0.000 A 
ATOM      7  N   UNL     1       1.990   7.927  18.680  0.00  0.00    +0.000 NA
ATOM      8  C   UNL     1       1.442   8.845  19.548  0.00  0.00    +0.000 A 
ATOM      9  C   UNL     1       1.022  10.168  19.371  0.00  0.00    +0.000 A 
ATOM     10  H   UNL     1       1.996   6.414  21.487  0.00  0.00    +0.000 HD
ENDROOT
BRANCH   1  14
ATOM     11  C   UNL     1       1.372  15.593  18.912  0.00  0.00    +0.000 C 
ATOM     12  C   UNL     1       0.519  14.588  19.627  0.00  0.00    +0.000 A 
ATOM     13  C   UNL     1       0.900  13.244  19.715  0.00  0.00    +0.000 A 
ATOM     14  C   UNL     1       0.102  12.289  20.385  0.00  0.00    +0.000 A 
ATOM     15  C   UNL     1      -1.105  12.734  20.955  0.00  0.00    +0.000 A 
ATOM     16  C   UNL     1      -1.495  14.074  20.872  0.00  0.00    +0.000 A 
ATOM     17  C   UNL     1      -0.679  14.986  20.212  0.00  0.00    +0.000 A 
ATOM     18  F   UNL     1      -1.065  16.267  20.143  0.00  0.00    +0.000 F 
ENDBRANCH   1  14
BRANCH   6  19
ATOM     19  C   UNL     1       3.003   5.661  18.971  0.00  0.00    +0.000 A 
ATOM     20  C   UNL     1       3.482   5.511  17.649  0.00  0.00    +0.000 A 
ATOM     21  C   UNL     1       4.223   4.388  17.254  0.00  0.00    +0.000 A 
ATOM     22  C   UNL     1       4.478   3.385  18.202  0.00  0.00    +0.000 A 
ATOM     23  C   UNL     1       4.004   3.522  19.518  0.00  0.00    +0.000 A 
ATOM     24  C   UNL     1       3.280   4.639  19.881  0.00  0.00    +0.000 A 
ATOM     25  F   UNL     1       2.836   4.728  21.146  0.00  0.00    +0.000 F 
BRANCH  21  26
ATOM     26  N   UNL     1       4.725   4.249  15.928  0.00  0.00    +0.000 N 
ATOM     27  C   UNL     1       5.971   4.683  15.489  0.00  0.00    +0.000 C 
ATOM     28  O   UNL     1       6.799   5.271  16.163  0.00  0.00    +0.000 OA
ATOM     29  N   UNL     1       6.241   4.389  14.167  0.00  0.00    +0.000 N 
ATOM     30  C   UNL     1       5.418   3.710  13.195  0.00  0.00    +0.000 C 
ATOM     31  C   UNL     1       6.427   3.255  12.157  0.00  0.00    +0.000 C 
ATOM     32  C   UNL     1       7.427   4.408  12.109  0.00  0.00    +0.000 C 
ATOM     33  C   UNL     1       7.354   5.044  13.497  0.00  0.00    +0.000 C 
ATOM     34  H   UNL     1       4.230   3.635  15.312  0.00  0.00    +0.000 HD
ENDBRANCH  21  26
ENDBRANCH   6  19
TORSDOF 3
ENDMDL
MODEL 8
REMARK VINA RESULT:      -8.9      1.585      2.169
REMARK  Name = 
REMARK  4 active torsions:
REMARK  status: ('A' for Active; 'I' for Inactive)
REMARK    1  A    between atoms: C_1  and  C_2
REMARK    2  A    between atoms: C_4  and  C_5
REMARK    3  A    between atoms: C_10  and  C_11
REMARK    4  A    between atoms: C_13  and  N_14
REMARK                            x       y       z     vdW  Elec       q    Type
REMARK                         _______ _______ _______ _____ _____    ______ ____
ROOT
ATOM      1  C   UNL     1       0.622  10.884  20.642  0.00  0.00    +0.000 A 
ATOM      2  C   UNL     1       0.611  10.186  21.863  0.00  0.00    +0.000 A 
ATOM      3  N   UNL     1       0.994   8.900  22.080  0.00  0.00    +0.000 NA
ATOM      4  C   UNL     1       1.413   8.302  20.948  0.00  0.00    +0.000 A 
ATOM      5  N   UNL     1       1.904   7.045  20.819  0.00  0.00    +0.000 N 
ATOM      6  C   UNL     1       2.270   6.843  19.500  0.00  0.00    +0.000 A 
ATOM      7  N   UNL     1       1.969   7.912  18.784  0.00  0.00    +0.000 NA
ATOM      8  C   UNL     1       1.468   8.838  19.671  0.00  0.00    +0.000 A 
ATOM      9  C   UNL     1       1.061  10.167  19.510  0.00  0.00    +0.000 A 
ATOM     10  H   UNL     1       2.059   6.399  21.589  0.00  0.00    +0.000 HD
ENDROOT
BRANCH   1  14
ATOM     11  C   UNL     1      -0.934  15.119  22.894  0.00  0.00    +0.000 C 
ATOM     12  C   UNL     1      -0.557  14.361  21.656  0.00  0.00    +0.000 A 
ATOM     13  C   UNL     1      -0.148  13.023  21.720  0.00  0.00    +0.000 A 
ATOM     14  C   UNL     1       0.211  12.301  20.558  0.00  0.00    +0.000 A 
ATOM     15  C   UNL     1       0.157  12.980  19.326  0.00  0.00    +0.000 A 
ATOM     16  C   UNL     1      -0.249  14.315  19.253  0.00  0.00    +0.000 A 
ATOM     17  C   UNL     1      -0.604  14.990  20.415  0.00  0.00    +0.000 A 
ATOM     18  F   UNL     1      -0.993  16.269  20.328  0.00  0.00    +0.000 F 
ENDBRANCH   1  14
BRANCH   6  19
ATOM     19  C   UNL     1       2.959   5.631  19.036  0.00  0.00    +0.000 A 
ATOM     20  C   UNL     1       3.444   5.502  17.715  0.00  0.00    +0.000 A 
ATOM     21  C   UNL     1       4.152   4.366  17.295  0.00  0.00    +0.000 A 
ATOM     22  C   UNL     1       4.367   3.330  18.218  0.00  0.00    +0.000 A 
ATOM     23  C   UNL     1       3.887   3.448  19.534  0.00  0.00    +0.000 A 
ATOM     24  C   UNL     1       3.196   4.577  19.921  0.00  0.00    +0.000 A 
ATOM     25  F   UNL     1       2.744   4.646  21.185  0.00  0.00    +0.000 F 
BRANCH  21  26
ATOM     26  N   UNL     1       4.660   4.246  15.970  0.00  0.00    +0.000 N 
ATOM     27  C   UNL     1       5.933   4.625  15.558  0.00  0.00    +0.000 C 
ATOM     28  O   UNL     1       6.785   5.141  16.260  0.00  0.00    +0.000 OA
ATOM     29  N   UNL     1       6.200   4.364  14.228  0.00  0.00    +0.000 N 
ATOM     30  C   UNL     1       5.352   3.767  13.225  0.00  0.00    +0.000 C 
ATOM     31  C   UNL     1       6.345   3.294  12.181  0.00  0.00    +0.000 C 
ATOM     32  C   UNL     1       7.408   4.390  12.183  0.00  0.00    +0.000 C 
ATOM     33  C   UNL     1       7.355   4.979  13.593  0.00  0.00    +0.000 C 
ATOM     34  H   UNL     1       4.138   3.683  15.327  0.00  0.00    +0.000 HD
ENDBRANCH  21  26
ENDBRANCH   6  19
TORSDOF 3
ENDMDL
MODEL 9
REMARK VINA RESULT:      -8.8      4.279     11.555
REMARK  Name = 
REMARK  4 active torsions:
REMARK  status: ('A' for Active; 'I' for Inactive)
REMARK    1  A    between atoms: C_1  and  C_2
REMARK    2  A    between atoms: C_4  and  C_5
REMARK    3  A    between atoms: C_10  and  C_11
REMARK    4  A    between atoms: C_13  and  N_14
REMARK                            x       y       z     vdW  Elec       q    Type
REMARK                         _______ _______ _______ _____ _____    ______ ____
ROOT
ATOM      1  C   UNL     1       2.557   6.996  18.995  0.00  0.00    +0.000 A 
ATOM      2  C   UNL     1       2.806   7.694  17.800  0.00  0.00    +0.000 A 
ATOM      3  N   UNL     1       2.338   8.921  17.450  0.00  0.00    +0.000 NA
ATOM      4  C   UNL     1       1.555   9.453  18.407  0.00  0.00    +0.000 A 
ATOM      5  N   UNL     1       0.967  10.675  18.401  0.00  0.00    +0.000 N 
ATOM      6  C   UNL     1       0.296  10.853  19.598  0.00  0.00    +0.000 A 
ATOM      7  N   UNL     1       0.393   9.758  20.332  0.00  0.00    +0.000 NA
ATOM      8  C   UNL     1       1.197   8.893  19.624  0.00  0.00    +0.000 A 
ATOM      9  C   UNL     1       1.711   7.629  19.930  0.00  0.00    +0.000 A 
ATOM     10  H   UNL     1       1.084  11.373  17.671  0.00  0.00    +0.000 HD
ENDROOT
BRANCH   1  14
ATOM     11  C   UNL     1       2.413   2.501  21.275  0.00  0.00    +0.000 C 
ATOM     12  C   UNL     1       3.100   3.491  20.383  0.00  0.00    +0.000 A 
ATOM     13  C   UNL     1       2.527   4.738  20.104  0.00  0.00    +0.000 A 
ATOM     14  C   UNL     1       3.167   5.677  19.262  0.00  0.00    +0.000 A 
ATOM     15  C   UNL     1       4.403   5.310  18.698  0.00  0.00    +0.000 A 
ATOM     16  C   UNL     1       4.982   4.067  18.969  0.00  0.00    +0.000 A 
ATOM     17  C   UNL     1       4.328   3.173  19.809  0.00  0.00    +0.000 A 
ATOM     18  F   UNL     1       4.898   1.987  20.061  0.00  0.00    +0.000 F 
ENDBRANCH   1  14
BRANCH   6  19
ATOM     19  C   UNL     1      -0.344  12.120  19.976  0.00  0.00    +0.000 A 
ATOM     20  C   UNL     1      -1.579  12.162  20.661  0.00  0.00    +0.000 A 
ATOM     21  C   UNL     1      -2.158  13.373  21.071  0.00  0.00    +0.000 A 
ATOM     22  C   UNL     1      -1.488  14.570  20.774  0.00  0.00    +0.000 A 
ATOM     23  C   UNL     1      -0.260  14.540  20.090  0.00  0.00    +0.000 A 
ATOM     24  C   UNL     1       0.288  13.335  19.701  0.00  0.00    +0.000 A 
ATOM     25  F   UNL     1       1.457  13.349  19.040  0.00  0.00    +0.000 F 
BRANCH  21  26
ATOM     26  N   UNL     1      -3.391  13.413  21.782  0.00  0.00    +0.000 N 
ATOM     27  C   UNL     1      -4.635  13.083  21.256  0.00  0.00    +0.000 C 
ATOM     28  O   UNL     1      -4.856  12.742  20.107  0.00  0.00    +0.000 OA
ATOM     29  N   UNL     1      -5.673  13.159  22.165  0.00  0.00    +0.000 N 
ATOM     30  C   UNL     1      -5.644  13.534  23.558  0.00  0.00    +0.000 C 
ATOM     31  C   UNL     1      -6.930  12.937  24.096  0.00  0.00    +0.000 C 
ATOM     32  C   UNL     1      -7.915  13.130  22.946  0.00  0.00    +0.000 C 
ATOM     33  C   UNL     1      -7.047  13.146  21.688  0.00  0.00    +0.000 C 
ATOM     34  H   UNL     1      -3.343  13.506  22.778  0.00  0.00    +0.000 HD
ENDBRANCH  21  26
ENDBRANCH   6  19
TORSDOF 3
ENDMDL
