MODEL 1
REMARK VINA RESULT:      -8.8      0.000      0.000
REMARK  Name = 
REMARK  6 active torsions:
REMARK  status: ('A' for Active; 'I' for Inactive)
REMARK    1  A    between atoms: C_1  and  C_2
REMARK    2  A    between atoms: C_2  and  N_3
REMARK    3  A    between atoms: C_2  and  C_24
REMARK    4  A    between atoms: C_4  and  C_6
REMARK    5  A    between atoms: N_14  and  S_15
REMARK    6  A    between atoms: S_15  and  C_18
REMARK                            x       y       z     vdW  Elec       q    Type
REMARK                         _______ _______ _______ _____ _____    ______ ____
ROOT
ATOM      1  C   UNL     1       2.232   8.565  18.475  0.00  0.00    +0.000 A 
ATOM      2  C   UNL     1       3.346   8.149  17.717  0.00  0.00    +0.000 A 
ATOM      3  C   UNL     1       3.918   6.874  17.910  0.00  0.00    +0.000 A 
ATOM      4  C   UNL     1       3.387   6.047  18.884  0.00  0.00    +0.000 A 
ATOM      5  C   UNL     1       2.265   6.451  19.612  0.00  0.00    +0.000 A 
ATOM      6  C   UNL     1       1.675   7.694  19.418  0.00  0.00    +0.000 A 
ATOM      7  C   UNL     1       1.784   5.348  20.501  0.00  0.00    +0.000 C 
ATOM      8  C   UNL     1       2.986   4.391  20.487  0.00  0.00    +0.000 C 
ATOM      9  N   UNL     1       3.701   4.677  19.200  0.00  0.00    +0.000 N 
ENDROOT
BRANCH   1  11
ATOM     10  N   UNL     1       0.358  10.080  18.879  0.00  0.00    +0.000 N 
ATOM     11  C   UNL     1       1.575   9.890  18.260  0.00  0.00    +0.000 C 
ATOM     12  O   UNL     1       2.107  10.724  17.537  0.00  0.00    +0.000 OA
ATOM     13  H   UNL     1      -0.083   9.309  19.362  0.00  0.00    +0.000 HD
BRANCH  10  15
ATOM     14  C   UNL     1      -0.631  11.981  20.097  0.00  0.00    +0.000 C 
ATOM     15  C   UNL     1      -0.406  11.313  18.736  0.00  0.00    +0.000 C 
BRANCH  15  16
ATOM     16  C   UNL     1      -1.726  11.045  18.033  0.00  0.00    +0.000 A 
ATOM     17  C   UNL     1      -2.878  11.760  18.402  0.00  0.00    +0.000 A 
ATOM     18  C   UNL     1      -4.103  11.511  17.779  0.00  0.00    +0.000 A 
ATOM     19  C   UNL     1      -4.194  10.551  16.773  0.00  0.00    +0.000 A 
ATOM     20  C   UNL     1      -3.060   9.840  16.390  0.00  0.00    +0.000 A 
ATOM     21  C   UNL     1      -1.835  10.083  17.014  0.00  0.00    +0.000 A 
ENDBRANCH  15  16
ENDBRANCH  10  15
ENDBRANCH   1  11
BRANCH   9  22
ATOM     22  S   UNL     1       5.314   4.152  19.101  0.00  0.00    +0.000 S 
ATOM     23  O   UNL     1       6.170   5.101  19.783  0.00  0.00    +0.000 OA
ATOM     24  O   UNL     1       5.347   2.742  19.439  0.00  0.00    +0.000 OA
BRANCH  22  25
ATOM     25  C   UNL     1       5.682   4.299  17.357  0.00  0.00    +0.000 A 
ATOM     26  C   UNL     1       4.742   3.860  16.418  0.00  0.00    +0.000 A 
ATOM     27  C   UNL     1       5.011   4.006  15.054  0.00  0.00    +0.000 A 
ATOM     28  C   UNL     1       6.207   4.593  14.634  0.00  0.00    +0.000 A 
ATOM     29  C   UNL     1       7.144   5.025  15.575  0.00  0.00    +0.000 A 
ATOM     30  C   UNL     1       6.886   4.876  16.940  0.00  0.00    +0.000 A 
ENDBRANCH  22  25
ENDBRANCH   9  22
TORSDOF 5
ENDMDL
MODEL 2
REMARK VINA RESULT:      -8.6      2.104      3.330
REMARK  Name = 
REMARK  6 active torsions:
REMARK  status: ('A' for Active; 'I' for Inactive)
REMARK    1  A    between atoms: C_1  and  C_2
REMARK    2  A    between atoms: C_2  and  N_3
REMARK    3  A    between atoms: C_2  and  C_24
REMARK    4  A    between atoms: C_4  and  C_6
REMARK    5  A    between atoms: N_14  and  S_15
REMARK    6  A    between atoms: S_15  and  C_18
REMARK                            x       y       z     vdW  Elec       q    Type
REMARK                         _______ _______ _______ _____ _____    ______ ____
ROOT
ATOM      1  C   UNL     1       2.618   7.707  18.685  0.00  0.00    +0.000 A 
ATOM      2  C   UNL     1       3.363   8.066  17.543  0.00  0.00    +0.000 A 
ATOM      3  C   UNL     1       4.363   7.213  17.032  0.00  0.00    +0.000 A 
ATOM      4  C   UNL     1       4.627   6.026  17.695  0.00  0.00    +0.000 A 
ATOM      5  C   UNL     1       3.868   5.661  18.808  0.00  0.00    +0.000 A 
ATOM      6  C   UNL     1       2.863   6.479  19.311  0.00  0.00    +0.000 A 
ATOM      7  C   UNL     1       4.233   4.286  19.271  0.00  0.00    +0.000 C 
ATOM      8  C   UNL     1       5.559   4.051  18.531  0.00  0.00    +0.000 C 
ATOM      9  N   UNL     1       5.499   4.940  17.326  0.00  0.00    +0.000 N 
ENDROOT
BRANCH   1  11
ATOM     10  N   UNL     1       0.999   9.507  18.359  0.00  0.00    +0.000 N 
ATOM     11  C   UNL     1       1.520   8.568  19.222  0.00  0.00    +0.000 C 
ATOM     12  O   UNL     1       1.155   8.435  20.385  0.00  0.00    +0.000 OA
ATOM     13  H   UNL     1       1.426   9.647  17.454  0.00  0.00    +0.000 HD
BRANCH  10  15
ATOM     14  C   UNL     1      -1.290  10.275  17.858  0.00  0.00    +0.000 C 
ATOM     15  C   UNL     1      -0.058  10.430  18.757  0.00  0.00    +0.000 C 
BRANCH  15  16
ATOM     16  C   UNL     1       0.451  11.862  18.747  0.00  0.00    +0.000 A 
ATOM     17  C   UNL     1      -0.454  12.931  18.854  0.00  0.00    +0.000 A 
ATOM     18  C   UNL     1      -0.003  14.253  18.826  0.00  0.00    +0.000 A 
ATOM     19  C   UNL     1       1.357  14.526  18.699  0.00  0.00    +0.000 A 
ATOM     20  C   UNL     1       2.268  13.477  18.599  0.00  0.00    +0.000 A 
ATOM     21  C   UNL     1       1.820  12.154  18.623  0.00  0.00    +0.000 A 
ENDBRANCH  15  16
ENDBRANCH  10  15
ENDBRANCH   1  11
BRANCH   9  22
ATOM     22  S   UNL     1       6.981   5.287  16.571  0.00  0.00    +0.000 S 
ATOM     23  O   UNL     1       7.173   6.722  16.525  0.00  0.00    +0.000 OA
ATOM     24  O   UNL     1       7.990   4.418  17.146  0.00  0.00    +0.000 OA
BRANCH  22  25
ATOM     25  C   UNL     1       6.711   4.758  14.884  0.00  0.00    +0.000 A 
ATOM     26  C   UNL     1       7.620   5.141  13.890  0.00  0.00    +0.000 A 
ATOM     27  C   UNL     1       7.432   4.700  12.578  0.00  0.00    +0.000 A 
ATOM     28  C   UNL     1       6.348   3.877  12.263  0.00  0.00    +0.000 A 
ATOM     29  C   UNL     1       5.442   3.501  13.256  0.00  0.00    +0.000 A 
ATOM     30  C   UNL     1       5.618   3.944  14.570  0.00  0.00    +0.000 A 
ENDBRANCH  22  25
ENDBRANCH   9  22
TORSDOF 5
ENDMDL
MODEL 3
REMARK VINA RESULT:      -8.6      1.151      1.911
REMARK  Name = 
REMARK  6 active torsions:
REMARK  status: ('A' for Active; 'I' for Inactive)
REMARK    1  A    between atoms: C_1  and  C_2
REMARK    2  A    between atoms: C_2  and  N_3
REMARK    3  A    between atoms: C_2  and  C_24
REMARK    4  A    between atoms: C_4  and  C_6
REMARK    5  A    between atoms: N_14  and  S_15
REMARK    6  A    between atoms: S_15  and  C_18
REMARK                            x       y       z     vdW  Elec       q    Type
REMARK                         _______ _______ _______ _____ _____    ______ ____
ROOT
ATOM      1  C   UNL     1       2.121   7.927  18.564  0.00  0.00    +0.000 A 
ATOM      2  C   UNL     1       2.731   7.186  17.531  0.00  0.00    +0.000 A 
ATOM      3  C   UNL     1       3.100   5.839  17.726  0.00  0.00    +0.000 A 
ATOM      4  C   UNL     1       2.882   5.262  18.966  0.00  0.00    +0.000 A 
ATOM      5  C   UNL     1       2.250   5.990  19.977  0.00  0.00    +0.000 A 
ATOM      6  C   UNL     1       1.860   7.311  19.794  0.00  0.00    +0.000 A 
ATOM      7  C   UNL     1       1.995   5.127  21.172  0.00  0.00    +0.000 C 
ATOM      8  C   UNL     1       2.897   3.918  20.880  0.00  0.00    +0.000 C 
ATOM      9  N   UNL     1       3.054   3.896  19.389  0.00  0.00    +0.000 N 
ENDROOT
BRANCH   1  11
ATOM     10  N   UNL     1       0.563   9.737  19.084  0.00  0.00    +0.000 N 
ATOM     11  C   UNL     1       1.676   9.341  18.373  0.00  0.00    +0.000 C 
ATOM     12  O   UNL     1       2.276  10.068  17.589  0.00  0.00    +0.000 OA
ATOM     13  H   UNL     1       0.043   9.054  19.618  0.00  0.00    +0.000 HD
BRANCH  10  15
ATOM     14  C   UNL     1       0.089  11.820  20.313  0.00  0.00    +0.000 C 
ATOM     15  C   UNL     1       0.005  11.079  18.974  0.00  0.00    +0.000 C 
BRANCH  15  16
ATOM     16  C   UNL     1      -1.428  11.021  18.469  0.00  0.00    +0.000 A 
ATOM     17  C   UNL     1      -1.778  10.126  17.444  0.00  0.00    +0.000 A 
ATOM     18  C   UNL     1      -3.087  10.076  16.957  0.00  0.00    +0.000 A 
ATOM     19  C   UNL     1      -4.064  10.912  17.491  0.00  0.00    +0.000 A 
ATOM     20  C   UNL     1      -3.736  11.799  18.513  0.00  0.00    +0.000 A 
ATOM     21  C   UNL     1      -2.428  11.855  18.999  0.00  0.00    +0.000 A 
ENDBRANCH  15  16
ENDBRANCH  10  15
ENDBRANCH   1  11
BRANCH   9  22
ATOM     22  S   UNL     1       4.364   2.999  18.782  0.00  0.00    +0.000 S 
ATOM     23  O   UNL     1       4.954   2.226  19.856  0.00  0.00    +0.000 OA
ATOM     24  O   UNL     1       3.938   2.362  17.551  0.00  0.00    +0.000 OA
BRANCH  22  25
ATOM     25  C   UNL     1       5.556   4.261  18.352  0.00  0.00    +0.000 A 
ATOM     26  C   UNL     1       6.162   5.008  19.369  0.00  0.00    +0.000 A 
ATOM     27  C   UNL     1       7.119   5.971  19.040  0.00  0.00    +0.000 A 
ATOM     28  C   UNL     1       7.475   6.178  17.705  0.00  0.00    +0.000 A 
ATOM     29  C   UNL     1       6.866   5.433  16.694  0.00  0.00    +0.000 A 
ATOM     30  C   UNL     1       5.901   4.475  17.014  0.00  0.00    +0.000 A 
ENDBRANCH  22  25
ENDBRANCH   9  22
TORSDOF 5
ENDMDL
MODEL 4
REMARK VINA RESULT:      -8.5      1.162      1.593
REMARK  Name = 
REMARK  6 active torsions:
REMARK  status: ('A' for Active; 'I' for Inactive)
REMARK    1  A    between atoms: C_1  and  C_2
REMARK    2  A    between atoms: C_2  and  N_3
REMARK    3  A    between atoms: C_2  and  C_24
REMARK    4  A    between atoms: C_4  and  C_6
REMARK    5  A    between atoms: N_14  and  S_15
REMARK    6  A    between atoms: S_15  and  C_18
REMARK                            x       y       z     vdW  Elec       q    Type
REMARK                         _______ _______ _______ _____ _____    ______ ____
ROOT
ATOM      1  C   UNL     1       2.128   7.885  18.570  0.00  0.00    +0.000 A 
ATOM      2  C   UNL     1       2.719   7.136  17.533  0.00  0.00    +0.000 A 
ATOM      3  C   UNL     1       3.085   5.788  17.730  0.00  0.00    +0.000 A 
ATOM      4  C   UNL     1       2.883   5.220  18.977  0.00  0.00    +0.000 A 
ATOM      5  C   UNL     1       2.270   5.957  19.993  0.00  0.00    +0.000 A 
ATOM      6  C   UNL     1       1.883   7.279  19.808  0.00  0.00    +0.000 A 
ATOM      7  C   UNL     1       2.029   5.102  21.197  0.00  0.00    +0.000 C 
ATOM      8  C   UNL     1       2.921   3.887  20.899  0.00  0.00    +0.000 C 
ATOM      9  N   UNL     1       3.056   3.855  19.406  0.00  0.00    +0.000 N 
ENDROOT
BRANCH   1  11
ATOM     10  N   UNL     1       0.606   9.715  19.126  0.00  0.00    +0.000 N 
ATOM     11  C   UNL     1       1.687   9.301  18.377  0.00  0.00    +0.000 C 
ATOM     12  O   UNL     1       2.261  10.011  17.561  0.00  0.00    +0.000 OA
ATOM     13  H   UNL     1       0.102   9.044  19.690  0.00  0.00    +0.000 HD
BRANCH  10  15
ATOM     14  C   UNL     1       0.122  11.790  20.366  0.00  0.00    +0.000 C 
ATOM     15  C   UNL     1       0.054  11.060  19.019  0.00  0.00    +0.000 C 
BRANCH  15  16
ATOM     16  C   UNL     1      -1.371  11.012  18.494  0.00  0.00    +0.000 A 
ATOM     17  C   UNL     1      -2.352  11.857  19.042  0.00  0.00    +0.000 A 
ATOM     18  C   UNL     1      -3.671  11.810  18.583  0.00  0.00    +0.000 A 
ATOM     19  C   UNL     1      -4.027  10.927  17.567  0.00  0.00    +0.000 A 
ATOM     20  C   UNL     1      -3.066  10.089  17.008  0.00  0.00    +0.000 A 
ATOM     21  C   UNL     1      -1.747  10.130  17.467  0.00  0.00    +0.000 A 
ENDBRANCH  15  16
ENDBRANCH  10  15
ENDBRANCH   1  11
BRANCH   9  22
ATOM     22  S   UNL     1       4.352   2.949  18.785  0.00  0.00    +0.000 S 
ATOM     23  O   UNL     1       4.950   2.173  19.852  0.00  0.00    +0.000 OA
ATOM     24  O   UNL     1       3.906   2.313  17.560  0.00  0.00    +0.000 OA
BRANCH  22  25
ATOM     25  C   UNL     1       5.547   4.202  18.339  0.00  0.00    +0.000 A 
ATOM     26  C   UNL     1       5.858   4.405  16.990  0.00  0.00    +0.000 A 
ATOM     27  C   UNL     1       6.765   5.408  16.635  0.00  0.00    +0.000 A 
ATOM     28  C   UNL     1       7.349   6.206  17.621  0.00  0.00    +0.000 A 
ATOM     29  C   UNL     1       7.039   5.997  18.966  0.00  0.00    +0.000 A 
ATOM     30  C   UNL     1       6.139   4.992  19.330  0.00  0.00    +0.000 A 
ENDBRANCH  22  25
ENDBRANCH   9  22
TORSDOF 5
ENDMDL
MODEL 5
REMARK VINA RESULT:      -8.3      1.662      3.739
REMARK  Name = 
REMARK  6 active torsions:
REMARK  status: ('A' for Active; 'I' for Inactive)
REMARK    1  A    between atoms: C_1  and  C_2
REMARK    2  A    between atoms: C_2  and  N_3
REMARK    3  A    between atoms: C_2  and  C_24
REMARK    4  A    between atoms: C_4  and  C_6
REMARK    5  A    between atoms: N_14  and  S_15
REMARK    6  A    between atoms: S_15  and  C_18
REMARK                            x       y       z     vdW  Elec       q    Type
REMARK                         _______ _______ _______ _____ _____    ______ ____
ROOT
ATOM      1  C   UNL     1       2.408   8.255  18.019  0.00  0.00    +0.000 A 
ATOM      2  C   UNL     1       1.775   7.180  18.678  0.00  0.00    +0.000 A 
ATOM      3  C   UNL     1       2.295   5.872  18.593  0.00  0.00    +0.000 A 
ATOM      4  C   UNL     1       3.423   5.653  17.821  0.00  0.00    +0.000 A 
ATOM      5  C   UNL     1       4.063   6.724  17.195  0.00  0.00    +0.000 A 
ATOM      6  C   UNL     1       3.578   8.023  17.286  0.00  0.00    +0.000 A 
ATOM      7  C   UNL     1       5.330   6.274  16.538  0.00  0.00    +0.000 C 
ATOM      8  C   UNL     1       5.152   4.748  16.531  0.00  0.00    +0.000 C 
ATOM      9  N   UNL     1       4.212   4.457  17.663  0.00  0.00    +0.000 N 
ENDROOT
BRANCH   1  11
ATOM     10  N   UNL     1       0.738   9.843  18.832  0.00  0.00    +0.000 N 
ATOM     11  C   UNL     1       1.909   9.660  18.128  0.00  0.00    +0.000 C 
ATOM     12  O   UNL     1       2.519  10.567  17.576  0.00  0.00    +0.000 OA
ATOM     13  H   UNL     1       0.220   9.038  19.159  0.00  0.00    +0.000 HD
BRANCH  10  15
ATOM     14  C   UNL     1       0.299  11.668  20.430  0.00  0.00    +0.000 C 
ATOM     15  C   UNL     1       0.124  11.155  18.996  0.00  0.00    +0.000 C 
BRANCH  15  16
ATOM     16  C   UNL     1      -1.344  11.110  18.606  0.00  0.00    +0.000 A 
ATOM     17  C   UNL     1      -1.787  10.193  17.638  0.00  0.00    +0.000 A 
ATOM     18  C   UNL     1      -3.130  10.153  17.254  0.00  0.00    +0.000 A 
ATOM     19  C   UNL     1      -4.050  11.022  17.837  0.00  0.00    +0.000 A 
ATOM     20  C   UNL     1      -3.628  11.931  18.804  0.00  0.00    +0.000 A 
ATOM     21  C   UNL     1      -2.286  11.976  19.186  0.00  0.00    +0.000 A 
ENDBRANCH  15  16
ENDBRANCH  10  15
ENDBRANCH   1  11
BRANCH   9  22
ATOM     22  S   UNL     1       3.432   2.948  17.626  0.00  0.00    +0.000 S 
ATOM     23  O   UNL     1       2.374   2.978  16.636  0.00  0.00    +0.000 OA
ATOM     24  O   UNL     1       4.452   1.918  17.596  0.00  0.00    +0.000 OA
BRANCH  22  25
ATOM     25  C   UNL     1       2.629   2.867  19.222  0.00  0.00    +0.000 A 
ATOM     26  C   UNL     1       1.232   2.899  19.291  0.00  0.00    +0.000 A 
ATOM     27  C   UNL     1       0.601   2.800  20.533  0.00  0.00    +0.000 A 
ATOM     28  C   UNL     1       1.360   2.661  21.697  0.00  0.00    +0.000 A 
ATOM     29  C   UNL     1       2.754   2.633  21.624  0.00  0.00    +0.000 A 
ATOM     30  C   UNL     1       3.394   2.739  20.387  0.00  0.00    +0.000 A 
ENDBRANCH  22  25
ENDBRANCH   9  22
TORSDOF 5
ENDMDL
MODEL 6
REMARK VINA RESULT:      -8.3      2.442      3.761
REMARK  Name = 
REMARK  6 active torsions:
REMARK  status: ('A' for Active; 'I' for Inactive)
REMARK    1  A    between atoms: C_1  and  C_2
REMARK    2  A    between atoms: C_2  and  N_3
REMARK    3  A    between atoms: C_2  and  C_24
REMARK    4  A    between atoms: C_4  and  C_6
REMARK    5  A    between atoms: N_14  and  S_15
REMARK    6  A    between atoms: S_15  and  C_18
REMARK                            x       y       z     vdW  Elec       q    Type
REMARK                         _______ _______ _______ _____ _____    ______ ____
ROOT
ATOM      1  C   UNL     1       2.191   7.763  19.091  0.00  0.00    +0.000 A 
ATOM      2  C   UNL     1       2.904   8.107  17.925  0.00  0.00    +0.000 A 
ATOM      3  C   UNL     1       3.586   7.126  17.176  0.00  0.00    +0.000 A 
ATOM      4  C   UNL     1       3.572   5.817  17.627  0.00  0.00    +0.000 A 
ATOM      5  C   UNL     1       2.840   5.474  18.765  0.00  0.00    +0.000 A 
ATOM      6  C   UNL     1       2.143   6.425  19.502  0.00  0.00    +0.000 A 
ATOM      7  C   UNL     1       2.854   3.994  18.980  0.00  0.00    +0.000 C 
ATOM      8  C   UNL     1       3.997   3.556  18.052  0.00  0.00    +0.000 C 
ATOM      9  N   UNL     1       4.080   4.622  17.001  0.00  0.00    +0.000 N 
ENDROOT
BRANCH   1  11
ATOM     10  N   UNL     1       1.057   9.924  19.215  0.00  0.00    +0.000 N 
ATOM     11  C   UNL     1       1.419   8.772  19.879  0.00  0.00    +0.000 C 
ATOM     12  O   UNL     1       1.172   8.562  21.061  0.00  0.00    +0.000 OA
ATOM     13  H   UNL     1       1.397  10.088  18.277  0.00  0.00    +0.000 HD
BRANCH  10  15
ATOM     14  C   UNL     1      -1.176  10.904  19.574  0.00  0.00    +0.000 C 
ATOM     15  C   UNL     1       0.325  11.003  19.867  0.00  0.00    +0.000 C 
BRANCH  15  16
ATOM     16  C   UNL     1       0.877  12.354  19.445  0.00  0.00    +0.000 A 
ATOM     17  C   UNL     1       2.030  12.425  18.644  0.00  0.00    +0.000 A 
ATOM     18  C   UNL     1       2.560  13.660  18.264  0.00  0.00    +0.000 A 
ATOM     19  C   UNL     1       1.944  14.841  18.671  0.00  0.00    +0.000 A 
ATOM     20  C   UNL     1       0.796  14.789  19.458  0.00  0.00    +0.000 A 
ATOM     21  C   UNL     1       0.266  13.555  19.844  0.00  0.00    +0.000 A 
ENDBRANCH  15  16
ENDBRANCH  10  15
ENDBRANCH   1  11
BRANCH   9  22
ATOM     22  S   UNL     1       5.530   4.700  16.119  0.00  0.00    +0.000 S 
ATOM     23  O   UNL     1       6.123   3.380  16.052  0.00  0.00    +0.000 OA
ATOM     24  O   UNL     1       5.280   5.467  14.914  0.00  0.00    +0.000 OA
BRANCH  22  25
ATOM     25  C   UNL     1       6.593   5.681  17.172  0.00  0.00    +0.000 A 
ATOM     26  C   UNL     1       7.124   5.109  18.333  0.00  0.00    +0.000 A 
ATOM     27  C   UNL     1       7.984   5.860  19.140  0.00  0.00    +0.000 A 
ATOM     28  C   UNL     1       8.315   7.169  18.782  0.00  0.00    +0.000 A 
ATOM     29  C   UNL     1       7.780   7.736  17.625  0.00  0.00    +0.000 A 
ATOM     30  C   UNL     1       6.914   6.995  16.817  0.00  0.00    +0.000 A 
ENDBRANCH  22  25
ENDBRANCH   9  22
TORSDOF 5
ENDMDL
MODEL 7
REMARK VINA RESULT:      -8.3      2.491      3.804
REMARK  Name = 
REMARK  6 active torsions:
REMARK  status: ('A' for Active; 'I' for Inactive)
REMARK    1  A    between atoms: C_1  and  C_2
REMARK    2  A    between atoms: C_2  and  N_3
REMARK    3  A    between atoms: C_2  and  C_24
REMARK    4  A    between atoms: C_4  and  C_6
REMARK    5  A    between atoms: N_14  and  S_15
REMARK    6  A    between atoms: S_15  and  C_18
REMARK                            x       y       z     vdW  Elec       q    Type
REMARK                         _______ _______ _______ _____ _____    ______ ____
ROOT
ATOM      1  C   UNL     1       2.263   7.569  19.158  0.00  0.00    +0.000 A 
ATOM      2  C   UNL     1       2.955   7.974  17.998  0.00  0.00    +0.000 A 
ATOM      3  C   UNL     1       3.632   7.035  17.194  0.00  0.00    +0.000 A 
ATOM      4  C   UNL     1       3.636   5.706  17.582  0.00  0.00    +0.000 A 
ATOM      5  C   UNL     1       2.925   5.304  18.715  0.00  0.00    +0.000 A 
ATOM      6  C   UNL     1       2.233   6.213  19.506  0.00  0.00    +0.000 A 
ATOM      7  C   UNL     1       2.954   3.815  18.859  0.00  0.00    +0.000 C 
ATOM      8  C   UNL     1       4.085   3.431  17.893  0.00  0.00    +0.000 C 
ATOM      9  N   UNL     1       4.142   4.546  16.892  0.00  0.00    +0.000 N 
ENDROOT
BRANCH   1  11
ATOM     10  N   UNL     1       1.179   9.742  19.425  0.00  0.00    +0.000 N 
ATOM     11  C   UNL     1       1.497   8.534  20.005  0.00  0.00    +0.000 C 
ATOM     12  O   UNL     1       1.215   8.239  21.161  0.00  0.00    +0.000 OA
ATOM     13  H   UNL     1       1.546   9.970  18.511  0.00  0.00    +0.000 HD
BRANCH  10  15
ATOM     14  C   UNL     1      -1.036  10.758  19.798  0.00  0.00    +0.000 C 
ATOM     15  C   UNL     1       0.457  10.786  20.143  0.00  0.00    +0.000 C 
BRANCH  15  16
ATOM     16  C   UNL     1       1.060  12.150  19.851  0.00  0.00    +0.000 A 
ATOM     17  C   UNL     1       0.796  13.234  20.705  0.00  0.00    +0.000 A 
ATOM     18  C   UNL     1       1.327  14.499  20.439  0.00  0.00    +0.000 A 
ATOM     19  C   UNL     1       2.135  14.697  19.322  0.00  0.00    +0.000 A 
ATOM     20  C   UNL     1       2.413  13.631  18.469  0.00  0.00    +0.000 A 
ATOM     21  C   UNL     1       1.880  12.367  18.730  0.00  0.00    +0.000 A 
ENDBRANCH  15  16
ENDBRANCH  10  15
ENDBRANCH   1  11
BRANCH   9  22
ATOM     22  S   UNL     1       5.577   4.678  15.992  0.00  0.00    +0.000 S 
ATOM     23  O   UNL     1       6.176   3.367  15.848  0.00  0.00    +0.000 OA
ATOM     24  O   UNL     1       5.303   5.505  14.833  0.00  0.00    +0.000 OA
BRANCH  22  25
ATOM     25  C   UNL     1       6.653   5.609  17.077  0.00  0.00    +0.000 A 
ATOM     26  C   UNL     1       6.948   6.942  16.772  0.00  0.00    +0.000 A 
ATOM     27  C   UNL     1       7.759   7.683  17.636  0.00  0.00    +0.000 A 
ATOM     28  C   UNL     1       8.263   7.098  18.799  0.00  0.00    +0.000 A 
ATOM     29  C   UNL     1       7.969   5.766  19.098  0.00  0.00    +0.000 A 
ATOM     30  C   UNL     1       7.166   5.016  18.235  0.00  0.00    +0.000 A 
ENDBRANCH  22  25
ENDBRANCH   9  22
TORSDOF 5
ENDMDL
MODEL 8
REMARK VINA RESULT:      -8.3      1.619      3.677
REMARK  Name = 
REMARK  6 active torsions:
REMARK  status: ('A' for Active; 'I' for Inactive)
REMARK    1  A    between atoms: C_1  and  C_2
REMARK    2  A    between atoms: C_2  and  N_3
REMARK    3  A    between atoms: C_2  and  C_24
REMARK    4  A    between atoms: C_4  and  C_6
REMARK    5  A    between atoms: N_14  and  S_15
REMARK    6  A    between atoms: S_15  and  C_18
REMARK                            x       y       z     vdW  Elec       q    Type
REMARK                         _______ _______ _______ _____ _____    ______ ____
ROOT
ATOM      1  C   UNL     1       2.282   8.375  18.110  0.00  0.00    +0.000 A 
ATOM      2  C   UNL     1       1.657   7.266  18.717  0.00  0.00    +0.000 A 
ATOM      3  C   UNL     1       2.208   5.973  18.604  0.00  0.00    +0.000 A 
ATOM      4  C   UNL     1       3.360   5.804  17.854  0.00  0.00    +0.000 A 
ATOM      5  C   UNL     1       3.991   6.909  17.280  0.00  0.00    +0.000 A 
ATOM      6  C   UNL     1       3.474   8.193  17.400  0.00  0.00    +0.000 A 
ATOM      7  C   UNL     1       5.284   6.508  16.641  0.00  0.00    +0.000 C 
ATOM      8  C   UNL     1       5.140   4.980  16.580  0.00  0.00    +0.000 C 
ATOM      9  N   UNL     1       4.179   4.632  17.677  0.00  0.00    +0.000 N 
ENDROOT
BRANCH   1  11
ATOM     10  N   UNL     1       0.500   9.888  18.821  0.00  0.00    +0.000 N 
ATOM     11  C   UNL     1       1.748   9.765  18.252  0.00  0.00    +0.000 C 
ATOM     12  O   UNL     1       2.404  10.714  17.839  0.00  0.00    +0.000 OA
ATOM     13  H   UNL     1      -0.040   9.058  19.029  0.00  0.00    +0.000 HD
BRANCH  10  15
ATOM     14  C   UNL     1      -0.070  11.643  20.457  0.00  0.00    +0.000 C 
ATOM     15  C   UNL     1      -0.153  11.180  18.997  0.00  0.00    +0.000 C 
BRANCH  15  16
ATOM     16  C   UNL     1      -1.596  11.119  18.524  0.00  0.00    +0.000 A 
ATOM     17  C   UNL     1      -2.565  11.951  19.110  0.00  0.00    +0.000 A 
ATOM     18  C   UNL     1      -3.899  11.892  18.699  0.00  0.00    +0.000 A 
ATOM     19  C   UNL     1      -4.282  11.008  17.693  0.00  0.00    +0.000 A 
ATOM     20  C   UNL     1      -3.333  10.182  17.097  0.00  0.00    +0.000 A 
ATOM     21  C   UNL     1      -1.999  10.236  17.508  0.00  0.00    +0.000 A 
ENDBRANCH  15  16
ENDBRANCH  10  15
ENDBRANCH   1  11
BRANCH   9  22
ATOM     22  S   UNL     1       3.434   3.108  17.571  0.00  0.00    +0.000 S 
ATOM     23  O   UNL     1       2.367   3.162  16.593  0.00  0.00    +0.000 OA
ATOM     24  O   UNL     1       4.478   2.106  17.482  0.00  0.00    +0.000 OA
BRANCH  22  25
ATOM     25  C   UNL     1       2.649   2.928  19.168  0.00  0.00    +0.000 A 
ATOM     26  C   UNL     1       3.442   2.767  20.309  0.00  0.00    +0.000 A 
ATOM     27  C   UNL     1       2.833   2.662  21.562  0.00  0.00    +0.000 A 
ATOM     28  C   UNL     1       1.442   2.727  21.674  0.00  0.00    +0.000 A 
ATOM     29  C   UNL     1       0.654   2.884  20.532  0.00  0.00    +0.000 A 
ATOM     30  C   UNL     1       1.255   2.981  19.274  0.00  0.00    +0.000 A 
ENDBRANCH  22  25
ENDBRANCH   9  22
TORSDOF 5
ENDMDL
MODEL 9
REMARK VINA RESULT:      -8.2      2.034      3.284
REMARK  Name = 
REMARK  6 active torsions:
REMARK  status: ('A' for Active; 'I' for Inactive)
REMARK    1  A    between atoms: C_1  and  C_2
REMARK    2  A    between atoms: C_2  and  N_3
REMARK    3  A    between atoms: C_2  and  C_24
REMARK    4  A    between atoms: C_4  and  C_6
REMARK    5  A    between atoms: N_14  and  S_15
REMARK    6  A    between atoms: S_15  and  C_18
REMARK                            x       y       z     vdW  Elec       q    Type
REMARK                         _______ _______ _______ _____ _____    ______ ____
ROOT
ATOM      1  C   UNL     1       2.483   7.675  18.817  0.00  0.00    +0.000 A 
ATOM      2  C   UNL     1       3.236   8.113  17.708  0.00  0.00    +0.000 A 
ATOM      3  C   UNL     1       4.233   7.292  17.140  0.00  0.00    +0.000 A 
ATOM      4  C   UNL     1       4.485   6.057  17.714  0.00  0.00    +0.000 A 
ATOM      5  C   UNL     1       3.716   5.616  18.793  0.00  0.00    +0.000 A 
ATOM      6  C   UNL     1       2.715   6.402  19.350  0.00  0.00    +0.000 A 
ATOM      7  C   UNL     1       4.068   4.207  19.153  0.00  0.00    +0.000 C 
ATOM      8  C   UNL     1       5.396   4.017  18.404  0.00  0.00    +0.000 C 
ATOM      9  N   UNL     1       5.350   4.995  17.268  0.00  0.00    +0.000 N 
ENDROOT
BRANCH   1  11
ATOM     10  N   UNL     1       0.818   9.449  18.587  0.00  0.00    +0.000 N 
ATOM     11  C   UNL     1       1.388   8.502  19.411  0.00  0.00    +0.000 C 
ATOM     12  O   UNL     1       1.069   8.339  20.582  0.00  0.00    +0.000 OA
ATOM     13  H   UNL     1       1.209   9.615  17.670  0.00  0.00    +0.000 HD
BRANCH  10  15
ATOM     14  C   UNL     1      -1.455  10.276  18.107  0.00  0.00    +0.000 C 
ATOM     15  C   UNL     1      -0.241  10.341  19.043  0.00  0.00    +0.000 C 
BRANCH  15  16
ATOM     16  C   UNL     1       0.277  11.764  19.169  0.00  0.00    +0.000 A 
ATOM     17  C   UNL     1       1.381  12.041  19.993  0.00  0.00    +0.000 A 
ATOM     18  C   UNL     1       1.856  13.347  20.134  0.00  0.00    +0.000 A 
ATOM     19  C   UNL     1       1.241  14.393  19.449  0.00  0.00    +0.000 A 
ATOM     20  C   UNL     1       0.151  14.134  18.622  0.00  0.00    +0.000 A 
ATOM     21  C   UNL     1      -0.329  12.831  18.482  0.00  0.00    +0.000 A 
ENDBRANCH  15  16
ENDBRANCH  10  15
ENDBRANCH   1  11
BRANCH   9  22
ATOM     22  S   UNL     1       6.839   5.385  16.549  0.00  0.00    +0.000 S 
ATOM     23  O   UNL     1       6.959   6.825  16.444  0.00  0.00    +0.000 OA
ATOM     24  O   UNL     1       7.869   4.596  17.196  0.00  0.00    +0.000 OA
BRANCH  22  25
ATOM     25  C   UNL     1       6.656   4.770  14.879  0.00  0.00    +0.000 A 
ATOM     26  C   UNL     1       5.560   3.960  14.562  0.00  0.00    +0.000 A 
ATOM     27  C   UNL     1       5.395   3.507  13.251  0.00  0.00    +0.000 A 
ATOM     28  C   UNL     1       6.314   3.868  12.263  0.00  0.00    +0.000 A 
ATOM     29  C   UNL     1       7.408   4.673  12.584  0.00  0.00    +0.000 A 
ATOM     30  C   UNL     1       7.585   5.124  13.895  0.00  0.00    +0.000 A 
ENDBRANCH  22  25
ENDBRANCH   9  22
TORSDOF 5
ENDMDL
