MODEL 1
REMARK VINA RESULT:      -6.9      0.000      0.000
REMARK  Name = 
REMARK  6 active torsions:
REMARK  status: ('A' for Active; 'I' for Inactive)
REMARK    1  A    between atoms: C_1  and  O_2
REMARK    2  A    between atoms: O_2  and  C_3
REMARK    3  A    between atoms: C_3  and  C_4
REMARK    4  A    between atoms: C_4  and  S_5
REMARK    5  A    between atoms: S_5  and  C_6
REMARK    6  A    between atoms: C_11  and  C_13
REMARK                            x       y       z     vdW  Elec       q    Type
REMARK                         _______ _______ _______ _____ _____    ______ ____
ROOT
ATOM      1  C   UNL     1       6.927   4.719  15.748  0.00  0.00    +0.000 A 
ATOM      2  N   UNL     1       7.874   4.591  16.652  0.00  0.00    +0.000 NA
ATOM      3  N   UNL     1       7.352   4.413  17.921  0.00  0.00    +0.000 NA
ATOM      4  C   UNL     1       6.039   4.466  17.926  0.00  0.00    +0.000 A 
ATOM      5  N   UNL     1       5.296   4.248  19.064  0.00  0.00    +0.000 N 
ATOM      6  C   UNL     1       3.955   4.537  19.212  0.00  0.00    +0.000 C 
ATOM      7  O   UNL     1       3.260   5.102  18.373  0.00  0.00    +0.000 OA
ATOM      8  S   UNL     1       5.341   4.712  16.387  0.00  0.00    +0.000 S 
ATOM      9  H   UNL     1       5.845   3.982  19.866  0.00  0.00    +0.000 HD
ENDROOT
BRANCH   6  10
ATOM     10  C   UNL     1       3.391   4.153  20.593  0.00  0.00    +0.000 C 
ATOM     11  C   UNL     1       2.130   4.974  20.929  0.00  0.00    +0.000 C 
ATOM     12  C   UNL     1       0.898   4.529  20.135  0.00  0.00    +0.000 C 
ATOM     13  C   UNL     1       0.651   3.030  20.257  0.00  0.00    +0.000 C 
ATOM     14  C   UNL     1       1.892   2.216  19.909  0.00  0.00    +0.000 C 
ATOM     15  C   UNL     1       3.107   2.655  20.724  0.00  0.00    +0.000 C 
ENDBRANCH   6  10
BRANCH   1  16
ATOM     16  S   UNL     1       7.253   4.866  14.039  0.00  0.00    +0.000 S 
BRANCH  16  17
ATOM     17  C   UNL     1       5.917   3.842  13.349  0.00  0.00    +0.000 C 
BRANCH  17  18
ATOM     18  C   UNL     1       6.441   3.050  12.153  0.00  0.00    +0.000 C 
BRANCH  18  20
ATOM     19  C   UNL     1       4.202   3.237  11.444  0.00  0.00    +0.000 C 
ATOM     20  O   UNL     1       5.351   2.397  11.498  0.00  0.00    +0.000 OA
ENDBRANCH  18  20
ENDBRANCH  17  18
ENDBRANCH  16  17
ENDBRANCH   1  16
TORSDOF 5
ENDMDL
MODEL 2
REMARK VINA RESULT:      -6.5      3.801      5.546
REMARK  Name = 
REMARK  6 active torsions:
REMARK  status: ('A' for Active; 'I' for Inactive)
REMARK    1  A    between atoms: C_1  and  O_2
REMARK    2  A    between atoms: O_2  and  C_3
REMARK    3  A    between atoms: C_3  and  C_4
REMARK    4  A    between atoms: C_4  and  S_5
REMARK    5  A    between atoms: S_5  and  C_6
REMARK    6  A    between atoms: C_11  and  C_13
REMARK                            x       y       z     vdW  Elec       q    Type
REMARK                         _______ _______ _______ _____ _____    ______ ____
ROOT
ATOM      1  C   UNL     1       7.317   6.806  18.231  0.00  0.00    +0.000 A 
ATOM      2  N   UNL     1       7.901   6.231  19.259  0.00  0.00    +0.000 NA
ATOM      3  N   UNL     1       7.204   5.116  19.689  0.00  0.00    +0.000 NA
ATOM      4  C   UNL     1       6.101   4.928  19.000  0.00  0.00    +0.000 A 
ATOM      5  N   UNL     1       5.279   3.843  19.202  0.00  0.00    +0.000 N 
ATOM      6  C   UNL     1       3.996   3.708  18.716  0.00  0.00    +0.000 C 
ATOM      7  O   UNL     1       3.381   4.576  18.101  0.00  0.00    +0.000 OA
ATOM      8  S   UNL     1       5.842   6.079  17.764  0.00  0.00    +0.000 S 
ATOM      9  H   UNL     1       5.636   3.180  19.873  0.00  0.00    +0.000 HD
ENDROOT
BRANCH   6  10
ATOM     10  C   UNL     1       3.335   2.366  19.083  0.00  0.00    +0.000 C 
ATOM     11  C   UNL     1       3.527   2.039  20.576  0.00  0.00    +0.000 C 
ATOM     12  C   UNL     1       2.647   2.894  21.493  0.00  0.00    +0.000 C 
ATOM     13  C   UNL     1       1.180   2.846  21.084  0.00  0.00    +0.000 C 
ATOM     14  C   UNL     1       0.986   3.186  19.611  0.00  0.00    +0.000 C 
ATOM     15  C   UNL     1       1.852   2.311  18.707  0.00  0.00    +0.000 C 
ENDBRANCH   6  10
BRANCH   1  16
ATOM     16  S   UNL     1       7.994   8.182  17.396  0.00  0.00    +0.000 S 
BRANCH  16  17
ATOM     17  C   UNL     1       8.676   9.127  18.794  0.00  0.00    +0.000 C 
BRANCH  17  18
ATOM     18  C   UNL     1       9.049  10.533  18.331  0.00  0.00    +0.000 C 
BRANCH  18  20
ATOM     19  C   UNL     1       9.695  11.325  20.454  0.00  0.00    +0.000 C 
ATOM     20  O   UNL     1      10.126  11.029  19.129  0.00  0.00    +0.000 OA
ENDBRANCH  18  20
ENDBRANCH  17  18
ENDBRANCH  16  17
ENDBRANCH   1  16
TORSDOF 5
ENDMDL
MODEL 3
REMARK VINA RESULT:      -6.3      0.750      1.043
REMARK  Name = 
REMARK  6 active torsions:
REMARK  status: ('A' for Active; 'I' for Inactive)
REMARK    1  A    between atoms: C_1  and  O_2
REMARK    2  A    between atoms: O_2  and  C_3
REMARK    3  A    between atoms: C_3  and  C_4
REMARK    4  A    between atoms: C_4  and  S_5
REMARK    5  A    between atoms: S_5  and  C_6
REMARK    6  A    between atoms: C_11  and  C_13
REMARK                            x       y       z     vdW  Elec       q    Type
REMARK                         _______ _______ _______ _____ _____    ______ ____
ROOT
ATOM      1  C   UNL     1       6.631   5.121  16.052  0.00  0.00    +0.000 A 
ATOM      2  N   UNL     1       7.410   5.333  17.090  0.00  0.00    +0.000 NA
ATOM      3  N   UNL     1       6.692   5.368  18.272  0.00  0.00    +0.000 NA
ATOM      4  C   UNL     1       5.401   5.232  18.070  0.00  0.00    +0.000 A 
ATOM      5  N   UNL     1       4.494   5.167  19.103  0.00  0.00    +0.000 N 
ATOM      6  C   UNL     1       3.126   5.286  18.976  0.00  0.00    +0.000 C 
ATOM      7  O   UNL     1       2.536   5.546  17.932  0.00  0.00    +0.000 OA
ATOM      8  S   UNL     1       4.966   5.028  16.431  0.00  0.00    +0.000 S 
ATOM      9  H   UNL     1       4.918   5.166  20.018  0.00  0.00    +0.000 HD
ENDROOT
BRANCH   6  10
ATOM     10  C   UNL     1       2.368   5.140  20.310  0.00  0.00    +0.000 C 
ATOM     11  C   UNL     1       0.901   4.730  20.076  0.00  0.00    +0.000 C 
ATOM     12  C   UNL     1       0.749   3.265  19.658  0.00  0.00    +0.000 C 
ATOM     13  C   UNL     1       1.458   2.320  20.620  0.00  0.00    +0.000 C 
ATOM     14  C   UNL     1       2.914   2.713  20.839  0.00  0.00    +0.000 C 
ATOM     15  C   UNL     1       3.049   4.170  21.278  0.00  0.00    +0.000 C 
ENDBRANCH   6  10
BRANCH   1  16
ATOM     16  S   UNL     1       7.239   4.931  14.425  0.00  0.00    +0.000 S 
BRANCH  16  17
ATOM     17  C   UNL     1       6.014   3.774  13.738  0.00  0.00    +0.000 C 
BRANCH  17  18
ATOM     18  C   UNL     1       6.341   3.489  12.274  0.00  0.00    +0.000 C 
BRANCH  18  20
ATOM     19  C   UNL     1       4.235   3.158  11.271  0.00  0.00    +0.000 C 
ATOM     20  O   UNL     1       5.417   2.529  11.756  0.00  0.00    +0.000 OA
ENDBRANCH  18  20
ENDBRANCH  17  18
ENDBRANCH  16  17
ENDBRANCH   1  16
TORSDOF 5
ENDMDL
MODEL 4
REMARK VINA RESULT:      -6.2      4.056      5.719
REMARK  Name = 
REMARK  6 active torsions:
REMARK  status: ('A' for Active; 'I' for Inactive)
REMARK    1  A    between atoms: C_1  and  O_2
REMARK    2  A    between atoms: O_2  and  C_3
REMARK    3  A    between atoms: C_3  and  C_4
REMARK    4  A    between atoms: C_4  and  S_5
REMARK    5  A    between atoms: S_5  and  C_6
REMARK    6  A    between atoms: C_11  and  C_13
REMARK                            x       y       z     vdW  Elec       q    Type
REMARK                         _______ _______ _______ _____ _____    ______ ____
ROOT
ATOM      1  C   UNL     1       7.565   6.954  17.913  0.00  0.00    +0.000 A 
ATOM      2  N   UNL     1       7.436   6.862  16.608  0.00  0.00    +0.000 NA
ATOM      3  N   UNL     1       6.503   5.905  16.250  0.00  0.00    +0.000 NA
ATOM      4  C   UNL     1       6.007   5.284  17.296  0.00  0.00    +0.000 A 
ATOM      5  N   UNL     1       5.011   4.339  17.191  0.00  0.00    +0.000 N 
ATOM      6  C   UNL     1       4.625   3.469  18.188  0.00  0.00    +0.000 C 
ATOM      7  O   UNL     1       5.172   3.364  19.283  0.00  0.00    +0.000 OA
ATOM      8  S   UNL     1       6.620   5.832  18.793  0.00  0.00    +0.000 S 
ATOM      9  H   UNL     1       4.658   4.221  16.254  0.00  0.00    +0.000 HD
ENDROOT
BRANCH   6  10
ATOM     10  C   UNL     1       3.460   2.545  17.784  0.00  0.00    +0.000 C 
ATOM     11  C   UNL     1       2.963   1.715  18.983  0.00  0.00    +0.000 C 
ATOM     12  C   UNL     1       2.157   2.541  19.989  0.00  0.00    +0.000 C 
ATOM     13  C   UNL     1       1.023   3.308  19.319  0.00  0.00    +0.000 C 
ATOM     14  C   UNL     1       1.514   4.144  18.143  0.00  0.00    +0.000 C 
ATOM     15  C   UNL     1       2.298   3.302  17.137  0.00  0.00    +0.000 C 
ENDBRANCH   6  10
BRANCH   1  16
ATOM     16  S   UNL     1       8.595   8.130  18.690  0.00  0.00    +0.000 S 
BRANCH  16  17
ATOM     17  C   UNL     1       8.142   9.636  17.774  0.00  0.00    +0.000 C 
BRANCH  17  18
ATOM     18  C   UNL     1       9.024  10.798  18.226  0.00  0.00    +0.000 C 
BRANCH  18  20
ATOM     19  C   UNL     1      10.502  11.505  19.919  0.00  0.00    +0.000 C 
ATOM     20  O   UNL     1       9.558  10.515  19.522  0.00  0.00    +0.000 OA
ENDBRANCH  18  20
ENDBRANCH  17  18
ENDBRANCH  16  17
ENDBRANCH   1  16
TORSDOF 5
ENDMDL
MODEL 5
REMARK VINA RESULT:      -6.2      1.739      2.285
REMARK  Name = 
REMARK  6 active torsions:
REMARK  status: ('A' for Active; 'I' for Inactive)
REMARK    1  A    between atoms: C_1  and  O_2
REMARK    2  A    between atoms: O_2  and  C_3
REMARK    3  A    between atoms: C_3  and  C_4
REMARK    4  A    between atoms: C_4  and  S_5
REMARK    5  A    between atoms: S_5  and  C_6
REMARK    6  A    between atoms: C_11  and  C_13
REMARK                            x       y       z     vdW  Elec       q    Type
REMARK                         _______ _______ _______ _____ _____    ______ ____
ROOT
ATOM      1  C   UNL     1       6.074   5.360  15.910  0.00  0.00    +0.000 A 
ATOM      2  N   UNL     1       5.721   6.606  16.139  0.00  0.00    +0.000 NA
ATOM      3  N   UNL     1       4.581   6.682  16.919  0.00  0.00    +0.000 NA
ATOM      4  C   UNL     1       4.096   5.494  17.201  0.00  0.00    +0.000 A 
ATOM      5  N   UNL     1       3.005   5.317  18.021  0.00  0.00    +0.000 N 
ATOM      6  C   UNL     1       2.286   4.148  18.156  0.00  0.00    +0.000 C 
ATOM      7  O   UNL     1       2.473   3.126  17.502  0.00  0.00    +0.000 OA
ATOM      8  S   UNL     1       5.002   4.196  16.560  0.00  0.00    +0.000 S 
ATOM      9  H   UNL     1       2.660   6.171  18.432  0.00  0.00    +0.000 HD
ENDROOT
BRANCH   6  10
ATOM     10  C   UNL     1       1.133   4.247  19.174  0.00  0.00    +0.000 C 
ATOM     11  C   UNL     1       0.678   2.850  19.640  0.00  0.00    +0.000 C 
ATOM     12  C   UNL     1       1.669   2.189  20.602  0.00  0.00    +0.000 C 
ATOM     13  C   UNL     1       2.017   3.096  21.776  0.00  0.00    +0.000 C 
ATOM     14  C   UNL     1       2.484   4.473  21.317  0.00  0.00    +0.000 C 
ATOM     15  C   UNL     1       1.475   5.130  20.376  0.00  0.00    +0.000 C 
ENDBRANCH   6  10
BRANCH   1  16
ATOM     16  S   UNL     1       7.521   4.923  15.035  0.00  0.00    +0.000 S 
BRANCH  16  17
ATOM     17  C   UNL     1       6.889   4.890  13.329  0.00  0.00    +0.000 C 
BRANCH  17  18
ATOM     18  C   UNL     1       6.140   3.583  13.083  0.00  0.00    +0.000 C 
BRANCH  18  20
ATOM     19  C   UNL     1       5.749   1.906  11.475  0.00  0.00    +0.000 C 
ATOM     20  O   UNL     1       6.562   3.017  11.840  0.00  0.00    +0.000 OA
ENDBRANCH  18  20
ENDBRANCH  17  18
ENDBRANCH  16  17
ENDBRANCH   1  16
TORSDOF 5
ENDMDL
MODEL 6
REMARK VINA RESULT:      -6.1      5.740      8.039
REMARK  Name = 
REMARK  6 active torsions:
REMARK  status: ('A' for Active; 'I' for Inactive)
REMARK    1  A    between atoms: C_1  and  O_2
REMARK    2  A    between atoms: O_2  and  C_3
REMARK    3  A    between atoms: C_3  and  C_4
REMARK    4  A    between atoms: C_4  and  S_5
REMARK    5  A    between atoms: S_5  and  C_6
REMARK    6  A    between atoms: C_11  and  C_13
REMARK                            x       y       z     vdW  Elec       q    Type
REMARK                         _______ _______ _______ _____ _____    ______ ____
ROOT
ATOM      1  C   UNL     1       0.311  10.940  20.309  0.00  0.00    +0.000 A 
ATOM      2  N   UNL     1      -0.008  10.440  21.483  0.00  0.00    +0.000 NA
ATOM      3  N   UNL     1       0.518   9.173  21.663  0.00  0.00    +0.000 NA
ATOM      4  C   UNL     1       1.166   8.753  20.599  0.00  0.00    +0.000 A 
ATOM      5  N   UNL     1       1.832   7.549  20.568  0.00  0.00    +0.000 N 
ATOM      6  C   UNL     1       2.306   6.925  19.434  0.00  0.00    +0.000 C 
ATOM      7  O   UNL     1       2.128   7.322  18.285  0.00  0.00    +0.000 OA
ATOM      8  S   UNL     1       1.204   9.875  19.313  0.00  0.00    +0.000 S 
ATOM      9  H   UNL     1       1.831   7.059  21.450  0.00  0.00    +0.000 HD
ENDROOT
BRANCH   6  10
ATOM     10  C   UNL     1       3.038   5.600  19.719  0.00  0.00    +0.000 C 
ATOM     11  C   UNL     1       2.319   4.790  20.814  0.00  0.00    +0.000 C 
ATOM     12  C   UNL     1       1.022   4.141  20.324  0.00  0.00    +0.000 C 
ATOM     13  C   UNL     1       1.236   3.320  19.058  0.00  0.00    +0.000 C 
ATOM     14  C   UNL     1       1.932   4.125  17.966  0.00  0.00    +0.000 C 
ATOM     15  C   UNL     1       3.236   4.747  18.463  0.00  0.00    +0.000 C 
ENDBRANCH   6  10
BRANCH   1  16
ATOM     16  S   UNL     1      -0.121  12.557  19.811  0.00  0.00    +0.000 S 
BRANCH  16  17
ATOM     17  C   UNL     1      -1.118  12.201  18.330  0.00  0.00    +0.000 C 
BRANCH  17  18
ATOM     18  C   UNL     1      -2.253  11.246  18.692  0.00  0.00    +0.000 C 
BRANCH  18  20
ATOM     19  C   UNL     1      -2.536  10.554  16.458  0.00  0.00    +0.000 C 
ATOM     20  O   UNL     1      -2.251  10.138  17.790  0.00  0.00    +0.000 OA
ENDBRANCH  18  20
ENDBRANCH  17  18
ENDBRANCH  16  17
ENDBRANCH   1  16
TORSDOF 5
ENDMDL
MODEL 7
REMARK VINA RESULT:      -6.1      3.880      5.451
REMARK  Name = 
REMARK  6 active torsions:
REMARK  status: ('A' for Active; 'I' for Inactive)
REMARK    1  A    between atoms: C_1  and  O_2
REMARK    2  A    between atoms: O_2  and  C_3
REMARK    3  A    between atoms: C_3  and  C_4
REMARK    4  A    between atoms: C_4  and  S_5
REMARK    5  A    between atoms: S_5  and  C_6
REMARK    6  A    between atoms: C_11  and  C_13
REMARK                            x       y       z     vdW  Elec       q    Type
REMARK                         _______ _______ _______ _____ _____    ______ ____
ROOT
ATOM      1  C   UNL     1       7.312   7.203  18.051  0.00  0.00    +0.000 A 
ATOM      2  N   UNL     1       7.916   6.312  18.805  0.00  0.00    +0.000 NA
ATOM      3  N   UNL     1       7.141   5.181  18.986  0.00  0.00    +0.000 NA
ATOM      4  C   UNL     1       5.967   5.289  18.403  0.00  0.00    +0.000 A 
ATOM      5  N   UNL     1       5.052   4.261  18.390  0.00  0.00    +0.000 N 
ATOM      6  C   UNL     1       3.724   4.376  18.037  0.00  0.00    +0.000 C 
ATOM      7  O   UNL     1       3.157   5.430  17.762  0.00  0.00    +0.000 OA
ATOM      8  S   UNL     1       5.730   6.762  17.574  0.00  0.00    +0.000 S 
ATOM      9  H   UNL     1       5.391   3.407  18.805  0.00  0.00    +0.000 HD
ENDROOT
BRANCH   6  10
ATOM     10  C   UNL     1       2.954   3.043  18.090  0.00  0.00    +0.000 C 
ATOM     11  C   UNL     1       3.500   2.127  19.203  0.00  0.00    +0.000 C 
ATOM     12  C   UNL     1       3.099   2.588  20.607  0.00  0.00    +0.000 C 
ATOM     13  C   UNL     1       1.594   2.799  20.731  0.00  0.00    +0.000 C 
ATOM     14  C   UNL     1       1.055   3.718  19.642  0.00  0.00    +0.000 C 
ATOM     15  C   UNL     1       1.443   3.234  18.246  0.00  0.00    +0.000 C 
ENDBRANCH   6  10
BRANCH   1  16
ATOM     16  S   UNL     1       8.060   8.702  17.558  0.00  0.00    +0.000 S 
BRANCH  16  17
ATOM     17  C   UNL     1       8.979   9.136  19.068  0.00  0.00    +0.000 C 
BRANCH  17  18
ATOM     18  C   UNL     1       9.199  10.645  19.120  0.00  0.00    +0.000 C 
BRANCH  18  20
ATOM     19  C   UNL     1       8.871  12.534  17.751  0.00  0.00    +0.000 C 
ATOM     20  O   UNL     1       9.263  11.165  17.790  0.00  0.00    +0.000 OA
ENDBRANCH  18  20
ENDBRANCH  17  18
ENDBRANCH  16  17
ENDBRANCH   1  16
TORSDOF 5
ENDMDL
MODEL 8
REMARK VINA RESULT:      -6.1      1.385      1.620
REMARK  Name = 
REMARK  6 active torsions:
REMARK  status: ('A' for Active; 'I' for Inactive)
REMARK    1  A    between atoms: C_1  and  O_2
REMARK    2  A    between atoms: O_2  and  C_3
REMARK    3  A    between atoms: C_3  and  C_4
REMARK    4  A    between atoms: C_4  and  S_5
REMARK    5  A    between atoms: S_5  and  C_6
REMARK    6  A    between atoms: C_11  and  C_13
REMARK                            x       y       z     vdW  Elec       q    Type
REMARK                         _______ _______ _______ _____ _____    ______ ____
ROOT
ATOM      1  C   UNL     1       6.732   4.393  14.164  0.00  0.00    +0.000 A 
ATOM      2  N   UNL     1       7.632   5.041  14.871  0.00  0.00    +0.000 NA
ATOM      3  N   UNL     1       7.313   5.056  16.217  0.00  0.00    +0.000 NA
ATOM      4  C   UNL     1       6.165   4.465  16.460  0.00  0.00    +0.000 A 
ATOM      5  N   UNL     1       5.675   4.297  17.735  0.00  0.00    +0.000 N 
ATOM      6  C   UNL     1       4.385   3.930  18.056  0.00  0.00    +0.000 C 
ATOM      7  O   UNL     1       3.474   3.780  17.246  0.00  0.00    +0.000 OA
ATOM      8  S   UNL     1       5.400   3.826  15.074  0.00  0.00    +0.000 S 
ATOM      9  H   UNL     1       6.306   4.608  18.458  0.00  0.00    +0.000 HD
ENDROOT
BRANCH   6  10
ATOM     10  C   UNL     1       4.141   3.794  19.571  0.00  0.00    +0.000 C 
ATOM     11  C   UNL     1       3.243   4.931  20.096  0.00  0.00    +0.000 C 
ATOM     12  C   UNL     1       1.775   4.768  19.693  0.00  0.00    +0.000 C 
ATOM     13  C   UNL     1       1.230   3.394  20.065  0.00  0.00    +0.000 C 
ATOM     14  C   UNL     1       2.107   2.267  19.531  0.00  0.00    +0.000 C 
ATOM     15  C   UNL     1       3.564   2.431  19.960  0.00  0.00    +0.000 C 
ENDBRANCH   6  10
BRANCH   1  16
ATOM     16  S   UNL     1       6.887   4.115  12.447  0.00  0.00    +0.000 S 
BRANCH  16  17
ATOM     17  C   UNL     1       5.157   3.764  12.002  0.00  0.00    +0.000 C 
BRANCH  17  18
ATOM     18  C   UNL     1       5.048   2.349  11.439  0.00  0.00    +0.000 C 
BRANCH  18  20
ATOM     19  C   UNL     1       6.249   0.337  11.190  0.00  0.00    +0.000 C 
ATOM     20  O   UNL     1       6.341   1.738  11.428  0.00  0.00    +0.000 OA
ENDBRANCH  18  20
ENDBRANCH  17  18
ENDBRANCH  16  17
ENDBRANCH   1  16
TORSDOF 5
ENDMDL
MODEL 9
REMARK VINA RESULT:      -6.0      4.998      8.040
REMARK  Name = 
REMARK  6 active torsions:
REMARK  status: ('A' for Active; 'I' for Inactive)
REMARK    1  A    between atoms: C_1  and  O_2
REMARK    2  A    between atoms: O_2  and  C_3
REMARK    3  A    between atoms: C_3  and  C_4
REMARK    4  A    between atoms: C_4  and  S_5
REMARK    5  A    between atoms: S_5  and  C_6
REMARK    6  A    between atoms: C_11  and  C_13
REMARK                            x       y       z     vdW  Elec       q    Type
REMARK                         _______ _______ _______ _____ _____    ______ ____
ROOT
ATOM      1  C   UNL     1       1.295  10.043  18.864  0.00  0.00    +0.000 A 
ATOM      2  N   UNL     1       1.938  10.127  17.720  0.00  0.00    +0.000 NA
ATOM      3  N   UNL     1       2.505   8.917  17.359  0.00  0.00    +0.000 NA
ATOM      4  C   UNL     1       2.308   7.989  18.269  0.00  0.00    +0.000 A 
ATOM      5  N   UNL     1       2.722   6.688  18.098  0.00  0.00    +0.000 N 
ATOM      6  C   UNL     1       2.789   5.732  19.090  0.00  0.00    +0.000 C 
ATOM      7  O   UNL     1       2.563   5.935  20.280  0.00  0.00    +0.000 OA
ATOM      8  S   UNL     1       1.401   8.512  19.619  0.00  0.00    +0.000 S 
ATOM      9  H   UNL     1       3.124   6.503  17.192  0.00  0.00    +0.000 HD
ENDROOT
BRANCH   6  10
ATOM     10  C   UNL     1       3.262   4.354  18.588  0.00  0.00    +0.000 C 
ATOM     11  C   UNL     1       3.697   3.453  19.759  0.00  0.00    +0.000 C 
ATOM     12  C   UNL     1       2.515   2.917  20.573  0.00  0.00    +0.000 C 
ATOM     13  C   UNL     1       1.474   2.240  19.689  0.00  0.00    +0.000 C 
ATOM     14  C   UNL     1       1.030   3.137  18.540  0.00  0.00    +0.000 C 
ATOM     15  C   UNL     1       2.217   3.645  17.724  0.00  0.00    +0.000 C 
ENDBRANCH   6  10
BRANCH   1  16
ATOM     16  S   UNL     1       0.393  11.371  19.552  0.00  0.00    +0.000 S 
BRANCH  16  17
ATOM     17  C   UNL     1       0.651  11.073  21.329  0.00  0.00    +0.000 C 
BRANCH  17  18
ATOM     18  C   UNL     1      -0.542  11.608  22.118  0.00  0.00    +0.000 C 
BRANCH  18  20
ATOM     19  C   UNL     1      -0.140   9.535  23.164  0.00  0.00    +0.000 C 
ATOM     20  O   UNL     1      -0.717  10.830  23.304  0.00  0.00    +0.000 OA
ENDBRANCH  18  20
ENDBRANCH  17  18
ENDBRANCH  16  17
ENDBRANCH   1  16
TORSDOF 5
ENDMDL
