MODEL 1
REMARK VINA RESULT:      -7.9      0.000      0.000
REMARK  Name = 
REMARK  1 active torsions:
REMARK  status: ('A' for Active; 'I' for Inactive)
REMARK    1  A    between atoms: C_1  and  C_2
REMARK                            x       y       z     vdW  Elec       q    Type
REMARK                         _______ _______ _______ _____ _____    ______ ____
ROOT
ATOM      1  C   UNL     1       6.566   6.449  18.488  0.00  0.00    +0.000 C 
ATOM      2  C   UNL     1       5.320   5.719  17.873  0.00  0.00    +0.000 C 
ATOM      3  C   UNL     1       4.746   6.659  16.820  0.00  0.00    +0.000 C 
ATOM      4  C   UNL     1       3.954   7.817  17.377  0.00  0.00    +0.000 C 
ATOM      5  C   UNL     1       2.758   7.290  18.171  0.00  0.00    +0.000 C 
ATOM      6  C   UNL     1       1.918   8.469  18.676  0.00  0.00    +0.000 A 
ATOM      7  C   UNL     1       1.738   9.624  17.882  0.00  0.00    +0.000 A 
ATOM      8  C   UNL     1       1.164  10.779  18.404  0.00  0.00    +0.000 A 
ATOM      9  C   UNL     1       0.704  10.785  19.714  0.00  0.00    +0.000 A 
ATOM     10  C   UNL     1       0.782   9.620  20.482  0.00  0.00    +0.000 A 
ATOM     11  C   UNL     1       1.365   8.448  19.970  0.00  0.00    +0.000 A 
ATOM     12  C   UNL     1       1.458   7.223  20.861  0.00  0.00    +0.000 C 
ATOM     13  C   UNL     1       2.044   5.969  20.172  0.00  0.00    +0.000 C 
ATOM     14  C   UNL     1       3.257   6.415  19.361  0.00  0.00    +0.000 C 
ATOM     15  C   UNL     1       4.417   5.409  19.109  0.00  0.00    +0.000 C 
ATOM     16  C   UNL     1       4.476   3.878  19.301  0.00  0.00    +0.000 C 
ATOM     17  C   UNL     1       5.786   3.486  18.556  0.00  0.00    +0.000 C 
ATOM     18  C   UNL     1       5.674   4.303  17.251  0.00  0.00    +0.000 C 
ATOM     19  C   UNL     1       4.662   3.509  16.385  0.00  0.00    +0.000 C 
ATOM     20  C   UNL     1       4.482   3.968  14.961  0.00  0.00    +0.000 C 
ATOM     21  C   UNL     1       5.770   4.441  14.330  0.00  0.00    +0.000 C 
ATOM     22  C   UNL     1       6.888   4.873  15.250  0.00  0.00    +0.000 C 
ATOM     23  O   UNL     1       7.823   5.549  14.823  0.00  0.00    +0.000 OA
ATOM     24  O   UNL     1       6.907   4.374  16.517  0.00  0.00    +0.000 OA
ENDROOT
TORSDOF 0
ENDMDL
MODEL 2
REMARK VINA RESULT:      -7.0      2.007      3.910
REMARK  Name = 
REMARK  1 active torsions:
REMARK  status: ('A' for Active; 'I' for Inactive)
REMARK    1  A    between atoms: C_1  and  C_2
REMARK                            x       y       z     vdW  Elec       q    Type
REMARK                         _______ _______ _______ _____ _____    ______ ____
ROOT
ATOM      1  C   UNL     1       1.393   4.335  17.490  0.00  0.00    +0.000 C 
ATOM      2  C   UNL     1       2.680   4.890  18.197  0.00  0.00    +0.000 C 
ATOM      3  C   UNL     1       2.388   4.884  19.692  0.00  0.00    +0.000 C 
ATOM      4  C   UNL     1       1.492   6.005  20.160  0.00  0.00    +0.000 C 
ATOM      5  C   UNL     1       2.152   7.352  19.863  0.00  0.00    +0.000 C 
ATOM      6  C   UNL     1       1.270   8.485  20.403  0.00  0.00    +0.000 A 
ATOM      7  C   UNL     1       0.565   8.339  21.618  0.00  0.00    +0.000 A 
ATOM      8  C   UNL     1      -0.398   9.263  22.013  0.00  0.00    +0.000 A 
ATOM      9  C   UNL     1      -0.635  10.384  21.228  0.00  0.00    +0.000 A 
ATOM     10  C   UNL     1       0.124  10.596  20.074  0.00  0.00    +0.000 A 
ATOM     11  C   UNL     1       1.097   9.668  19.660  0.00  0.00    +0.000 A 
ATOM     12  C   UNL     1       1.865   9.930  18.379  0.00  0.00    +0.000 C 
ATOM     13  C   UNL     1       2.962   8.888  18.062  0.00  0.00    +0.000 C 
ATOM     14  C   UNL     1       2.372   7.505  18.327  0.00  0.00    +0.000 C 
ATOM     15  C   UNL     1       2.906   6.282  17.527  0.00  0.00    +0.000 C 
ATOM     16  C   UNL     1       4.170   6.131  16.653  0.00  0.00    +0.000 C 
ATOM     17  C   UNL     1       4.260   4.590  16.441  0.00  0.00    +0.000 C 
ATOM     18  C   UNL     1       3.984   4.050  17.860  0.00  0.00    +0.000 C 
ATOM     19  C   UNL     1       5.318   4.263  18.621  0.00  0.00    +0.000 C 
ATOM     20  C   UNL     1       5.416   3.660  19.998  0.00  0.00    +0.000 C 
ATOM     21  C   UNL     1       4.720   2.324  20.105  0.00  0.00    +0.000 C 
ATOM     22  C   UNL     1       3.648   2.005  19.089  0.00  0.00    +0.000 C 
ATOM     23  O   UNL     1       2.842   1.100  19.295  0.00  0.00    +0.000 OA
ATOM     24  O   UNL     1       3.692   2.644  17.887  0.00  0.00    +0.000 OA
ENDROOT
TORSDOF 0
ENDMDL
MODEL 3
REMARK VINA RESULT:      -6.9      3.835      7.694
REMARK  Name = 
REMARK  1 active torsions:
REMARK  status: ('A' for Active; 'I' for Inactive)
REMARK    1  A    between atoms: C_1  and  C_2
REMARK                            x       y       z     vdW  Elec       q    Type
REMARK                         _______ _______ _______ _____ _____    ______ ____
ROOT
ATOM      1  C   UNL     1      -1.157  10.186  18.518  0.00  0.00    +0.000 C 
ATOM      2  C   UNL     1       0.068  10.471  19.458  0.00  0.00    +0.000 C 
ATOM      3  C   UNL     1       1.289  10.584  18.554  0.00  0.00    +0.000 C 
ATOM      4  C   UNL     1       1.819   9.264  18.049  0.00  0.00    +0.000 C 
ATOM      5  C   UNL     1       2.248   8.393  19.230  0.00  0.00    +0.000 C 
ATOM      6  C   UNL     1       2.851   7.083  18.710  0.00  0.00    +0.000 A 
ATOM      7  C   UNL     1       3.645   7.063  17.542  0.00  0.00    +0.000 A 
ATOM      8  C   UNL     1       4.019   5.866  16.940  0.00  0.00    +0.000 A 
ATOM      9  C   UNL     1       3.656   4.661  17.526  0.00  0.00    +0.000 A 
ATOM     10  C   UNL     1       2.956   4.660  18.736  0.00  0.00    +0.000 A 
ATOM     11  C   UNL     1       2.566   5.863  19.352  0.00  0.00    +0.000 A 
ATOM     12  C   UNL     1       1.775   5.804  20.645  0.00  0.00    +0.000 C 
ATOM     13  C   UNL     1       1.469   7.181  21.275  0.00  0.00    +0.000 C 
ATOM     14  C   UNL     1       1.021   8.112  20.152  0.00  0.00    +0.000 C 
ATOM     15  C   UNL     1       0.049   9.283  20.472  0.00  0.00    +0.000 C 
ATOM     16  C   UNL     1      -0.376   9.891  21.827  0.00  0.00    +0.000 C 
ATOM     17  C   UNL     1      -1.085  11.212  21.405  0.00  0.00    +0.000 C 
ATOM     18  C   UNL     1      -0.118  11.775  20.342  0.00  0.00    +0.000 C 
ATOM     19  C   UNL     1       1.047  12.384  21.165  0.00  0.00    +0.000 C 
ATOM     20  C   UNL     1       2.073  13.179  20.401  0.00  0.00    +0.000 C 
ATOM     21  C   UNL     1       1.470  13.990  19.279  0.00  0.00    +0.000 C 
ATOM     22  C   UNL     1       0.125  13.559  18.742  0.00  0.00    +0.000 C 
ATOM     23  O   UNL     1      -0.272  13.966  17.651  0.00  0.00    +0.000 OA
ATOM     24  O   UNL     1      -0.690  12.833  19.557  0.00  0.00    +0.000 OA
ENDROOT
TORSDOF 0
ENDMDL
MODEL 4
REMARK VINA RESULT:      -6.7      8.442      9.858
REMARK  Name = 
REMARK  1 active torsions:
REMARK  status: ('A' for Active; 'I' for Inactive)
REMARK    1  A    between atoms: C_1  and  C_2
REMARK                            x       y       z     vdW  Elec       q    Type
REMARK                         _______ _______ _______ _____ _____    ______ ____
ROOT
ATOM      1  C   UNL     1      10.234  16.230  17.832  0.00  0.00    +0.000 C 
ATOM      2  C   UNL     1       9.790  15.066  18.788  0.00  0.00    +0.000 C 
ATOM      3  C   UNL     1       8.877  14.161  17.970  0.00  0.00    +0.000 C 
ATOM      4  C   UNL     1       7.481  14.699  17.767  0.00  0.00    +0.000 C 
ATOM      5  C   UNL     1       6.795  14.880  19.121  0.00  0.00    +0.000 C 
ATOM      6  C   UNL     1       5.354  15.360  18.907  0.00  0.00    +0.000 A 
ATOM      7  C   UNL     1       4.583  14.878  17.826  0.00  0.00    +0.000 A 
ATOM      8  C   UNL     1       3.361  15.455  17.492  0.00  0.00    +0.000 A 
ATOM      9  C   UNL     1       2.857  16.489  18.270  0.00  0.00    +0.000 A 
ATOM     10  C   UNL     1       3.558  16.912  19.402  0.00  0.00    +0.000 A 
ATOM     11  C   UNL     1       4.797  16.341  19.747  0.00  0.00    +0.000 A 
ATOM     12  C   UNL     1       5.533  16.864  20.966  0.00  0.00    +0.000 C 
ATOM     13  C   UNL     1       6.843  16.114  21.298  0.00  0.00    +0.000 C 
ATOM     14  C   UNL     1       7.595  15.901  19.987  0.00  0.00    +0.000 C 
ATOM     15  C   UNL     1       9.148  15.803  20.005  0.00  0.00    +0.000 C 
ATOM     16  C   UNL     1      10.126  15.603  21.184  0.00  0.00    +0.000 C 
ATOM     17  C   UNL     1      11.467  15.267  20.466  0.00  0.00    +0.000 C 
ATOM     18  C   UNL     1      11.015  14.257  19.390  0.00  0.00    +0.000 C 
ATOM     19  C   UNL     1      10.821  12.928  20.165  0.00  0.00    +0.000 C 
ATOM     20  C   UNL     1      10.552  11.696  19.341  0.00  0.00    +0.000 C 
ATOM     21  C   UNL     1      11.325  11.678  18.043  0.00  0.00    +0.000 C 
ATOM     22  C   UNL     1      11.821  12.999  17.500  0.00  0.00    +0.000 C 
ATOM     23  O   UNL     1      12.172  13.100  16.326  0.00  0.00    +0.000 OA
ATOM     24  O   UNL     1      12.007  14.025  18.377  0.00  0.00    +0.000 OA
ENDROOT
TORSDOF 0
ENDMDL
MODEL 5
REMARK VINA RESULT:      -6.7      8.803     12.663
REMARK  Name = 
REMARK  1 active torsions:
REMARK  status: ('A' for Active; 'I' for Inactive)
REMARK    1  A    between atoms: C_1  and  C_2
REMARK                            x       y       z     vdW  Elec       q    Type
REMARK                         _______ _______ _______ _____ _____    ______ ____
ROOT
ATOM      1  C   UNL     1      -3.806  15.547  21.143  0.00  0.00    +0.000 C 
ATOM      2  C   UNL     1      -4.540  14.233  21.590  0.00  0.00    +0.000 C 
ATOM      3  C   UNL     1      -3.473  13.147  21.662  0.00  0.00    +0.000 C 
ATOM      4  C   UNL     1      -3.040  12.604  20.322  0.00  0.00    +0.000 C 
ATOM      5  C   UNL     1      -4.237  11.974  19.609  0.00  0.00    +0.000 C 
ATOM      6  C   UNL     1      -3.779  11.361  18.280  0.00  0.00    +0.000 A 
ATOM      7  C   UNL     1      -2.524  10.723  18.171  0.00  0.00    +0.000 A 
ATOM      8  C   UNL     1      -2.003  10.353  16.934  0.00  0.00    +0.000 A 
ATOM      9  C   UNL     1      -2.754  10.562  15.785  0.00  0.00    +0.000 A 
ATOM     10  C   UNL     1      -4.040  11.101  15.884  0.00  0.00    +0.000 A 
ATOM     11  C   UNL     1      -4.575  11.484  17.126  0.00  0.00    +0.000 A 
ATOM     12  C   UNL     1      -5.962  12.098  17.171  0.00  0.00    +0.000 C 
ATOM     13  C   UNL     1      -6.482  12.408  18.593  0.00  0.00    +0.000 C 
ATOM     14  C   UNL     1      -5.338  13.053  19.371  0.00  0.00    +0.000 C 
ATOM     15  C   UNL     1      -5.664  14.048  20.522  0.00  0.00    +0.000 C 
ATOM     16  C   UNL     1      -6.993  14.334  21.253  0.00  0.00    +0.000 C 
ATOM     17  C   UNL     1      -6.536  15.174  22.484  0.00  0.00    +0.000 C 
ATOM     18  C   UNL     1      -5.301  14.387  22.973  0.00  0.00    +0.000 C 
ATOM     19  C   UNL     1      -5.894  13.167  23.725  0.00  0.00    +0.000 C 
ATOM     20  C   UNL     1      -4.922  12.299  24.480  0.00  0.00    +0.000 C 
ATOM     21  C   UNL     1      -3.813  13.090  25.133  0.00  0.00    +0.000 C 
ATOM     22  C   UNL     1      -3.508  14.463  24.579  0.00  0.00    +0.000 C 
ATOM     23  O   UNL     1      -2.444  15.020  24.843  0.00  0.00    +0.000 OA
ATOM     24  O   UNL     1      -4.494  15.120  23.908  0.00  0.00    +0.000 OA
ENDROOT
TORSDOF 0
ENDMDL
MODEL 6
REMARK VINA RESULT:      -6.6      9.180     10.537
REMARK  Name = 
REMARK  1 active torsions:
REMARK  status: ('A' for Active; 'I' for Inactive)
REMARK    1  A    between atoms: C_1  and  C_2
REMARK                            x       y       z     vdW  Elec       q    Type
REMARK                         _______ _______ _______ _____ _____    ______ ____
ROOT
ATOM      1  C   UNL     1      11.930  13.522  20.090  0.00  0.00    +0.000 C 
ATOM      2  C   UNL     1      10.396  13.767  19.860  0.00  0.00    +0.000 C 
ATOM      3  C   UNL     1      10.078  15.121  20.482  0.00  0.00    +0.000 C 
ATOM      4  C   UNL     1       9.983  15.112  21.989  0.00  0.00    +0.000 C 
ATOM      5  C   UNL     1       8.862  14.171  22.430  0.00  0.00    +0.000 C 
ATOM      6  C   UNL     1       8.723  14.219  23.957  0.00  0.00    +0.000 A 
ATOM      7  C   UNL     1       8.896  15.430  24.663  0.00  0.00    +0.000 A 
ATOM      8  C   UNL     1       8.985  15.453  26.051  0.00  0.00    +0.000 A 
ATOM      9  C   UNL     1       8.844  14.271  26.767  0.00  0.00    +0.000 A 
ATOM     10  C   UNL     1       8.572  13.079  26.091  0.00  0.00    +0.000 A 
ATOM     11  C   UNL     1       8.486  13.040  24.688  0.00  0.00    +0.000 A 
ATOM     12  C   UNL     1       8.226  11.711  24.004  0.00  0.00    +0.000 C 
ATOM     13  C   UNL     1       8.072  11.797  22.468  0.00  0.00    +0.000 C 
ATOM     14  C   UNL     1       9.170  12.720  21.947  0.00  0.00    +0.000 C 
ATOM     15  C   UNL     1       9.715  12.518  20.504  0.00  0.00    +0.000 C 
ATOM     16  C   UNL     1       9.155  11.689  19.328  0.00  0.00    +0.000 C 
ATOM     17  C   UNL     1       9.996  12.195  18.118  0.00  0.00    +0.000 C 
ATOM     18  C   UNL     1       9.982  13.724  18.329  0.00  0.00    +0.000 C 
ATOM     19  C   UNL     1       8.578  14.168  17.844  0.00  0.00    +0.000 C 
ATOM     20  C   UNL     1       8.329  15.651  17.758  0.00  0.00    +0.000 C 
ATOM     21  C   UNL     1       9.540  16.423  17.292  0.00  0.00    +0.000 C 
ATOM     22  C   UNL     1      10.896  15.776  17.458  0.00  0.00    +0.000 C 
ATOM     23  O   UNL     1      11.922  16.450  17.397  0.00  0.00    +0.000 OA
ATOM     24  O   UNL     1      10.954  14.417  17.530  0.00  0.00    +0.000 OA
ENDROOT
TORSDOF 0
ENDMDL
MODEL 7
REMARK VINA RESULT:      -6.6      6.432      9.089
REMARK  Name = 
REMARK  1 active torsions:
REMARK  status: ('A' for Active; 'I' for Inactive)
REMARK    1  A    between atoms: C_1  and  C_2
REMARK                            x       y       z     vdW  Elec       q    Type
REMARK                         _______ _______ _______ _____ _____    ______ ____
ROOT
ATOM      1  C   UNL     1      -0.201  11.193  21.556  0.00  0.00    +0.000 C 
ATOM      2  C   UNL     1      -0.184  11.911  20.159  0.00  0.00    +0.000 C 
ATOM      3  C   UNL     1      -1.068  13.144  20.298  0.00  0.00    +0.000 C 
ATOM      4  C   UNL     1      -2.550  12.858  20.277  0.00  0.00    +0.000 C 
ATOM      5  C   UNL     1      -2.933  12.210  18.946  0.00  0.00    +0.000 C 
ATOM      6  C   UNL     1      -4.449  11.986  18.902  0.00  0.00    +0.000 A 
ATOM      7  C   UNL     1      -5.338  12.927  19.468  0.00  0.00    +0.000 A 
ATOM      8  C   UNL     1      -6.691  12.642  19.626  0.00  0.00    +0.000 A 
ATOM      9  C   UNL     1      -7.194  11.431  19.168  0.00  0.00    +0.000 A 
ATOM     10  C   UNL     1      -6.349  10.530  18.515  0.00  0.00    +0.000 A 
ATOM     11  C   UNL     1      -4.979  10.803  18.353  0.00  0.00    +0.000 A 
ATOM     12  C   UNL     1      -4.100   9.773  17.670  0.00  0.00    +0.000 C 
ATOM     13  C   UNL     1      -2.630  10.209  17.475  0.00  0.00    +0.000 C 
ATOM     14  C   UNL     1      -2.168  10.862  18.775  0.00  0.00    +0.000 C 
ATOM     15  C   UNL     1      -0.662  10.807  19.163  0.00  0.00    +0.000 C 
ATOM     16  C   UNL     1       0.577  10.431  18.322  0.00  0.00    +0.000 C 
ATOM     17  C   UNL     1       1.759  10.908  19.218  0.00  0.00    +0.000 C 
ATOM     18  C   UNL     1       1.278  12.299  19.679  0.00  0.00    +0.000 C 
ATOM     19  C   UNL     1       1.523  13.218  18.454  0.00  0.00    +0.000 C 
ATOM     20  C   UNL     1       1.316  14.695  18.663  0.00  0.00    +0.000 C 
ATOM     21  C   UNL     1       1.762  15.164  20.027  0.00  0.00    +0.000 C 
ATOM     22  C   UNL     1       1.860  14.133  21.129  0.00  0.00    +0.000 C 
ATOM     23  O   UNL     1       1.909  14.481  22.307  0.00  0.00    +0.000 OA
ATOM     24  O   UNL     1       2.039  12.830  20.775  0.00  0.00    +0.000 OA
ENDROOT
TORSDOF 0
ENDMDL
MODEL 8
REMARK VINA RESULT:      -6.6      9.221     11.707
REMARK  Name = 
REMARK  1 active torsions:
REMARK  status: ('A' for Active; 'I' for Inactive)
REMARK    1  A    between atoms: C_1  and  C_2
REMARK                            x       y       z     vdW  Elec       q    Type
REMARK                         _______ _______ _______ _____ _____    ______ ____
ROOT
ATOM      1  C   UNL     1       6.601  14.921  22.033  0.00  0.00    +0.000 C 
ATOM      2  C   UNL     1       7.686  14.183  22.895  0.00  0.00    +0.000 C 
ATOM      3  C   UNL     1       8.975  14.980  22.740  0.00  0.00    +0.000 C 
ATOM      4  C   UNL     1       9.689  14.768  21.427  0.00  0.00    +0.000 C 
ATOM      5  C   UNL     1      10.081  13.298  21.283  0.00  0.00    +0.000 C 
ATOM      6  C   UNL     1      10.867  13.101  19.981  0.00  0.00    +0.000 A 
ATOM      7  C   UNL     1      11.775  14.083  19.527  0.00  0.00    +0.000 A 
ATOM      8  C   UNL     1      12.332  14.022  18.253  0.00  0.00    +0.000 A 
ATOM      9  C   UNL     1      12.037  12.945  17.427  0.00  0.00    +0.000 A 
ATOM     10  C   UNL     1      11.220  11.913  17.897  0.00  0.00    +0.000 A 
ATOM     11  C   UNL     1      10.646  11.965  19.180  0.00  0.00    +0.000 A 
ATOM     12  C   UNL     1       9.736  10.835  19.625  0.00  0.00    +0.000 C 
ATOM     13  C   UNL     1       9.225  10.956  21.078  0.00  0.00    +0.000 C 
ATOM     14  C   UNL     1       8.802  12.406  21.299  0.00  0.00    +0.000 C 
ATOM     15  C   UNL     1       7.685  12.726  22.333  0.00  0.00    +0.000 C 
ATOM     16  C   UNL     1       7.062  11.847  23.440  0.00  0.00    +0.000 C 
ATOM     17  C   UNL     1       6.267  12.879  24.293  0.00  0.00    +0.000 C 
ATOM     18  C   UNL     1       7.275  14.041  24.421  0.00  0.00    +0.000 C 
ATOM     19  C   UNL     1       8.279  13.563  25.502  0.00  0.00    +0.000 C 
ATOM     20  C   UNL     1       9.291  14.572  25.980  0.00  0.00    +0.000 C 
ATOM     21  C   UNL     1       8.726  15.969  26.075  0.00  0.00    +0.000 C 
ATOM     22  C   UNL     1       7.496  16.289  25.258  0.00  0.00    +0.000 C 
ATOM     23  O   UNL     1       7.174  17.456  25.044  0.00  0.00    +0.000 OA
ATOM     24  O   UNL     1       6.681  15.260  24.893  0.00  0.00    +0.000 OA
ENDROOT
TORSDOF 0
ENDMDL
MODEL 9
REMARK VINA RESULT:      -6.6      8.226     12.075
REMARK  Name = 
REMARK  1 active torsions:
REMARK  status: ('A' for Active; 'I' for Inactive)
REMARK    1  A    between atoms: C_1  and  C_2
REMARK                            x       y       z     vdW  Elec       q    Type
REMARK                         _______ _______ _______ _____ _____    ______ ____
ROOT
ATOM      1  C   UNL     1      -3.772  12.373  23.494  0.00  0.00    +0.000 C 
ATOM      2  C   UNL     1      -3.208  13.554  22.627  0.00  0.00    +0.000 C 
ATOM      3  C   UNL     1      -4.164  13.722  21.452  0.00  0.00    +0.000 C 
ATOM      4  C   UNL     1      -4.012  12.683  20.368  0.00  0.00    +0.000 C 
ATOM      5  C   UNL     1      -2.603  12.753  19.779  0.00  0.00    +0.000 C 
ATOM      6  C   UNL     1      -2.476  11.744  18.631  0.00  0.00    +0.000 A 
ATOM      7  C   UNL     1      -3.556  11.505  17.753  0.00  0.00    +0.000 A 
ATOM      8  C   UNL     1      -3.533  10.450  16.846  0.00  0.00    +0.000 A 
ATOM      9  C   UNL     1      -2.404   9.646  16.759  0.00  0.00    +0.000 A 
ATOM     10  C   UNL     1      -1.287   9.929  17.549  0.00  0.00    +0.000 A 
ATOM     11  C   UNL     1      -1.298  10.989  18.473  0.00  0.00    +0.000 A 
ATOM     12  C   UNL     1      -0.071  11.228  19.333  0.00  0.00    +0.000 C 
ATOM     13  C   UNL     1      -0.164  12.465  20.255  0.00  0.00    +0.000 C 
ATOM     14  C   UNL     1      -1.550  12.461  20.893  0.00  0.00    +0.000 C 
ATOM     15  C   UNL     1      -1.749  13.112  22.292  0.00  0.00    +0.000 C 
ATOM     16  C   UNL     1      -0.827  14.049  23.101  0.00  0.00    +0.000 C 
ATOM     17  C   UNL     1      -1.768  14.572  24.227  0.00  0.00    +0.000 C 
ATOM     18  C   UNL     1      -3.056  14.906  23.444  0.00  0.00    +0.000 C 
ATOM     19  C   UNL     1      -2.745  16.257  22.748  0.00  0.00    +0.000 C 
ATOM     20  C   UNL     1      -3.892  16.937  22.046  0.00  0.00    +0.000 C 
ATOM     21  C   UNL     1      -5.204  16.776  22.776  0.00  0.00    +0.000 C 
ATOM     22  C   UNL     1      -5.336  15.623  23.744  0.00  0.00    +0.000 C 
ATOM     23  O   UNL     1      -6.444  15.252  24.126  0.00  0.00    +0.000 OA
ATOM     24  O   UNL     1      -4.199  15.109  24.290  0.00  0.00    +0.000 OA
ENDROOT
TORSDOF 0
ENDMDL
