MODEL 1
REMARK VINA RESULT:      -9.0      0.000      0.000
REMARK  Name = 
REMARK  5 active torsions:
REMARK  status: ('A' for Active; 'I' for Inactive)
REMARK    1  A    between atoms: C_2  and  C_20
REMARK    2  A    between atoms: C_7  and  C_8
REMARK    3  A    between atoms: C_8  and  C_9
REMARK    4  A    between atoms: C_9  and  S_10
REMARK    5  A    between atoms: S_10  and  C_13
REMARK                            x       y       z     vdW  Elec       q    Type
REMARK                         _______ _______ _______ _____ _____    ______ ____
ROOT
ATOM      1  O   UNL     1       2.196   5.486  19.392  0.00  0.00    +0.000 OA
ATOM      2  C   UNL     1       2.908   5.778  18.434  0.00  0.00    +0.000 C 
ATOM      3  N   UNL     1       2.917   7.000  17.799  0.00  0.00    +0.000 N 
ATOM      4  C   UNL     1       2.222   8.084  18.251  0.00  0.00    +0.000 A 
ATOM      5  N   UNL     1       1.968   9.184  17.573  0.00  0.00    +0.000 NA
ATOM      6  N   UNL     1       1.263  10.017  18.418  0.00  0.00    +0.000 NA
ATOM      7  C   UNL     1       1.176   9.385  19.570  0.00  0.00    +0.000 A 
ATOM      8  O   UNL     1       1.756   8.144  19.536  0.00  0.00    +0.000 OA
ATOM      9  H   UNL     1       3.388   7.108  16.911  0.00  0.00    +0.000 HD
ENDROOT
BRANCH   2  10
ATOM     10  C   UNL     1       3.778   4.719  17.723  0.00  0.00    +0.000 C 
ATOM     11  C   UNL     1       4.420   3.728  18.695  0.00  0.00    +0.000 C 
ATOM     12  O   UNL     1       5.574   4.223  19.381  0.00  0.00    +0.000 OA
ATOM     13  C   UNL     1       6.255   5.194  18.705  0.00  0.00    +0.000 A 
ATOM     14  C   UNL     1       7.409   5.683  19.316  0.00  0.00    +0.000 A 
ATOM     15  C   UNL     1       8.111   6.742  18.737  0.00  0.00    +0.000 A 
ATOM     16  C   UNL     1       7.665   7.303  17.540  0.00  0.00    +0.000 A 
ATOM     17  C   UNL     1       6.538   6.783  16.905  0.00  0.00    +0.000 A 
ATOM     18  C   UNL     1       5.835   5.733  17.491  0.00  0.00    +0.000 A 
ATOM     19  O   UNL     1       4.723   5.297  16.824  0.00  0.00    +0.000 OA
ENDBRANCH   2  10
BRANCH   7  20
ATOM     20  C   UNL     1       0.598   9.844  20.857  0.00  0.00    +0.000 C 
BRANCH  20  21
ATOM     21  C   UNL     1      -0.408  10.973  20.660  0.00  0.00    +0.000 C 
BRANCH  21  22
ATOM     22  S   UNL     1      -0.634  11.868  22.188  0.00  0.00    +0.000 S 
ATOM     23  O   UNL     1      -0.494  10.925  23.284  0.00  0.00    +0.000 OA
ATOM     24  O   UNL     1       0.170  13.065  22.131  0.00  0.00    +0.000 OA
BRANCH  22  25
ATOM     25  C   UNL     1      -2.348  12.379  22.152  0.00  0.00    +0.000 A 
ATOM     26  C   UNL     1      -2.931  12.692  20.920  0.00  0.00    +0.000 A 
ATOM     27  C   UNL     1      -4.270  13.079  20.864  0.00  0.00    +0.000 A 
ATOM     28  C   UNL     1      -5.028  13.140  22.033  0.00  0.00    +0.000 A 
ATOM     29  C   UNL     1      -4.455  12.794  23.259  0.00  0.00    +0.000 A 
ATOM     30  C   UNL     1      -3.112  12.403  23.324  0.00  0.00    +0.000 A 
ENDBRANCH  22  25
ENDBRANCH  21  22
ENDBRANCH  20  21
ENDBRANCH   7  20
TORSDOF 5
ENDMDL
MODEL 2
REMARK VINA RESULT:      -8.8      2.039      2.659
REMARK  Name = 
REMARK  5 active torsions:
REMARK  status: ('A' for Active; 'I' for Inactive)
REMARK    1  A    between atoms: C_2  and  C_20
REMARK    2  A    between atoms: C_7  and  C_8
REMARK    3  A    between atoms: C_8  and  C_9
REMARK    4  A    between atoms: C_9  and  S_10
REMARK    5  A    between atoms: S_10  and  C_13
REMARK                            x       y       z     vdW  Elec       q    Type
REMARK                         _______ _______ _______ _____ _____    ______ ____
ROOT
ATOM      1  O   UNL     1       2.048   5.660  19.573  0.00  0.00    +0.000 OA
ATOM      2  C   UNL     1       2.817   5.807  18.625  0.00  0.00    +0.000 C 
ATOM      3  N   UNL     1       2.950   6.960  17.885  0.00  0.00    +0.000 N 
ATOM      4  C   UNL     1       2.328   8.132  18.206  0.00  0.00    +0.000 A 
ATOM      5  N   UNL     1       2.190   9.181  17.423  0.00  0.00    +0.000 NA
ATOM      6  N   UNL     1       1.524  10.140  18.157  0.00  0.00    +0.000 NA
ATOM      7  C   UNL     1       1.343   9.627  19.356  0.00  0.00    +0.000 A 
ATOM      8  O   UNL     1       1.821   8.346  19.459  0.00  0.00    +0.000 OA
ATOM      9  H   UNL     1       3.461   6.949  17.012  0.00  0.00    +0.000 HD
ENDROOT
BRANCH   2  10
ATOM     10  C   UNL     1       3.625   4.622  18.051  0.00  0.00    +0.000 C 
ATOM     11  C   UNL     1       4.262   3.755  19.138  0.00  0.00    +0.000 C 
ATOM     12  O   UNL     1       5.454   4.296  19.714  0.00  0.00    +0.000 OA
ATOM     13  C   UNL     1       6.148   5.131  18.888  0.00  0.00    +0.000 A 
ATOM     14  C   UNL     1       7.339   5.655  19.390  0.00  0.00    +0.000 A 
ATOM     15  C   UNL     1       8.059   6.591  18.646  0.00  0.00    +0.000 A 
ATOM     16  C   UNL     1       7.596   6.993  17.393  0.00  0.00    +0.000 A 
ATOM     17  C   UNL     1       6.431   6.434  16.870  0.00  0.00    +0.000 A 
ATOM     18  C   UNL     1       5.709   5.508  17.620  0.00  0.00    +0.000 A 
ATOM     19  O   UNL     1       4.560   5.026  17.053  0.00  0.00    +0.000 OA
ENDBRANCH   2  10
BRANCH   7  20
ATOM     20  C   UNL     1       0.756  10.246  20.570  0.00  0.00    +0.000 C 
BRANCH  20  21
ATOM     21  C   UNL     1      -0.767  10.175  20.567  0.00  0.00    +0.000 C 
BRANCH  21  22
ATOM     22  S   UNL     1      -1.453  11.706  19.957  0.00  0.00    +0.000 S 
ATOM     23  O   UNL     1      -2.416  12.185  20.933  0.00  0.00    +0.000 OA
ATOM     24  O   UNL     1      -0.362  12.542  19.517  0.00  0.00    +0.000 OA
BRANCH  22  25
ATOM     25  C   UNL     1      -2.376  11.228  18.502  0.00  0.00    +0.000 A 
ATOM     26  C   UNL     1      -3.656  11.759  18.312  0.00  0.00    +0.000 A 
ATOM     27  C   UNL     1      -4.390  11.412  17.178  0.00  0.00    +0.000 A 
ATOM     28  C   UNL     1      -3.841  10.550  16.229  0.00  0.00    +0.000 A 
ATOM     29  C   UNL     1      -2.550  10.048  16.401  0.00  0.00    +0.000 A 
ATOM     30  C   UNL     1      -1.806  10.391  17.536  0.00  0.00    +0.000 A 
ENDBRANCH  22  25
ENDBRANCH  21  22
ENDBRANCH  20  21
ENDBRANCH   7  20
TORSDOF 5
ENDMDL
MODEL 3
REMARK VINA RESULT:      -8.7      2.390      3.136
REMARK  Name = 
REMARK  5 active torsions:
REMARK  status: ('A' for Active; 'I' for Inactive)
REMARK    1  A    between atoms: C_2  and  C_20
REMARK    2  A    between atoms: C_7  and  C_8
REMARK    3  A    between atoms: C_8  and  C_9
REMARK    4  A    between atoms: C_9  and  S_10
REMARK    5  A    between atoms: S_10  and  C_13
REMARK                            x       y       z     vdW  Elec       q    Type
REMARK                         _______ _______ _______ _____ _____    ______ ____
ROOT
ATOM      1  O   UNL     1       2.712   8.322  17.995  0.00  0.00    +0.000 OA
ATOM      2  C   UNL     1       2.484   7.274  18.595  0.00  0.00    +0.000 C 
ATOM      3  N   UNL     1       2.027   7.187  19.891  0.00  0.00    +0.000 N 
ATOM      4  C   UNL     1       1.645   8.273  20.624  0.00  0.00    +0.000 A 
ATOM      5  N   UNL     1       1.456   8.305  21.927  0.00  0.00    +0.000 NA
ATOM      6  N   UNL     1       1.057   9.589  22.239  0.00  0.00    +0.000 NA
ATOM      7  C   UNL     1       0.985  10.239  21.097  0.00  0.00    +0.000 A 
ATOM      8  O   UNL     1       1.354   9.468  20.025  0.00  0.00    +0.000 OA
ATOM      9  H   UNL     1       2.039   6.300  20.376  0.00  0.00    +0.000 HD
ENDROOT
BRANCH   2  10
ATOM     10  C   UNL     1       2.848   5.901  17.988  0.00  0.00    +0.000 C 
ATOM     11  C   UNL     1       3.112   4.833  19.050  0.00  0.00    +0.000 C 
ATOM     12  O   UNL     1       4.401   4.908  19.667  0.00  0.00    +0.000 OA
ATOM     13  C   UNL     1       5.365   5.476  18.886  0.00  0.00    +0.000 A 
ATOM     14  C   UNL     1       6.648   5.538  19.429  0.00  0.00    +0.000 A 
ATOM     15  C   UNL     1       7.670   6.189  18.735  0.00  0.00    +0.000 A 
ATOM     16  C   UNL     1       7.411   6.766  17.492  0.00  0.00    +0.000 A 
ATOM     17  C   UNL     1       6.141   6.663  16.928  0.00  0.00    +0.000 A 
ATOM     18  C   UNL     1       5.121   6.022  17.628  0.00  0.00    +0.000 A 
ATOM     19  O   UNL     1       3.894   5.987  17.023  0.00  0.00    +0.000 OA
ENDBRANCH   2  10
BRANCH   7  20
ATOM     20  C   UNL     1       0.529  11.626  20.827  0.00  0.00    +0.000 C 
BRANCH  20  21
ATOM     21  C   UNL     1      -0.953  11.809  21.135  0.00  0.00    +0.000 C 
BRANCH  21  22
ATOM     22  S   UNL     1      -1.723  12.812  19.874  0.00  0.00    +0.000 S 
ATOM     23  O   UNL     1      -2.896  13.439  20.456  0.00  0.00    +0.000 OA
ATOM     24  O   UNL     1      -0.695  13.602  19.240  0.00  0.00    +0.000 OA
BRANCH  22  25
ATOM     25  C   UNL     1      -2.305  11.631  18.664  0.00  0.00    +0.000 A 
ATOM     26  C   UNL     1      -3.669  11.605  18.351  0.00  0.00    +0.000 A 
ATOM     27  C   UNL     1      -4.144  10.702  17.400  0.00  0.00    +0.000 A 
ATOM     28  C   UNL     1      -3.261   9.838  16.754  0.00  0.00    +0.000 A 
ATOM     29  C   UNL     1      -1.895   9.887  17.043  0.00  0.00    +0.000 A 
ATOM     30  C   UNL     1      -1.409  10.791  17.995  0.00  0.00    +0.000 A 
ENDBRANCH  22  25
ENDBRANCH  21  22
ENDBRANCH  20  21
ENDBRANCH   7  20
TORSDOF 5
ENDMDL
MODEL 4
REMARK VINA RESULT:      -8.7      1.080      1.445
REMARK  Name = 
REMARK  5 active torsions:
REMARK  status: ('A' for Active; 'I' for Inactive)
REMARK    1  A    between atoms: C_2  and  C_20
REMARK    2  A    between atoms: C_7  and  C_8
REMARK    3  A    between atoms: C_8  and  C_9
REMARK    4  A    between atoms: C_9  and  S_10
REMARK    5  A    between atoms: S_10  and  C_13
REMARK                            x       y       z     vdW  Elec       q    Type
REMARK                         _______ _______ _______ _____ _____    ______ ____
ROOT
ATOM      1  O   UNL     1       2.510   5.637  19.896  0.00  0.00    +0.000 OA
ATOM      2  C   UNL     1       2.915   5.930  18.773  0.00  0.00    +0.000 C 
ATOM      3  N   UNL     1       2.614   7.094  18.102  0.00  0.00    +0.000 N 
ATOM      4  C   UNL     1       1.926   8.128  18.668  0.00  0.00    +0.000 A 
ATOM      5  N   UNL     1       1.376   9.140  18.030  0.00  0.00    +0.000 NA
ATOM      6  N   UNL     1       0.810   9.955  18.989  0.00  0.00    +0.000 NA
ATOM      7  C   UNL     1       1.096   9.407  20.152  0.00  0.00    +0.000 A 
ATOM      8  O   UNL     1       1.797   8.236  20.026  0.00  0.00    +0.000 OA
ATOM      9  H   UNL     1       2.828   7.184  17.118  0.00  0.00    +0.000 HD
ENDROOT
BRANCH   2  10
ATOM     10  C   UNL     1       3.702   4.920  17.910  0.00  0.00    +0.000 C 
ATOM     11  C   UNL     1       4.402   3.845  18.743  0.00  0.00    +0.000 C 
ATOM     12  O   UNL     1       5.619   4.269  19.366  0.00  0.00    +0.000 OA
ATOM     13  C   UNL     1       6.261   5.281  18.713  0.00  0.00    +0.000 A 
ATOM     14  C   UNL     1       7.472   5.704  19.259  0.00  0.00    +0.000 A 
ATOM     15  C   UNL     1       8.144   6.796  18.709  0.00  0.00    +0.000 A 
ATOM     16  C   UNL     1       7.612   7.457  17.601  0.00  0.00    +0.000 A 
ATOM     17  C   UNL     1       6.425   7.005  17.025  0.00  0.00    +0.000 A 
ATOM     18  C   UNL     1       5.752   5.921  17.585  0.00  0.00    +0.000 A 
ATOM     19  O   UNL     1       4.579   5.554  16.982  0.00  0.00    +0.000 OA
ENDBRANCH   2  10
BRANCH   7  20
ATOM     20  C   UNL     1       0.809   9.898  21.522  0.00  0.00    +0.000 C 
BRANCH  20  21
ATOM     21  C   UNL     1      -0.586  10.506  21.631  0.00  0.00    +0.000 C 
BRANCH  21  22
ATOM     22  S   UNL     1      -0.505  12.274  21.398  0.00  0.00    +0.000 S 
ATOM     23  O   UNL     1       0.839  12.709  21.738  0.00  0.00    +0.000 OA
ATOM     24  O   UNL     1      -1.084  12.585  20.114  0.00  0.00    +0.000 OA
BRANCH  22  25
ATOM     25  C   UNL     1      -1.600  12.935  22.647  0.00  0.00    +0.000 A 
ATOM     26  C   UNL     1      -2.756  12.217  22.977  0.00  0.00    +0.000 A 
ATOM     27  C   UNL     1      -3.618  12.705  23.958  0.00  0.00    +0.000 A 
ATOM     28  C   UNL     1      -3.322  13.898  24.618  0.00  0.00    +0.000 A 
ATOM     29  C   UNL     1      -2.152  14.596  24.313  0.00  0.00    +0.000 A 
ATOM     30  C   UNL     1      -1.279  14.113  23.330  0.00  0.00    +0.000 A 
ENDBRANCH  22  25
ENDBRANCH  21  22
ENDBRANCH  20  21
ENDBRANCH   7  20
TORSDOF 5
ENDMDL
MODEL 5
REMARK VINA RESULT:      -8.5      2.264      2.872
REMARK  Name = 
REMARK  5 active torsions:
REMARK  status: ('A' for Active; 'I' for Inactive)
REMARK    1  A    between atoms: C_2  and  C_20
REMARK    2  A    between atoms: C_7  and  C_8
REMARK    3  A    between atoms: C_8  and  C_9
REMARK    4  A    between atoms: C_9  and  S_10
REMARK    5  A    between atoms: S_10  and  C_13
REMARK                            x       y       z     vdW  Elec       q    Type
REMARK                         _______ _______ _______ _____ _____    ______ ____
ROOT
ATOM      1  O   UNL     1       1.715   5.075  19.843  0.00  0.00    +0.000 OA
ATOM      2  C   UNL     1       2.528   5.020  18.923  0.00  0.00    +0.000 C 
ATOM      3  N   UNL     1       2.849   6.066  18.087  0.00  0.00    +0.000 N 
ATOM      4  C   UNL     1       2.391   7.339  18.270  0.00  0.00    +0.000 A 
ATOM      5  N   UNL     1       2.432   8.316  17.389  0.00  0.00    +0.000 NA
ATOM      6  N   UNL     1       1.885   9.426  18.000  0.00  0.00    +0.000 NA
ATOM      7  C   UNL     1       1.593   9.061  19.231  0.00  0.00    +0.000 A 
ATOM      8  O   UNL     1       1.879   7.743  19.473  0.00  0.00    +0.000 OA
ATOM      9  H   UNL     1       3.382   5.899  17.244  0.00  0.00    +0.000 HD
ENDROOT
BRANCH   2  10
ATOM     10  C   UNL     1       3.176   3.685  18.498  0.00  0.00    +0.000 C 
ATOM     11  C   UNL     1       4.238   3.198  19.486  0.00  0.00    +0.000 C 
ATOM     12  O   UNL     1       5.504   3.855  19.376  0.00  0.00    +0.000 OA
ATOM     13  C   UNL     1       5.775   4.347  18.132  0.00  0.00    +0.000 A 
ATOM     14  C   UNL     1       7.014   4.963  17.964  0.00  0.00    +0.000 A 
ATOM     15  C   UNL     1       7.331   5.577  16.751  0.00  0.00    +0.000 A 
ATOM     16  C   UNL     1       6.412   5.563  15.701  0.00  0.00    +0.000 A 
ATOM     17  C   UNL     1       5.192   4.906  15.854  0.00  0.00    +0.000 A 
ATOM     18  C   UNL     1       4.876   4.304  17.069  0.00  0.00    +0.000 A 
ATOM     19  O   UNL     1       3.648   3.705  17.152  0.00  0.00    +0.000 OA
ENDBRANCH   2  10
BRANCH   7  20
ATOM     20  C   UNL     1       1.061   9.872  20.355  0.00  0.00    +0.000 C 
BRANCH  20  21
ATOM     21  C   UNL     1      -0.464   9.899  20.365  0.00  0.00    +0.000 C 
BRANCH  21  22
ATOM     22  S   UNL     1      -1.053  11.499  19.836  0.00  0.00    +0.000 S 
ATOM     23  O   UNL     1      -1.908  12.030  20.882  0.00  0.00    +0.000 OA
ATOM     24  O   UNL     1       0.076  12.252  19.345  0.00  0.00    +0.000 OA
BRANCH  22  25
ATOM     25  C   UNL     1      -2.102  11.141  18.433  0.00  0.00    +0.000 A 
ATOM     26  C   UNL     1      -1.652  10.232  17.469  0.00  0.00    +0.000 A 
ATOM     27  C   UNL     1      -2.459   9.927  16.374  0.00  0.00    +0.000 A 
ATOM     28  C   UNL     1      -3.716  10.515  16.247  0.00  0.00    +0.000 A 
ATOM     29  C   UNL     1      -4.180  11.397  17.226  0.00  0.00    +0.000 A 
ATOM     30  C   UNL     1      -3.377  11.708  18.330  0.00  0.00    +0.000 A 
ENDBRANCH  22  25
ENDBRANCH  21  22
ENDBRANCH  20  21
ENDBRANCH   7  20
TORSDOF 5
ENDMDL
MODEL 6
REMARK VINA RESULT:      -8.5      2.336      3.008
REMARK  Name = 
REMARK  5 active torsions:
REMARK  status: ('A' for Active; 'I' for Inactive)
REMARK    1  A    between atoms: C_2  and  C_20
REMARK    2  A    between atoms: C_7  and  C_8
REMARK    3  A    between atoms: C_8  and  C_9
REMARK    4  A    between atoms: C_9  and  S_10
REMARK    5  A    between atoms: S_10  and  C_13
REMARK                            x       y       z     vdW  Elec       q    Type
REMARK                         _______ _______ _______ _____ _____    ______ ____
ROOT
ATOM      1  O   UNL     1       2.510   7.993  17.895  0.00  0.00    +0.000 OA
ATOM      2  C   UNL     1       2.423   7.017  18.637  0.00  0.00    +0.000 C 
ATOM      3  N   UNL     1       2.099   7.065  19.974  0.00  0.00    +0.000 N 
ATOM      4  C   UNL     1       1.703   8.207  20.607  0.00  0.00    +0.000 A 
ATOM      5  N   UNL     1       1.636   8.393  21.909  0.00  0.00    +0.000 NA
ATOM      6  N   UNL     1       1.168   9.676  22.104  0.00  0.00    +0.000 NA
ATOM      7  C   UNL     1       0.936  10.170  20.905  0.00  0.00    +0.000 A 
ATOM      8  O   UNL     1       1.262   9.294  19.902  0.00  0.00    +0.000 OA
ATOM      9  H   UNL     1       2.228   6.250  20.558  0.00  0.00    +0.000 HD
ENDROOT
BRANCH   2  10
ATOM     10  C   UNL     1       2.836   5.606  18.164  0.00  0.00    +0.000 C 
ATOM     11  C   UNL     1       3.224   4.682  19.321  0.00  0.00    +0.000 C 
ATOM     12  O   UNL     1       4.537   4.897  19.845  0.00  0.00    +0.000 OA
ATOM     13  C   UNL     1       5.421   5.424  18.948  0.00  0.00    +0.000 A 
ATOM     14  C   UNL     1       6.725   5.617  19.401  0.00  0.00    +0.000 A 
ATOM     15  C   UNL     1       7.666   6.239  18.578  0.00  0.00    +0.000 A 
ATOM     16  C   UNL     1       7.305   6.654  17.296  0.00  0.00    +0.000 A 
ATOM     17  C   UNL     1       6.014   6.419  16.826  0.00  0.00    +0.000 A 
ATOM     18  C   UNL     1       5.075   5.807  17.654  0.00  0.00    +0.000 A 
ATOM     19  O   UNL     1       3.821   5.637  17.134  0.00  0.00    +0.000 OA
ENDBRANCH   2  10
BRANCH   7  20
ATOM     20  C   UNL     1       0.348  11.476  20.520  0.00  0.00    +0.000 C 
BRANCH  20  21
ATOM     21  C   UNL     1      -1.150  11.371  20.253  0.00  0.00    +0.000 C 
BRANCH  21  22
ATOM     22  S   UNL     1      -1.476  11.538  18.506  0.00  0.00    +0.000 S 
ATOM     23  O   UNL     1      -0.876  12.781  18.055  0.00  0.00    +0.000 OA
ATOM     24  O   UNL     1      -1.155  10.284  17.868  0.00  0.00    +0.000 OA
BRANCH  22  25
ATOM     25  C   UNL     1      -3.249  11.745  18.405  0.00  0.00    +0.000 A 
ATOM     26  C   UNL     1      -3.925  12.302  19.496  0.00  0.00    +0.000 A 
ATOM     27  C   UNL     1      -5.306  12.486  19.435  0.00  0.00    +0.000 A 
ATOM     28  C   UNL     1      -6.008  12.129  18.284  0.00  0.00    +0.000 A 
ATOM     29  C   UNL     1      -5.329  11.605  17.183  0.00  0.00    +0.000 A 
ATOM     30  C   UNL     1      -3.942  11.417  17.234  0.00  0.00    +0.000 A 
ENDBRANCH  22  25
ENDBRANCH  21  22
ENDBRANCH  20  21
ENDBRANCH   7  20
TORSDOF 5
ENDMDL
MODEL 7
REMARK VINA RESULT:      -8.4      3.259      9.472
REMARK  Name = 
REMARK  5 active torsions:
REMARK  status: ('A' for Active; 'I' for Inactive)
REMARK    1  A    between atoms: C_2  and  C_20
REMARK    2  A    between atoms: C_7  and  C_8
REMARK    3  A    between atoms: C_8  and  C_9
REMARK    4  A    between atoms: C_9  and  S_10
REMARK    5  A    between atoms: S_10  and  C_13
REMARK                            x       y       z     vdW  Elec       q    Type
REMARK                         _______ _______ _______ _____ _____    ______ ____
ROOT
ATOM      1  O   UNL     1       1.350  10.119  21.705  0.00  0.00    +0.000 OA
ATOM      2  C   UNL     1       0.848  10.681  20.734  0.00  0.00    +0.000 C 
ATOM      3  N   UNL     1       0.971  10.265  19.427  0.00  0.00    +0.000 N 
ATOM      4  C   UNL     1       1.565   9.089  19.069  0.00  0.00    +0.000 A 
ATOM      5  N   UNL     1       1.954   8.751  17.857  0.00  0.00    +0.000 NA
ATOM      6  N   UNL     1       2.476   7.477  17.949  0.00  0.00    +0.000 NA
ATOM      7  C   UNL     1       2.326   7.107  19.204  0.00  0.00    +0.000 A 
ATOM      8  O   UNL     1       1.760   8.086  19.979  0.00  0.00    +0.000 OA
ATOM      9  H   UNL     1       0.691  10.874  18.671  0.00  0.00    +0.000 HD
ENDROOT
BRANCH   2  10
ATOM     10  C   UNL     1       0.136  12.045  20.870  0.00  0.00    +0.000 C 
ATOM     11  C   UNL     1      -0.476  12.530  19.555  0.00  0.00    +0.000 C 
ATOM     12  O   UNL     1       0.459  13.104  18.635  0.00  0.00    +0.000 OA
ATOM     13  C   UNL     1       1.560  13.653  19.224  0.00  0.00    +0.000 A 
ATOM     14  C   UNL     1       2.483  14.259  18.372  0.00  0.00    +0.000 A 
ATOM     15  C   UNL     1       3.681  14.761  18.883  0.00  0.00    +0.000 A 
ATOM     16  C   UNL     1       3.950  14.668  20.249  0.00  0.00    +0.000 A 
ATOM     17  C   UNL     1       3.007  14.105  21.107  0.00  0.00    +0.000 A 
ATOM     18  C   UNL     1       1.817  13.597  20.592  0.00  0.00    +0.000 A 
ATOM     19  O   UNL     1       0.955  13.033  21.493  0.00  0.00    +0.000 OA
ENDBRANCH   2  10
BRANCH   7  20
ATOM     20  C   UNL     1       2.632   5.806  19.848  0.00  0.00    +0.000 C 
BRANCH  20  21
ATOM     21  C   UNL     1       4.098   5.418  19.681  0.00  0.00    +0.000 C 
BRANCH  21  22
ATOM     22  S   UNL     1       4.226   3.842  18.852  0.00  0.00    +0.000 S 
ATOM     23  O   UNL     1       4.934   2.930  19.732  0.00  0.00    +0.000 OA
ATOM     24  O   UNL     1       2.926   3.507  18.324  0.00  0.00    +0.000 OA
BRANCH  22  25
ATOM     25  C   UNL     1       5.298   4.162  17.457  0.00  0.00    +0.000 A 
ATOM     26  C   UNL     1       4.771   4.062  16.165  0.00  0.00    +0.000 A 
ATOM     27  C   UNL     1       5.584   4.321  15.062  0.00  0.00    +0.000 A 
ATOM     28  C   UNL     1       6.916   4.691  15.248  0.00  0.00    +0.000 A 
ATOM     29  C   UNL     1       7.433   4.823  16.538  0.00  0.00    +0.000 A 
ATOM     30  C   UNL     1       6.623   4.567  17.652  0.00  0.00    +0.000 A 
ENDBRANCH  22  25
ENDBRANCH  21  22
ENDBRANCH  20  21
ENDBRANCH   7  20
TORSDOF 5
ENDMDL
MODEL 8
REMARK VINA RESULT:      -8.4      2.965      4.472
REMARK  Name = 
REMARK  5 active torsions:
REMARK  status: ('A' for Active; 'I' for Inactive)
REMARK    1  A    between atoms: C_2  and  C_20
REMARK    2  A    between atoms: C_7  and  C_8
REMARK    3  A    between atoms: C_8  and  C_9
REMARK    4  A    between atoms: C_9  and  S_10
REMARK    5  A    between atoms: S_10  and  C_13
REMARK                            x       y       z     vdW  Elec       q    Type
REMARK                         _______ _______ _______ _____ _____    ______ ____
ROOT
ATOM      1  O   UNL     1       2.817   7.966  18.028  0.00  0.00    +0.000 OA
ATOM      2  C   UNL     1       2.971   7.133  18.918  0.00  0.00    +0.000 C 
ATOM      3  N   UNL     1       2.452   7.228  20.190  0.00  0.00    +0.000 N 
ATOM      4  C   UNL     1       1.585   8.209  20.573  0.00  0.00    +0.000 A 
ATOM      5  N   UNL     1       1.260   8.522  21.810  0.00  0.00    +0.000 NA
ATOM      6  N   UNL     1       0.342   9.549  21.732  0.00  0.00    +0.000 NA
ATOM      7  C   UNL     1       0.134   9.761  20.449  0.00  0.00    +0.000 A 
ATOM      8  O   UNL     1       0.899   8.951  19.650  0.00  0.00    +0.000 OA
ATOM      9  H   UNL     1       2.773   6.603  20.918  0.00  0.00    +0.000 HD
ENDROOT
BRANCH   2  10
ATOM     10  C   UNL     1       3.926   5.932  18.742  0.00  0.00    +0.000 C 
ATOM     11  C   UNL     1       3.735   5.212  17.406  0.00  0.00    +0.000 C 
ATOM     12  O   UNL     1       2.608   4.331  17.357  0.00  0.00    +0.000 OA
ATOM     13  C   UNL     1       2.240   3.822  18.568  0.00  0.00    +0.000 A 
ATOM     14  C   UNL     1       1.171   2.928  18.567  0.00  0.00    +0.000 A 
ATOM     15  C   UNL     1       0.670   2.435  19.774  0.00  0.00    +0.000 A 
ATOM     16  C   UNL     1       1.249   2.827  20.981  0.00  0.00    +0.000 A 
ATOM     17  C   UNL     1       2.349   3.684  20.980  0.00  0.00    +0.000 A 
ATOM     18  C   UNL     1       2.839   4.181  19.774  0.00  0.00    +0.000 A 
ATOM     19  O   UNL     1       3.900   5.041  19.855  0.00  0.00    +0.000 OA
ENDBRANCH   2  10
BRANCH   7  20
ATOM     20  C   UNL     1      -0.814  10.690  19.787  0.00  0.00    +0.000 C 
BRANCH  20  21
ATOM     21  C   UNL     1      -1.422  10.082  18.526  0.00  0.00    +0.000 C 
BRANCH  21  22
ATOM     22  S   UNL     1      -2.183  11.357  17.535  0.00  0.00    +0.000 S 
ATOM     23  O   UNL     1      -1.480  12.601  17.790  0.00  0.00    +0.000 OA
ATOM     24  O   UNL     1      -2.335  10.850  16.193  0.00  0.00    +0.000 OA
BRANCH  22  25
ATOM     25  C   UNL     1      -3.824  11.531  18.225  0.00  0.00    +0.000 A 
ATOM     26  C   UNL     1      -3.989  12.298  19.383  0.00  0.00    +0.000 A 
ATOM     27  C   UNL     1      -5.262  12.461  19.931  0.00  0.00    +0.000 A 
ATOM     28  C   UNL     1      -6.367  11.871  19.318  0.00  0.00    +0.000 A 
ATOM     29  C   UNL     1      -6.206  11.134  18.143  0.00  0.00    +0.000 A 
ATOM     30  C   UNL     1      -4.933  10.967  17.584  0.00  0.00    +0.000 A 
ENDBRANCH  22  25
ENDBRANCH  21  22
ENDBRANCH  20  21
ENDBRANCH   7  20
TORSDOF 5
ENDMDL
MODEL 9
REMARK VINA RESULT:      -8.4      3.090      9.941
REMARK  Name = 
REMARK  5 active torsions:
REMARK  status: ('A' for Active; 'I' for Inactive)
REMARK    1  A    between atoms: C_2  and  C_20
REMARK    2  A    between atoms: C_7  and  C_8
REMARK    3  A    between atoms: C_8  and  C_9
REMARK    4  A    between atoms: C_9  and  S_10
REMARK    5  A    between atoms: S_10  and  C_13
REMARK                            x       y       z     vdW  Elec       q    Type
REMARK                         _______ _______ _______ _____ _____    ______ ____
ROOT
ATOM      1  O   UNL     1       0.488  10.346  20.243  0.00  0.00    +0.000 OA
ATOM      2  C   UNL     1       0.560  10.893  19.144  0.00  0.00    +0.000 C 
ATOM      3  N   UNL     1       1.310  10.438  18.082  0.00  0.00    +0.000 N 
ATOM      4  C   UNL     1       1.964   9.240  18.086  0.00  0.00    +0.000 A 
ATOM      5  N   UNL     1       2.899   8.860  17.240  0.00  0.00    +0.000 NA
ATOM      6  N   UNL     1       3.262   7.578  17.599  0.00  0.00    +0.000 NA
ATOM      7  C   UNL     1       2.489   7.246  18.611  0.00  0.00    +0.000 A 
ATOM      8  O   UNL     1       1.643   8.259  18.984  0.00  0.00    +0.000 OA
ATOM      9  H   UNL     1       1.468  11.032  17.280  0.00  0.00    +0.000 HD
ENDROOT
BRANCH   2  10
ATOM     10  C   UNL     1      -0.079  12.275  18.887  0.00  0.00    +0.000 C 
ATOM     11  C   UNL     1      -0.984  12.734  20.031  0.00  0.00    +0.000 C 
ATOM     12  O   UNL     1      -2.281  12.130  20.048  0.00  0.00    +0.000 OA
ATOM     13  C   UNL     1      -2.729  11.728  18.823  0.00  0.00    +0.000 A 
ATOM     14  C   UNL     1      -4.005  11.169  18.781  0.00  0.00    +0.000 A 
ATOM     15  C   UNL     1      -4.500  10.645  17.585  0.00  0.00    +0.000 A 
ATOM     16  C   UNL     1      -3.722  10.694  16.428  0.00  0.00    +0.000 A 
ATOM     17  C   UNL     1      -2.465  11.296  16.459  0.00  0.00    +0.000 A 
ATOM     18  C   UNL     1      -1.971  11.808  17.657  0.00  0.00    +0.000 A 
ATOM     19  O   UNL     1      -0.718  12.357  17.615  0.00  0.00    +0.000 OA
ENDBRANCH   2  10
BRANCH   7  20
ATOM     20  C   UNL     1       2.388   5.957  19.339  0.00  0.00    +0.000 C 
BRANCH  20  21
ATOM     21  C   UNL     1       3.758   5.412  19.728  0.00  0.00    +0.000 C 
BRANCH  21  22
ATOM     22  S   UNL     1       4.042   3.839  18.933  0.00  0.00    +0.000 S 
ATOM     23  O   UNL     1       4.791   3.001  19.853  0.00  0.00    +0.000 OA
ATOM     24  O   UNL     1       2.792   3.390  18.369  0.00  0.00    +0.000 OA
BRANCH  22  25
ATOM     25  C   UNL     1       5.132   4.223  17.569  0.00  0.00    +0.000 A 
ATOM     26  C   UNL     1       6.475   4.508  17.839  0.00  0.00    +0.000 A 
ATOM     27  C   UNL     1       7.348   4.796  16.790  0.00  0.00    +0.000 A 
ATOM     28  C   UNL     1       6.885   4.787  15.475  0.00  0.00    +0.000 A 
ATOM     29  C   UNL     1       5.553   4.470  15.202  0.00  0.00    +0.000 A 
ATOM     30  C   UNL     1       4.670   4.178  16.249  0.00  0.00    +0.000 A 
ENDBRANCH  22  25
ENDBRANCH  21  22
ENDBRANCH  20  21
ENDBRANCH   7  20
TORSDOF 5
ENDMDL
