MODEL 1
REMARK VINA RESULT:      -7.5      0.000      0.000
REMARK  Name = 
REMARK  6 active torsions:
REMARK  status: ('A' for Active; 'I' for Inactive)
REMARK    1  A    between atoms: C_1  and  N_2
REMARK    2  A    between atoms: C_4  and  C_5
REMARK    3  A    between atoms: C_5  and  C_7
REMARK    4  A    between atoms: C_8  and  O_9
REMARK    5  A    between atoms: C_8  and  C_10
REMARK    6  A    between atoms: C_10  and  O_12
REMARK                            x       y       z     vdW  Elec       q    Type
REMARK                         _______ _______ _______ _____ _____    ______ ____
ROOT
ATOM      1  C   UNL     1       1.998   7.385  19.982  0.00  0.00    +0.000 C 
ATOM      2  N   UNL     1       2.528   6.338  19.135  0.00  0.00    +0.000 N 
ATOM      3  C   UNL     1       3.514   6.501  18.190  0.00  0.00    +0.000 A 
ATOM      4  C   UNL     1       3.775   5.271  17.600  0.00  0.00    +0.000 A 
ATOM      5  C   UNL     1       2.858   4.341  18.212  0.00  0.00    +0.000 A 
ATOM      6  C   UNL     1       2.609   2.960  18.034  0.00  0.00    +0.000 A 
ATOM      7  C   UNL     1       1.643   2.315  18.811  0.00  0.00    +0.000 A 
ATOM      8  C   UNL     1       0.923   3.022  19.766  0.00  0.00    +0.000 A 
ATOM      9  C   UNL     1       1.141   4.389  19.963  0.00  0.00    +0.000 A 
ATOM     10  C   UNL     1       2.109   5.027  19.171  0.00  0.00    +0.000 A 
ENDROOT
BRANCH   4  11
ATOM     11  C   UNL     1       4.773   4.912  16.585  0.00  0.00    +0.000 C 
ATOM     12  O   UNL     1       4.847   3.786  16.106  0.00  0.00    +0.000 OA
BRANCH  11  13
ATOM     13  C   UNL     1       5.811   5.936  16.286  0.00  0.00    +0.000 C 
ATOM     14  C   UNL     1       6.966   6.087  16.958  0.00  0.00    +0.000 C 
BRANCH  14  15
ATOM     15  O   UNL     1       7.776   7.210  16.737  0.00  0.00    +0.000 OA
ATOM     16  H   UNL     1       8.027   7.592  17.595  0.00  0.00    +0.000 HD
ENDBRANCH  14  15
BRANCH  14  17
ATOM     17  C   UNL     1       7.503   5.126  17.986  0.00  0.00    +0.000 C 
ATOM     18  O   UNL     1       7.325   5.157  19.187  0.00  0.00    +0.000 OA
BRANCH  17  19
ATOM     19  O   UNL     1       8.133   4.105  17.348  0.00  0.00    +0.000 OA
ATOM     20  H   UNL     1       7.712   3.253  17.590  0.00  0.00    +0.000 HD
ENDBRANCH  17  19
ENDBRANCH  14  17
ENDBRANCH  11  13
ENDBRANCH   4  11
TORSDOF 5
ENDMDL
MODEL 2
REMARK VINA RESULT:      -7.3      1.368      2.027
REMARK  Name = 
REMARK  6 active torsions:
REMARK  status: ('A' for Active; 'I' for Inactive)
REMARK    1  A    between atoms: C_1  and  N_2
REMARK    2  A    between atoms: C_4  and  C_5
REMARK    3  A    between atoms: C_5  and  C_7
REMARK    4  A    between atoms: C_8  and  O_9
REMARK    5  A    between atoms: C_8  and  C_10
REMARK    6  A    between atoms: C_10  and  O_12
REMARK                            x       y       z     vdW  Elec       q    Type
REMARK                         _______ _______ _______ _____ _____    ______ ____
ROOT
ATOM      1  C   UNL     1       1.481   6.701  20.570  0.00  0.00    +0.000 C 
ATOM      2  N   UNL     1       2.315   6.165  19.515  0.00  0.00    +0.000 N 
ATOM      3  C   UNL     1       3.336   6.840  18.888  0.00  0.00    +0.000 A 
ATOM      4  C   UNL     1       3.922   5.994  17.954  0.00  0.00    +0.000 A 
ATOM      5  C   UNL     1       3.171   4.764  18.015  0.00  0.00    +0.000 A 
ATOM      6  C   UNL     1       3.253   3.540  17.312  0.00  0.00    +0.000 A 
ATOM      7  C   UNL     1       2.374   2.496  17.617  0.00  0.00    +0.000 A 
ATOM      8  C   UNL     1       1.419   2.650  18.614  0.00  0.00    +0.000 A 
ATOM      9  C   UNL     1       1.309   3.849  19.323  0.00  0.00    +0.000 A 
ATOM     10  C   UNL     1       2.193   4.894  19.002  0.00  0.00    +0.000 A 
ENDROOT
BRANCH   4  11
ATOM     11  C   UNL     1       5.077   6.224  17.077  0.00  0.00    +0.000 C 
ATOM     12  O   UNL     1       4.972   6.761  15.980  0.00  0.00    +0.000 OA
BRANCH  11  13
ATOM     13  C   UNL     1       6.366   5.617  17.507  0.00  0.00    +0.000 C 
ATOM     14  C   UNL     1       7.108   4.772  16.770  0.00  0.00    +0.000 C 
BRANCH  14  15
ATOM     15  O   UNL     1       8.192   4.092  17.343  0.00  0.00    +0.000 OA
ATOM     16  H   UNL     1       8.336   3.262  16.859  0.00  0.00    +0.000 HD
ENDBRANCH  14  15
BRANCH  14  17
ATOM     17  C   UNL     1       6.876   4.458  15.315  0.00  0.00    +0.000 C 
ATOM     18  O   UNL     1       6.156   3.596  14.853  0.00  0.00    +0.000 OA
BRANCH  17  19
ATOM     19  O   UNL     1       7.509   5.391  14.556  0.00  0.00    +0.000 OA
ATOM     20  H   UNL     1       8.056   5.968  15.130  0.00  0.00    +0.000 HD
ENDBRANCH  17  19
ENDBRANCH  14  17
ENDBRANCH  11  13
ENDBRANCH   4  11
TORSDOF 5
ENDMDL
MODEL 3
REMARK VINA RESULT:      -7.2      1.267      2.687
REMARK  Name = 
REMARK  6 active torsions:
REMARK  status: ('A' for Active; 'I' for Inactive)
REMARK    1  A    between atoms: C_1  and  N_2
REMARK    2  A    between atoms: C_4  and  C_5
REMARK    3  A    between atoms: C_5  and  C_7
REMARK    4  A    between atoms: C_8  and  O_9
REMARK    5  A    between atoms: C_8  and  C_10
REMARK    6  A    between atoms: C_10  and  O_12
REMARK                            x       y       z     vdW  Elec       q    Type
REMARK                         _______ _______ _______ _____ _____    ______ ____
ROOT
ATOM      1  C   UNL     1       2.360   4.506  21.216  0.00  0.00    +0.000 C 
ATOM      2  N   UNL     1       2.854   5.062  19.974  0.00  0.00    +0.000 N 
ATOM      3  C   UNL     1       3.680   4.413  19.086  0.00  0.00    +0.000 A 
ATOM      4  C   UNL     1       3.917   5.252  18.003  0.00  0.00    +0.000 A 
ATOM      5  C   UNL     1       3.216   6.478  18.297  0.00  0.00    +0.000 A 
ATOM      6  C   UNL     1       3.083   7.709  17.615  0.00  0.00    +0.000 A 
ATOM      7  C   UNL     1       2.298   8.731  18.158  0.00  0.00    +0.000 A 
ATOM      8  C   UNL     1       1.640   8.544  19.367  0.00  0.00    +0.000 A 
ATOM      9  C   UNL     1       1.756   7.341  20.069  0.00  0.00    +0.000 A 
ATOM     10  C   UNL     1       2.553   6.325  19.517  0.00  0.00    +0.000 A 
ENDROOT
BRANCH   4  11
ATOM     11  C   UNL     1       4.683   5.002  16.775  0.00  0.00    +0.000 C 
ATOM     12  O   UNL     1       4.576   3.962  16.136  0.00  0.00    +0.000 OA
BRANCH  11  13
ATOM     13  C   UNL     1       5.730   6.003  16.433  0.00  0.00    +0.000 C 
ATOM     14  C   UNL     1       6.940   6.087  17.014  0.00  0.00    +0.000 C 
BRANCH  14  15
ATOM     15  O   UNL     1       7.770   7.191  16.772  0.00  0.00    +0.000 OA
ATOM     16  H   UNL     1       7.830   7.725  17.582  0.00  0.00    +0.000 HD
ENDBRANCH  14  15
BRANCH  14  17
ATOM     17  C   UNL     1       7.522   5.066  17.957  0.00  0.00    +0.000 C 
ATOM     18  O   UNL     1       7.393   5.020  19.164  0.00  0.00    +0.000 OA
BRANCH  17  19
ATOM     19  O   UNL     1       8.129   4.092  17.230  0.00  0.00    +0.000 OA
ATOM     20  H   UNL     1       9.086   4.289  17.148  0.00  0.00    +0.000 HD
ENDBRANCH  17  19
ENDBRANCH  14  17
ENDBRANCH  11  13
ENDBRANCH   4  11
TORSDOF 5
ENDMDL
MODEL 4
REMARK VINA RESULT:      -7.2      0.837      1.123
REMARK  Name = 
REMARK  6 active torsions:
REMARK  status: ('A' for Active; 'I' for Inactive)
REMARK    1  A    between atoms: C_1  and  N_2
REMARK    2  A    between atoms: C_4  and  C_5
REMARK    3  A    between atoms: C_5  and  C_7
REMARK    4  A    between atoms: C_8  and  O_9
REMARK    5  A    between atoms: C_8  and  C_10
REMARK    6  A    between atoms: C_10  and  O_12
REMARK                            x       y       z     vdW  Elec       q    Type
REMARK                         _______ _______ _______ _____ _____    ______ ____
ROOT
ATOM      1  C   UNL     1       1.797   7.972  19.837  0.00  0.00    +0.000 C 
ATOM      2  N   UNL     1       2.443   6.821  19.244  0.00  0.00    +0.000 N 
ATOM      3  C   UNL     1       3.221   6.842  18.110  0.00  0.00    +0.000 A 
ATOM      4  C   UNL     1       3.689   5.556  17.866  0.00  0.00    +0.000 A 
ATOM      5  C   UNL     1       3.118   4.729  18.901  0.00  0.00    +0.000 A 
ATOM      6  C   UNL     1       3.191   3.348  19.192  0.00  0.00    +0.000 A 
ATOM      7  C   UNL     1       2.526   2.830  20.307  0.00  0.00    +0.000 A 
ATOM      8  C   UNL     1       1.794   3.667  21.140  0.00  0.00    +0.000 A 
ATOM      9  C   UNL     1       1.699   5.036  20.878  0.00  0.00    +0.000 A 
ATOM     10  C   UNL     1       2.365   5.543  19.749  0.00  0.00    +0.000 A 
ENDROOT
BRANCH   4  11
ATOM     11  C   UNL     1       4.596   5.073  16.817  0.00  0.00    +0.000 C 
ATOM     12  O   UNL     1       4.547   3.927  16.385  0.00  0.00    +0.000 OA
BRANCH  11  13
ATOM     13  C   UNL     1       5.697   5.991  16.420  0.00  0.00    +0.000 C 
ATOM     14  C   UNL     1       6.928   6.003  16.961  0.00  0.00    +0.000 C 
BRANCH  14  15
ATOM     15  O   UNL     1       7.824   7.042  16.667  0.00  0.00    +0.000 OA
ATOM     16  H   UNL     1       8.719   6.672  16.586  0.00  0.00    +0.000 HD
ENDBRANCH  14  15
BRANCH  14  17
ATOM     17  C   UNL     1       7.469   4.965  17.909  0.00  0.00    +0.000 C 
ATOM     18  O   UNL     1       8.286   4.100  17.665  0.00  0.00    +0.000 OA
BRANCH  17  19
ATOM     19  O   UNL     1       6.996   5.218  19.157  0.00  0.00    +0.000 OA
ATOM     20  H   UNL     1       6.100   5.611  19.097  0.00  0.00    +0.000 HD
ENDBRANCH  17  19
ENDBRANCH  14  17
ENDBRANCH  11  13
ENDBRANCH   4  11
TORSDOF 5
ENDMDL
MODEL 5
REMARK VINA RESULT:      -7.1      1.490      2.684
REMARK  Name = 
REMARK  6 active torsions:
REMARK  status: ('A' for Active; 'I' for Inactive)
REMARK    1  A    between atoms: C_1  and  N_2
REMARK    2  A    between atoms: C_4  and  C_5
REMARK    3  A    between atoms: C_5  and  C_7
REMARK    4  A    between atoms: C_8  and  O_9
REMARK    5  A    between atoms: C_8  and  C_10
REMARK    6  A    between atoms: C_10  and  O_12
REMARK                            x       y       z     vdW  Elec       q    Type
REMARK                         _______ _______ _______ _____ _____    ______ ____
ROOT
ATOM      1  C   UNL     1       2.757   2.053  17.730  0.00  0.00    +0.000 C 
ATOM      2  N   UNL     1       3.183   3.435  17.774  0.00  0.00    +0.000 N 
ATOM      3  C   UNL     1       4.124   4.005  16.947  0.00  0.00    +0.000 A 
ATOM      4  C   UNL     1       4.246   5.351  17.271  0.00  0.00    +0.000 A 
ATOM      5  C   UNL     1       3.348   5.570  18.379  0.00  0.00    +0.000 A 
ATOM      6  C   UNL     1       3.032   6.701  19.165  0.00  0.00    +0.000 A 
ATOM      7  C   UNL     1       2.080   6.605  20.184  0.00  0.00    +0.000 A 
ATOM      8  C   UNL     1       1.434   5.399  20.429  0.00  0.00    +0.000 A 
ATOM      9  C   UNL     1       1.727   4.261  19.674  0.00  0.00    +0.000 A 
ATOM     10  C   UNL     1       2.692   4.369  18.657  0.00  0.00    +0.000 A 
ENDROOT
BRANCH   4  11
ATOM     11  C   UNL     1       5.069   6.393  16.646  0.00  0.00    +0.000 C 
ATOM     12  O   UNL     1       4.938   6.717  15.471  0.00  0.00    +0.000 OA
BRANCH  11  13
ATOM     13  C   UNL     1       6.196   6.923  17.460  0.00  0.00    +0.000 C 
ATOM     14  C   UNL     1       7.302   6.235  17.792  0.00  0.00    +0.000 C 
BRANCH  14  15
ATOM     15  O   UNL     1       8.204   6.750  18.735  0.00  0.00    +0.000 OA
ATOM     16  H   UNL     1       7.808   7.531  19.157  0.00  0.00    +0.000 HD
ENDBRANCH  14  15
BRANCH  14  17
ATOM     17  C   UNL     1       7.689   4.891  17.232  0.00  0.00    +0.000 C 
ATOM     18  O   UNL     1       7.821   4.592  16.062  0.00  0.00    +0.000 OA
BRANCH  17  19
ATOM     19  O   UNL     1       8.008   4.061  18.258  0.00  0.00    +0.000 OA
ATOM     20  H   UNL     1       8.613   4.519  18.879  0.00  0.00    +0.000 HD
ENDBRANCH  17  19
ENDBRANCH  14  17
ENDBRANCH  11  13
ENDBRANCH   4  11
TORSDOF 5
ENDMDL
MODEL 6
REMARK VINA RESULT:      -7.1      1.264      2.471
REMARK  Name = 
REMARK  6 active torsions:
REMARK  status: ('A' for Active; 'I' for Inactive)
REMARK    1  A    between atoms: C_1  and  N_2
REMARK    2  A    between atoms: C_4  and  C_5
REMARK    3  A    between atoms: C_5  and  C_7
REMARK    4  A    between atoms: C_8  and  O_9
REMARK    5  A    between atoms: C_8  and  C_10
REMARK    6  A    between atoms: C_10  and  O_12
REMARK                            x       y       z     vdW  Elec       q    Type
REMARK                         _______ _______ _______ _____ _____    ______ ____
ROOT
ATOM      1  C   UNL     1       3.075   2.681  20.458  0.00  0.00    +0.000 C 
ATOM      2  N   UNL     1       3.397   3.680  19.461  0.00  0.00    +0.000 N 
ATOM      3  C   UNL     1       4.207   3.480  18.367  0.00  0.00    +0.000 A 
ATOM      4  C   UNL     1       4.257   4.657  17.629  0.00  0.00    +0.000 A 
ATOM      5  C   UNL     1       3.457   5.610  18.357  0.00  0.00    +0.000 A 
ATOM      6  C   UNL     1       3.134   6.970  18.146  0.00  0.00    +0.000 A 
ATOM      7  C   UNL     1       2.295   7.639  19.042  0.00  0.00    +0.000 A 
ATOM      8  C   UNL     1       1.769   6.974  20.142  0.00  0.00    +0.000 A 
ATOM      9  C   UNL     1       2.073   5.631  20.382  0.00  0.00    +0.000 A 
ATOM     10  C   UNL     1       2.924   4.972  19.479  0.00  0.00    +0.000 A 
ENDROOT
BRANCH   4  11
ATOM     11  C   UNL     1       4.935   4.935  16.356  0.00  0.00    +0.000 C 
ATOM     12  O   UNL     1       4.862   4.178  15.395  0.00  0.00    +0.000 OA
BRANCH  11  13
ATOM     13  C   UNL     1       5.863   6.098  16.341  0.00  0.00    +0.000 C 
ATOM     14  C   UNL     1       6.970   6.216  17.095  0.00  0.00    +0.000 C 
BRANCH  14  15
ATOM     15  O   UNL     1       7.658   7.436  17.163  0.00  0.00    +0.000 OA
ATOM     16  H   UNL     1       8.055   7.525  18.046  0.00  0.00    +0.000 HD
ENDBRANCH  14  15
BRANCH  14  17
ATOM     17  C   UNL     1       7.575   5.113  17.926  0.00  0.00    +0.000 C 
ATOM     18  O   UNL     1       7.537   4.997  19.134  0.00  0.00    +0.000 OA
BRANCH  17  19
ATOM     19  O   UNL     1       8.077   4.162  17.097  0.00  0.00    +0.000 OA
ATOM     20  H   UNL     1       8.784   4.549  16.538  0.00  0.00    +0.000 HD
ENDBRANCH  17  19
ENDBRANCH  14  17
ENDBRANCH  11  13
ENDBRANCH   4  11
TORSDOF 5
ENDMDL
MODEL 7
REMARK VINA RESULT:      -7.0      3.017      5.611
REMARK  Name = 
REMARK  6 active torsions:
REMARK  status: ('A' for Active; 'I' for Inactive)
REMARK    1  A    between atoms: C_1  and  N_2
REMARK    2  A    between atoms: C_4  and  C_5
REMARK    3  A    between atoms: C_5  and  C_7
REMARK    4  A    between atoms: C_8  and  O_9
REMARK    5  A    between atoms: C_8  and  C_10
REMARK    6  A    between atoms: C_10  and  O_12
REMARK                            x       y       z     vdW  Elec       q    Type
REMARK                         _______ _______ _______ _____ _____    ______ ____
ROOT
ATOM      1  C   UNL     1       7.760   5.711  19.230  0.00  0.00    +0.000 C 
ATOM      2  N   UNL     1       6.527   5.374  18.551  0.00  0.00    +0.000 N 
ATOM      3  C   UNL     1       5.281   5.345  19.134  0.00  0.00    +0.000 A 
ATOM      4  C   UNL     1       4.344   5.005  18.165  0.00  0.00    +0.000 A 
ATOM      5  C   UNL     1       5.095   4.787  16.953  0.00  0.00    +0.000 A 
ATOM      6  C   UNL     1       4.734   4.403  15.641  0.00  0.00    +0.000 A 
ATOM      7  C   UNL     1       5.711   4.292  14.649  0.00  0.00    +0.000 A 
ATOM      8  C   UNL     1       7.043   4.561  14.940  0.00  0.00    +0.000 A 
ATOM      9  C   UNL     1       7.433   4.938  16.228  0.00  0.00    +0.000 A 
ATOM     10  C   UNL     1       6.442   5.039  17.219  0.00  0.00    +0.000 A 
ENDROOT
BRANCH   4  11
ATOM     11  C   UNL     1       2.883   4.900  18.272  0.00  0.00    +0.000 C 
ATOM     12  O   UNL     1       2.186   5.824  18.675  0.00  0.00    +0.000 OA
BRANCH  11  13
ATOM     13  C   UNL     1       2.297   3.554  18.030  0.00  0.00    +0.000 C 
ATOM     14  C   UNL     1       1.841   2.725  18.986  0.00  0.00    +0.000 C 
BRANCH  14  15
ATOM     15  O   UNL     1       1.505   1.399  18.677  0.00  0.00    +0.000 OA
ATOM     16  H   UNL     1       1.425   1.310  17.712  0.00  0.00    +0.000 HD
ENDBRANCH  14  15
BRANCH  14  17
ATOM     17  C   UNL     1       1.650   3.093  20.435  0.00  0.00    +0.000 C 
ATOM     18  O   UNL     1       2.403   2.860  21.359  0.00  0.00    +0.000 OA
BRANCH  17  19
ATOM     19  O   UNL     1       0.538   3.865  20.551  0.00  0.00    +0.000 OA
ATOM     20  H   UNL     1       0.451   4.440  19.761  0.00  0.00    +0.000 HD
ENDBRANCH  17  19
ENDBRANCH  14  17
ENDBRANCH  11  13
ENDBRANCH   4  11
TORSDOF 5
ENDMDL
MODEL 8
REMARK VINA RESULT:      -7.0      3.097      5.652
REMARK  Name = 
REMARK  6 active torsions:
REMARK  status: ('A' for Active; 'I' for Inactive)
REMARK    1  A    between atoms: C_1  and  N_2
REMARK    2  A    between atoms: C_4  and  C_5
REMARK    3  A    between atoms: C_5  and  C_7
REMARK    4  A    between atoms: C_8  and  O_9
REMARK    5  A    between atoms: C_8  and  C_10
REMARK    6  A    between atoms: C_10  and  O_12
REMARK                            x       y       z     vdW  Elec       q    Type
REMARK                         _______ _______ _______ _____ _____    ______ ____
ROOT
ATOM      1  C   UNL     1       7.673   5.940  19.067  0.00  0.00    +0.000 C 
ATOM      2  N   UNL     1       6.603   5.172  18.466  0.00  0.00    +0.000 N 
ATOM      3  C   UNL     1       5.558   4.595  19.148  0.00  0.00    +0.000 A 
ATOM      4  C   UNL     1       4.721   3.966  18.234  0.00  0.00    +0.000 A 
ATOM      5  C   UNL     1       5.337   4.158  16.944  0.00  0.00    +0.000 A 
ATOM      6  C   UNL     1       4.997   3.749  15.634  0.00  0.00    +0.000 A 
ATOM      7  C   UNL     1       5.803   4.117  14.553  0.00  0.00    +0.000 A 
ATOM      8  C   UNL     1       6.940   4.889  14.754  0.00  0.00    +0.000 A 
ATOM      9  C   UNL     1       7.306   5.305  16.037  0.00  0.00    +0.000 A 
ATOM     10  C   UNL     1       6.492   4.923  17.117  0.00  0.00    +0.000 A 
ENDROOT
BRANCH   4  11
ATOM     11  C   UNL     1       3.451   3.263  18.456  0.00  0.00    +0.000 C 
ATOM     12  O   UNL     1       2.512   3.341  17.673  0.00  0.00    +0.000 OA
BRANCH  11  13
ATOM     13  C   UNL     1       3.293   2.584  19.771  0.00  0.00    +0.000 C 
ATOM     14  C   UNL     1       2.578   3.059  20.806  0.00  0.00    +0.000 C 
BRANCH  14  15
ATOM     15  O   UNL     1       2.663   2.451  22.067  0.00  0.00    +0.000 OA
ATOM     16  H   UNL     1       2.346   3.077  22.741  0.00  0.00    +0.000 HD
ENDBRANCH  14  15
BRANCH  14  17
ATOM     17  C   UNL     1       1.652   4.246  20.749  0.00  0.00    +0.000 C 
ATOM     18  O   UNL     1       1.921   5.402  21.005  0.00  0.00    +0.000 OA
BRANCH  17  19
ATOM     19  O   UNL     1       0.461   3.851  20.228  0.00  0.00    +0.000 OA
ATOM     20  H   UNL     1      -0.207   4.557  20.356  0.00  0.00    +0.000 HD
ENDBRANCH  17  19
ENDBRANCH  14  17
ENDBRANCH  11  13
ENDBRANCH   4  11
TORSDOF 5
ENDMDL
MODEL 9
REMARK VINA RESULT:      -7.0      1.704      2.687
REMARK  Name = 
REMARK  6 active torsions:
REMARK  status: ('A' for Active; 'I' for Inactive)
REMARK    1  A    between atoms: C_1  and  N_2
REMARK    2  A    between atoms: C_4  and  C_5
REMARK    3  A    between atoms: C_5  and  C_7
REMARK    4  A    between atoms: C_8  and  O_9
REMARK    5  A    between atoms: C_8  and  C_10
REMARK    6  A    between atoms: C_10  and  O_12
REMARK                            x       y       z     vdW  Elec       q    Type
REMARK                         _______ _______ _______ _____ _____    ______ ____
ROOT
ATOM      1  C   UNL     1       3.338   1.379  18.309  0.00  0.00    +0.000 C 
ATOM      2  N   UNL     1       3.415   2.825  18.284  0.00  0.00    +0.000 N 
ATOM      3  C   UNL     1       4.177   3.565  17.411  0.00  0.00    +0.000 A 
ATOM      4  C   UNL     1       3.972   4.914  17.674  0.00  0.00    +0.000 A 
ATOM      5  C   UNL     1       3.064   4.962  18.794  0.00  0.00    +0.000 A 
ATOM      6  C   UNL     1       2.494   6.019  19.539  0.00  0.00    +0.000 A 
ATOM      7  C   UNL     1       1.608   5.742  20.585  0.00  0.00    +0.000 A 
ATOM      8  C   UNL     1       1.278   4.429  20.897  0.00  0.00    +0.000 A 
ATOM      9  C   UNL     1       1.829   3.361  20.183  0.00  0.00    +0.000 A 
ATOM     10  C   UNL     1       2.724   3.652  19.139  0.00  0.00    +0.000 A 
ENDROOT
BRANCH   4  11
ATOM     11  C   UNL     1       4.508   6.095  16.984  0.00  0.00    +0.000 C 
ATOM     12  O   UNL     1       4.050   7.219  17.154  0.00  0.00    +0.000 OA
BRANCH  11  13
ATOM     13  C   UNL     1       5.528   5.839  15.932  0.00  0.00    +0.000 C 
ATOM     14  C   UNL     1       6.840   5.644  16.155  0.00  0.00    +0.000 C 
BRANCH  14  15
ATOM     15  O   UNL     1       7.748   5.623  15.086  0.00  0.00    +0.000 OA
ATOM     16  H   UNL     1       7.307   5.249  14.305  0.00  0.00    +0.000 HD
ENDBRANCH  14  15
BRANCH  14  17
ATOM     17  C   UNL     1       7.469   5.444  17.509  0.00  0.00    +0.000 C 
ATOM     18  O   UNL     1       7.794   4.392  18.021  0.00  0.00    +0.000 OA
BRANCH  17  19
ATOM     19  O   UNL     1       7.752   6.659  18.047  0.00  0.00    +0.000 OA
ATOM     20  H   UNL     1       7.364   7.366  17.490  0.00  0.00    +0.000 HD
ENDBRANCH  17  19
ENDBRANCH  14  17
ENDBRANCH  11  13
ENDBRANCH   4  11
TORSDOF 5
ENDMDL
