MODEL 1
REMARK VINA RESULT:      -5.7      0.000      0.000
REMARK  Name = 
REMARK  4 active torsions:
REMARK  status: ('A' for Active; 'I' for Inactive)
REMARK    1  A    between atoms: C_1  and  C_2
REMARK    2  A    between atoms: C_2  and  O_3
REMARK    3  A    between atoms: O_3  and  C_4
REMARK    4  A    between atoms: C_7  and  N_8
REMARK                            x       y       z     vdW  Elec       q    Type
REMARK                         _______ _______ _______ _____ _____    ______ ____
ROOT
ATOM      1  C   UNL     1       2.361   4.563  18.740  0.00  0.00    +0.000 A 
ATOM      2  C   UNL     1       2.949   5.825  18.702  0.00  0.00    +0.000 A 
ATOM      3  C   UNL     1       3.981   6.105  17.804  0.00  0.00    +0.000 A 
ATOM      4  C   UNL     1       4.448   5.119  16.934  0.00  0.00    +0.000 A 
ATOM      5  C   UNL     1       3.863   3.847  16.981  0.00  0.00    +0.000 A 
ATOM      6  C   UNL     1       2.829   3.567  17.887  0.00  0.00    +0.000 A 
ENDROOT
BRANCH   4   7
ATOM      7  N   UNL     1       5.502   5.327  16.020  0.00  0.00    +0.000 N 
ATOM      8  C   UNL     1       6.813   4.959  16.170  0.00  0.00    +0.000 C 
ATOM      9  N   UNL     1       7.556   5.244  15.062  0.00  0.00    +0.000 N 
ATOM     10  O   UNL     1       7.358   4.439  17.131  0.00  0.00    +0.000 OA
ATOM     11  H   UNL     1       5.295   5.872  15.197  0.00  0.00    +0.000 HD
ATOM     12  H   UNL     1       7.132   5.052  14.167  0.00  0.00    +0.000 HD
ATOM     13  H   UNL     1       8.501   4.887  15.148  0.00  0.00    +0.000 HD
ENDBRANCH   4   7
BRANCH   1  14
ATOM     14  O   UNL     1       1.362   4.427  19.661  0.00  0.00    +0.000 OA
BRANCH  14  16
ATOM     15  C   UNL     1       1.858   3.038  21.519  0.00  0.00    +0.000 C 
ATOM     16  C   UNL     1       1.145   3.119  20.182  0.00  0.00    +0.000 C 
ENDBRANCH  14  16
ENDBRANCH   1  14
TORSDOF 3
ENDMDL
MODEL 2
REMARK VINA RESULT:      -5.7      1.025      1.146
REMARK  Name = 
REMARK  4 active torsions:
REMARK  status: ('A' for Active; 'I' for Inactive)
REMARK    1  A    between atoms: C_1  and  C_2
REMARK    2  A    between atoms: C_2  and  O_3
REMARK    3  A    between atoms: O_3  and  C_4
REMARK    4  A    between atoms: C_7  and  N_8
REMARK                            x       y       z     vdW  Elec       q    Type
REMARK                         _______ _______ _______ _____ _____    ______ ____
ROOT
ATOM      1  C   UNL     1       2.000   3.273  18.510  0.00  0.00    +0.000 A 
ATOM      2  C   UNL     1       2.302   4.616  18.294  0.00  0.00    +0.000 A 
ATOM      3  C   UNL     1       3.447   4.984  17.584  0.00  0.00    +0.000 A 
ATOM      4  C   UNL     1       4.316   4.012  17.087  0.00  0.00    +0.000 A 
ATOM      5  C   UNL     1       4.016   2.662  17.316  0.00  0.00    +0.000 A 
ATOM      6  C   UNL     1       2.867   2.294  18.032  0.00  0.00    +0.000 A 
ENDROOT
BRANCH   4   7
ATOM      7  N   UNL     1       5.499   4.314  16.384  0.00  0.00    +0.000 N 
ATOM      8  C   UNL     1       6.761   4.446  16.904  0.00  0.00    +0.000 C 
ATOM      9  N   UNL     1       7.694   4.670  15.934  0.00  0.00    +0.000 N 
ATOM     10  O   UNL     1       7.118   4.394  18.070  0.00  0.00    +0.000 OA
ATOM     11  H   UNL     1       5.408   4.535  15.405  0.00  0.00    +0.000 HD
ATOM     12  H   UNL     1       7.608   4.129  15.086  0.00  0.00    +0.000 HD
ATOM     13  H   UNL     1       8.633   4.675  16.318  0.00  0.00    +0.000 HD
ENDBRANCH   4   7
BRANCH   1  14
ATOM     14  O   UNL     1       0.851   3.054  19.214  0.00  0.00    +0.000 OA
BRANCH  14  16
ATOM     15  C   UNL     1       1.458   2.724  21.484  0.00  0.00    +0.000 C 
ATOM     16  C   UNL     1       0.766   3.653  20.504  0.00  0.00    +0.000 C 
ENDBRANCH  14  16
ENDBRANCH   1  14
TORSDOF 3
ENDMDL
MODEL 3
REMARK VINA RESULT:      -5.7      0.666      1.505
REMARK  Name = 
REMARK  4 active torsions:
REMARK  status: ('A' for Active; 'I' for Inactive)
REMARK    1  A    between atoms: C_1  and  C_2
REMARK    2  A    between atoms: C_2  and  O_3
REMARK    3  A    between atoms: O_3  and  C_4
REMARK    4  A    between atoms: C_7  and  N_8
REMARK                            x       y       z     vdW  Elec       q    Type
REMARK                         _______ _______ _______ _____ _____    ______ ____
ROOT
ATOM      1  C   UNL     1       2.851   4.967  18.718  0.00  0.00    +0.000 A 
ATOM      2  C   UNL     1       3.282   3.856  17.996  0.00  0.00    +0.000 A 
ATOM      3  C   UNL     1       4.229   3.990  16.979  0.00  0.00    +0.000 A 
ATOM      4  C   UNL     1       4.754   5.243  16.660  0.00  0.00    +0.000 A 
ATOM      5  C   UNL     1       4.311   6.360  17.380  0.00  0.00    +0.000 A 
ATOM      6  C   UNL     1       3.356   6.225  18.399  0.00  0.00    +0.000 A 
ENDROOT
BRANCH   4   7
ATOM      7  N   UNL     1       5.694   5.451  15.630  0.00  0.00    +0.000 N 
ATOM      8  C   UNL     1       7.006   5.055  15.614  0.00  0.00    +0.000 C 
ATOM      9  N   UNL     1       7.616   5.352  14.431  0.00  0.00    +0.000 N 
ATOM     10  O   UNL     1       7.651   4.504  16.493  0.00  0.00    +0.000 OA
ATOM     11  H   UNL     1       5.402   6.019  14.850  0.00  0.00    +0.000 HD
ATOM     12  H   UNL     1       7.084   5.188  13.590  0.00  0.00    +0.000 HD
ATOM     13  H   UNL     1       8.557   4.975  14.395  0.00  0.00    +0.000 HD
ENDBRANCH   4   7
BRANCH   1  14
ATOM     14  O   UNL     1       1.927   4.695  19.686  0.00  0.00    +0.000 OA
BRANCH  14  16
ATOM     15  C   UNL     1       1.273   2.912  21.108  0.00  0.00    +0.000 C 
ATOM     16  C   UNL     1       2.368   3.914  20.792  0.00  0.00    +0.000 C 
ENDBRANCH  14  16
ENDBRANCH   1  14
TORSDOF 3
ENDMDL
MODEL 4
REMARK VINA RESULT:      -5.7      1.171      1.667
REMARK  Name = 
REMARK  4 active torsions:
REMARK  status: ('A' for Active; 'I' for Inactive)
REMARK    1  A    between atoms: C_1  and  C_2
REMARK    2  A    between atoms: C_2  and  O_3
REMARK    3  A    between atoms: O_3  and  C_4
REMARK    4  A    between atoms: C_7  and  N_8
REMARK                            x       y       z     vdW  Elec       q    Type
REMARK                         _______ _______ _______ _____ _____    ______ ____
ROOT
ATOM      1  C   UNL     1       2.519   4.410  19.091  0.00  0.00    +0.000 A 
ATOM      2  C   UNL     1       2.523   3.735  17.872  0.00  0.00    +0.000 A 
ATOM      3  C   UNL     1       3.657   3.744  17.057  0.00  0.00    +0.000 A 
ATOM      4  C   UNL     1       4.803   4.439  17.444  0.00  0.00    +0.000 A 
ATOM      5  C   UNL     1       4.792   5.126  18.665  0.00  0.00    +0.000 A 
ATOM      6  C   UNL     1       3.651   5.121  19.481  0.00  0.00    +0.000 A 
ENDROOT
BRANCH   4   7
ATOM      7  N   UNL     1       5.972   4.508  16.659  0.00  0.00    +0.000 N 
ATOM      8  C   UNL     1       6.252   5.413  15.669  0.00  0.00    +0.000 C 
ATOM      9  N   UNL     1       7.506   5.243  15.159  0.00  0.00    +0.000 N 
ATOM     10  O   UNL     1       5.542   6.298  15.217  0.00  0.00    +0.000 OA
ATOM     11  H   UNL     1       6.649   3.770  16.777  0.00  0.00    +0.000 HD
ATOM     12  H   UNL     1       8.244   5.052  15.819  0.00  0.00    +0.000 HD
ATOM     13  H   UNL     1       7.736   5.973  14.493  0.00  0.00    +0.000 HD
ENDBRANCH   4   7
BRANCH   1  14
ATOM     14  O   UNL     1       1.349   4.317  19.789  0.00  0.00    +0.000 OA
BRANCH  14  16
ATOM     15  C   UNL     1       1.650   2.826  21.610  0.00  0.00    +0.000 C 
ATOM     16  C   UNL     1       0.985   3.023  20.260  0.00  0.00    +0.000 C 
ENDBRANCH  14  16
ENDBRANCH   1  14
TORSDOF 3
ENDMDL
MODEL 5
REMARK VINA RESULT:      -5.7      1.680      1.983
REMARK  Name = 
REMARK  4 active torsions:
REMARK  status: ('A' for Active; 'I' for Inactive)
REMARK    1  A    between atoms: C_1  and  C_2
REMARK    2  A    between atoms: C_2  and  O_3
REMARK    3  A    between atoms: O_3  and  C_4
REMARK    4  A    between atoms: C_7  and  N_8
REMARK                            x       y       z     vdW  Elec       q    Type
REMARK                         _______ _______ _______ _____ _____    ______ ____
ROOT
ATOM      1  C   UNL     1       3.275   2.925  18.571  0.00  0.00    +0.000 A 
ATOM      2  C   UNL     1       3.120   3.637  17.384  0.00  0.00    +0.000 A 
ATOM      3  C   UNL     1       4.009   4.661  17.045  0.00  0.00    +0.000 A 
ATOM      4  C   UNL     1       5.062   4.994  17.896  0.00  0.00    +0.000 A 
ATOM      5  C   UNL     1       5.209   4.283  19.095  0.00  0.00    +0.000 A 
ATOM      6  C   UNL     1       4.314   3.258  19.436  0.00  0.00    +0.000 A 
ENDROOT
BRANCH   4   7
ATOM      7  N   UNL     1       5.980   6.030  17.626  0.00  0.00    +0.000 N 
ATOM      8  C   UNL     1       7.103   5.959  16.843  0.00  0.00    +0.000 C 
ATOM      9  N   UNL     1       7.728   7.166  16.734  0.00  0.00    +0.000 N 
ATOM     10  O   UNL     1       7.578   4.990  16.272  0.00  0.00    +0.000 OA
ATOM     11  H   UNL     1       5.849   6.899  18.119  0.00  0.00    +0.000 HD
ATOM     12  H   UNL     1       7.139   7.975  16.607  0.00  0.00    +0.000 HD
ATOM     13  H   UNL     1       8.503   7.123  16.081  0.00  0.00    +0.000 HD
ENDBRANCH   4   7
BRANCH   1  14
ATOM     14  O   UNL     1       2.341   1.950  18.777  0.00  0.00    +0.000 OA
BRANCH  14  16
ATOM     15  C   UNL     1       0.780   3.115  20.133  0.00  0.00    +0.000 C 
ATOM     16  C   UNL     1       0.979   2.368  18.827  0.00  0.00    +0.000 C 
ENDBRANCH  14  16
ENDBRANCH   1  14
TORSDOF 3
ENDMDL
MODEL 6
REMARK VINA RESULT:      -5.7      1.172      1.172
REMARK  Name = 
REMARK  4 active torsions:
REMARK  status: ('A' for Active; 'I' for Inactive)
REMARK    1  A    between atoms: C_1  and  C_2
REMARK    2  A    between atoms: C_2  and  O_3
REMARK    3  A    between atoms: O_3  and  C_4
REMARK    4  A    between atoms: C_7  and  N_8
REMARK                            x       y       z     vdW  Elec       q    Type
REMARK                         _______ _______ _______ _____ _____    ______ ____
ROOT
ATOM      1  C   UNL     1       2.533   4.576  19.176  0.00  0.00    +0.000 A 
ATOM      2  C   UNL     1       3.640   5.329  19.560  0.00  0.00    +0.000 A 
ATOM      3  C   UNL     1       4.783   5.377  18.758  0.00  0.00    +0.000 A 
ATOM      4  C   UNL     1       4.839   4.662  17.562  0.00  0.00    +0.000 A 
ATOM      5  C   UNL     1       3.728   3.897  17.183  0.00  0.00    +0.000 A 
ATOM      6  C   UNL     1       2.582   3.845  17.991  0.00  0.00    +0.000 A 
ENDROOT
BRANCH   4   7
ATOM      7  N   UNL     1       5.968   4.648  16.718  0.00  0.00    +0.000 N 
ATOM      8  C   UNL     1       6.250   5.519  15.697  0.00  0.00    +0.000 C 
ATOM      9  N   UNL     1       7.465   5.266  15.129  0.00  0.00    +0.000 N 
ATOM     10  O   UNL     1       5.572   6.437  15.264  0.00  0.00    +0.000 OA
ATOM     11  H   UNL     1       6.606   3.874  16.817  0.00  0.00    +0.000 HD
ATOM     12  H   UNL     1       8.223   5.043  15.756  0.00  0.00    +0.000 HD
ATOM     13  H   UNL     1       7.703   5.969  14.439  0.00  0.00    +0.000 HD
ENDBRANCH   4   7
BRANCH   1  14
ATOM     14  O   UNL     1       1.483   4.619  20.048  0.00  0.00    +0.000 OA
BRANCH  14  16
ATOM     15  C   UNL     1       1.738   2.835  21.592  0.00  0.00    +0.000 C 
ATOM     16  C   UNL     1       0.917   3.369  20.433  0.00  0.00    +0.000 C 
ENDBRANCH  14  16
ENDBRANCH   1  14
TORSDOF 3
ENDMDL
MODEL 7
REMARK VINA RESULT:      -5.7      1.306      1.357
REMARK  Name = 
REMARK  4 active torsions:
REMARK  status: ('A' for Active; 'I' for Inactive)
REMARK    1  A    between atoms: C_1  and  C_2
REMARK    2  A    between atoms: C_2  and  O_3
REMARK    3  A    between atoms: O_3  and  C_4
REMARK    4  A    between atoms: C_7  and  N_8
REMARK                            x       y       z     vdW  Elec       q    Type
REMARK                         _______ _______ _______ _____ _____    ______ ____
ROOT
ATOM      1  C   UNL     1       3.570   3.340  19.370  0.00  0.00    +0.000 A 
ATOM      2  C   UNL     1       4.427   4.419  19.577  0.00  0.00    +0.000 A 
ATOM      3  C   UNL     1       5.146   4.973  18.516  0.00  0.00    +0.000 A 
ATOM      4  C   UNL     1       5.025   4.449  17.229  0.00  0.00    +0.000 A 
ATOM      5  C   UNL     1       4.171   3.357  17.025  0.00  0.00    +0.000 A 
ATOM      6  C   UNL     1       3.453   2.798  18.092  0.00  0.00    +0.000 A 
ENDROOT
BRANCH   4   7
ATOM      7  N   UNL     1       5.739   4.945  16.119  0.00  0.00    +0.000 N 
ATOM      8  C   UNL     1       7.088   4.858  15.895  0.00  0.00    +0.000 C 
ATOM      9  N   UNL     1       7.442   5.377  14.684  0.00  0.00    +0.000 N 
ATOM     10  O   UNL     1       7.957   4.398  16.620  0.00  0.00    +0.000 OA
ATOM     11  H   UNL     1       5.222   5.492  15.448  0.00  0.00    +0.000 HD
ATOM     12  H   UNL     1       6.840   5.164  13.903  0.00  0.00    +0.000 HD
ATOM     13  H   UNL     1       8.426   5.226  14.490  0.00  0.00    +0.000 HD
ENDBRANCH   4   7
BRANCH   1  14
ATOM     14  O   UNL     1       2.927   2.899  20.491  0.00  0.00    +0.000 OA
BRANCH  14  16
ATOM     15  C   UNL     1       0.863   4.066  20.405  0.00  0.00    +0.000 C 
ATOM     16  C   UNL     1       1.521   2.698  20.386  0.00  0.00    +0.000 C 
ENDBRANCH  14  16
ENDBRANCH   1  14
TORSDOF 3
ENDMDL
MODEL 8
REMARK VINA RESULT:      -5.6      1.271      1.858
REMARK  Name = 
REMARK  4 active torsions:
REMARK  status: ('A' for Active; 'I' for Inactive)
REMARK    1  A    between atoms: C_1  and  C_2
REMARK    2  A    between atoms: C_2  and  O_3
REMARK    3  A    between atoms: O_3  and  C_4
REMARK    4  A    between atoms: C_7  and  N_8
REMARK                            x       y       z     vdW  Elec       q    Type
REMARK                         _______ _______ _______ _____ _____    ______ ____
ROOT
ATOM      1  C   UNL     1       3.694   3.603  19.532  0.00  0.00    +0.000 A 
ATOM      2  C   UNL     1       3.647   2.835  18.370  0.00  0.00    +0.000 A 
ATOM      3  C   UNL     1       4.316   3.249  17.215  0.00  0.00    +0.000 A 
ATOM      4  C   UNL     1       5.034   4.445  17.203  0.00  0.00    +0.000 A 
ATOM      5  C   UNL     1       5.069   5.220  18.369  0.00  0.00    +0.000 A 
ATOM      6  C   UNL     1       4.395   4.806  19.527  0.00  0.00    +0.000 A 
ENDROOT
BRANCH   4   7
ATOM      7  N   UNL     1       5.710   4.932  16.066  0.00  0.00    +0.000 N 
ATOM      8  C   UNL     1       7.056   4.868  15.812  0.00  0.00    +0.000 C 
ATOM      9  N   UNL     1       7.370   5.369  14.582  0.00  0.00    +0.000 N 
ATOM     10  O   UNL     1       7.950   4.442  16.526  0.00  0.00    +0.000 OA
ATOM     11  H   UNL     1       5.167   5.453  15.396  0.00  0.00    +0.000 HD
ATOM     12  H   UNL     1       6.754   5.127  13.821  0.00  0.00    +0.000 HD
ATOM     13  H   UNL     1       8.352   5.234  14.368  0.00  0.00    +0.000 HD
ENDBRANCH   4   7
BRANCH   1  14
ATOM     14  O   UNL     1       3.001   3.081  20.587  0.00  0.00    +0.000 OA
BRANCH  14  16
ATOM     15  C   UNL     1       0.841   4.035  20.349  0.00  0.00    +0.000 C 
ATOM     16  C   UNL     1       1.637   2.743  20.353  0.00  0.00    +0.000 C 
ENDBRANCH  14  16
ENDBRANCH   1  14
TORSDOF 3
ENDMDL
MODEL 9
REMARK VINA RESULT:      -5.6      2.791      5.407
REMARK  Name = 
REMARK  4 active torsions:
REMARK  status: ('A' for Active; 'I' for Inactive)
REMARK    1  A    between atoms: C_1  and  C_2
REMARK    2  A    between atoms: C_2  and  O_3
REMARK    3  A    between atoms: O_3  and  C_4
REMARK    4  A    between atoms: C_7  and  N_8
REMARK                            x       y       z     vdW  Elec       q    Type
REMARK                         _______ _______ _______ _____ _____    ______ ____
ROOT
ATOM      1  C   UNL     1       5.494   6.269  16.864  0.00  0.00    +0.000 A 
ATOM      2  C   UNL     1       5.694   5.000  16.325  0.00  0.00    +0.000 A 
ATOM      3  C   UNL     1       4.747   3.990  16.508  0.00  0.00    +0.000 A 
ATOM      4  C   UNL     1       3.588   4.231  17.246  0.00  0.00    +0.000 A 
ATOM      5  C   UNL     1       3.395   5.505  17.797  0.00  0.00    +0.000 A 
ATOM      6  C   UNL     1       4.348   6.518  17.615  0.00  0.00    +0.000 A 
ENDROOT
BRANCH   4   7
ATOM      7  N   UNL     1       2.604   3.251  17.489  0.00  0.00    +0.000 N 
ATOM      8  C   UNL     1       2.496   2.442  18.591  0.00  0.00    +0.000 C 
ATOM      9  N   UNL     1       1.383   1.655  18.541  0.00  0.00    +0.000 N 
ATOM     10  O   UNL     1       3.246   2.350  19.550  0.00  0.00    +0.000 OA
ATOM     11  H   UNL     1       1.949   3.063  16.747  0.00  0.00    +0.000 HD
ATOM     12  H   UNL     1       0.533   2.089  18.213  0.00  0.00    +0.000 HD
ATOM     13  H   UNL     1       1.264   1.128  19.399  0.00  0.00    +0.000 HD
ENDBRANCH   4   7
BRANCH   1  14
ATOM     14  O   UNL     1       6.495   7.161  16.606  0.00  0.00    +0.000 OA
BRANCH  14  16
ATOM     15  C   UNL     1       7.899   8.704  17.737  0.00  0.00    +0.000 C 
ATOM     16  C   UNL     1       7.548   7.238  17.563  0.00  0.00    +0.000 C 
ENDBRANCH  14  16
ENDBRANCH   1  14
TORSDOF 3
ENDMDL
