MODEL 1
REMARK VINA RESULT:      -6.6      0.000      0.000
REMARK  Name = 
REMARK  10 active torsions:
REMARK  status: ('A' for Active; 'I' for Inactive)
REMARK    1  A    between atoms: C_1  and  C_2
REMARK    2  A    between atoms: C_2  and  O_3
REMARK    3  A    between atoms: O_3  and  C_4
REMARK    4  A    between atoms: C_4  and  C_6
REMARK    5  A    between atoms: C_11  and  C_13
REMARK    6  A    between atoms: C_13  and  N_14
REMARK    7  A    between atoms: C_22  and  C_23
REMARK    8  A    between atoms: C_23  and  C_24
REMARK    9  A    between atoms: C_23  and  C_25
REMARK   10  A    between atoms: C_23  and  C_26
REMARK                            x       y       z     vdW  Elec       q    Type
REMARK                         _______ _______ _______ _____ _____    ______ ____
ROOT
ATOM      1  N   UNL     1      -4.185  11.896  18.480  0.00  0.00    +0.000 N 
ATOM      2  C   UNL     1      -4.883  11.904  17.282  0.00  0.00    +0.000 C 
ATOM      3  O   UNL     1      -5.938  12.513  17.097  0.00  0.00    +0.000 OA
ATOM      4  C   UNL     1      -4.233  11.157  16.124  0.00  0.00    +0.000 C 
ATOM      5  O   UNL     1      -3.232  10.198  16.374  0.00  0.00    +0.000 OA
ATOM      6  C   UNL     1      -2.464  10.496  17.463  0.00  0.00    +0.000 A 
ATOM      7  C   UNL     1      -1.204   9.902  17.484  0.00  0.00    +0.000 A 
ATOM      8  C   UNL     1      -0.341  10.118  18.558  0.00  0.00    +0.000 A 
ATOM      9  C   UNL     1      -0.730  10.906  19.651  0.00  0.00    +0.000 A 
ATOM     10  C   UNL     1      -2.014  11.490  19.601  0.00  0.00    +0.000 A 
ATOM     11  C   UNL     1      -2.895  11.294  18.526  0.00  0.00    +0.000 A 
ENDROOT
BRANCH   9  12
ATOM     12  C   UNL     1       0.215  11.175  20.838  0.00  0.00    +0.000 C 
ATOM     13  C   UNL     1      -0.622  11.719  22.012  0.00  0.00    +0.000 C 
ATOM     14  C   UNL     1       0.953   9.899  21.306  0.00  0.00    +0.000 C 
ATOM     15  C   UNL     1       1.312  12.210  20.498  0.00  0.00    +0.000 C 
ENDBRANCH   9  12
BRANCH   1  16
ATOM     16  C   UNL     1      -4.754  12.573  19.653  0.00  0.00    +0.000 C 
BRANCH  16  22
ATOM     17  C   UNL     1      -6.218  13.836  23.242  0.00  0.00    +0.000 C 
ATOM     18  C   UNL     1      -7.418  13.192  23.952  0.00  0.00    +0.000 C 
ATOM     19  C   UNL     1      -7.815  11.835  23.352  0.00  0.00    +0.000 C 
ATOM     20  C   UNL     1      -7.916  11.866  21.824  0.00  0.00    +0.000 C 
ATOM     21  N   UNL     1      -6.755  12.525  21.224  0.00  0.00    +0.000 N 
ATOM     22  C   UNL     1      -5.984  11.863  20.270  0.00  0.00    +0.000 C 
ATOM     23  O   UNL     1      -6.270  10.721  19.902  0.00  0.00    +0.000 OA
ATOM     24  C   UNL     1      -6.487  13.865  21.739  0.00  0.00    +0.000 C 
BRANCH  17  25
ATOM     25  C   UNL     1      -4.864  13.174  23.478  0.00  0.00    +0.000 C 
ATOM     26  O   UNL     1      -4.733  12.095  24.043  0.00  0.00    +0.000 OA
BRANCH  25  27
ATOM     27  O   UNL     1      -3.830  13.953  23.068  0.00  0.00    +0.000 OA
BRANCH  27  29
ATOM     28  C   UNL     1      -2.684  15.323  24.700  0.00  0.00    +0.000 C 
ATOM     29  C   UNL     1      -2.691  14.017  23.936  0.00  0.00    +0.000 C 
ENDBRANCH  27  29
ENDBRANCH  25  27
ENDBRANCH  17  25
ENDBRANCH  16  22
ENDBRANCH   1  16
TORSDOF 6
ENDMDL
MODEL 2
REMARK VINA RESULT:      -6.6      2.239      7.583
REMARK  Name = 
REMARK  10 active torsions:
REMARK  status: ('A' for Active; 'I' for Inactive)
REMARK    1  A    between atoms: C_1  and  C_2
REMARK    2  A    between atoms: C_2  and  O_3
REMARK    3  A    between atoms: O_3  and  C_4
REMARK    4  A    between atoms: C_4  and  C_6
REMARK    5  A    between atoms: C_11  and  C_13
REMARK    6  A    between atoms: C_13  and  N_14
REMARK    7  A    between atoms: C_22  and  C_23
REMARK    8  A    between atoms: C_23  and  C_24
REMARK    9  A    between atoms: C_23  and  C_25
REMARK   10  A    between atoms: C_23  and  C_26
REMARK                            x       y       z     vdW  Elec       q    Type
REMARK                         _______ _______ _______ _____ _____    ______ ____
ROOT
ATOM      1  N   UNL     1      -2.288  13.613  22.806  0.00  0.00    +0.000 N 
ATOM      2  C   UNL     1      -1.783  14.344  23.870  0.00  0.00    +0.000 C 
ATOM      3  O   UNL     1      -0.612  14.718  23.961  0.00  0.00    +0.000 OA
ATOM      4  C   UNL     1      -2.789  14.753  24.939  0.00  0.00    +0.000 C 
ATOM      5  O   UNL     1      -4.023  14.082  25.041  0.00  0.00    +0.000 OA
ATOM      6  C   UNL     1      -4.500  13.650  23.836  0.00  0.00    +0.000 A 
ATOM      7  C   UNL     1      -5.876  13.437  23.783  0.00  0.00    +0.000 A 
ATOM      8  C   UNL     1      -6.472  12.974  22.609  0.00  0.00    +0.000 A 
ATOM      9  C   UNL     1      -5.701  12.683  21.474  0.00  0.00    +0.000 A 
ATOM     10  C   UNL     1      -4.311  12.907  21.562  0.00  0.00    +0.000 A 
ATOM     11  C   UNL     1      -3.692  13.381  22.729  0.00  0.00    +0.000 A 
ENDROOT
BRANCH   9  12
ATOM     12  C   UNL     1      -6.341  12.192  20.161  0.00  0.00    +0.000 C 
ATOM     13  C   UNL     1      -7.109  10.888  20.451  0.00  0.00    +0.000 C 
ATOM     14  C   UNL     1      -7.326  13.224  19.562  0.00  0.00    +0.000 C 
ATOM     15  C   UNL     1      -5.291  11.908  19.062  0.00  0.00    +0.000 C 
ENDBRANCH   9  12
BRANCH   1  16
ATOM     16  C   UNL     1      -1.381  13.159  21.744  0.00  0.00    +0.000 C 
BRANCH  16  22
ATOM     17  C   UNL     1       0.508  11.201  18.707  0.00  0.00    +0.000 C 
ATOM     18  C   UNL     1       1.193   9.835  18.864  0.00  0.00    +0.000 C 
ATOM     19  C   UNL     1       0.828   9.127  20.176  0.00  0.00    +0.000 C 
ATOM     20  C   UNL     1       0.939  10.042  21.399  0.00  0.00    +0.000 C 
ATOM     21  N   UNL     1       0.294  11.334  21.160  0.00  0.00    +0.000 N 
ATOM     22  C   UNL     1      -0.704  11.793  22.018  0.00  0.00    +0.000 C 
ATOM     23  O   UNL     1      -1.052  11.132  22.999  0.00  0.00    +0.000 OA
ATOM     24  C   UNL     1       0.761  12.031  19.964  0.00  0.00    +0.000 C 
BRANCH  17  25
ATOM     25  C   UNL     1      -0.994  11.172  18.441  0.00  0.00    +0.000 C 
ATOM     26  O   UNL     1      -1.723  12.144  18.599  0.00  0.00    +0.000 OA
BRANCH  25  27
ATOM     27  O   UNL     1      -1.433   9.935  18.096  0.00  0.00    +0.000 OA
BRANCH  27  29
ATOM     28  C   UNL     1      -2.616   9.974  15.985  0.00  0.00    +0.000 C 
ATOM     29  C   UNL     1      -2.730   9.859  17.489  0.00  0.00    +0.000 C 
ENDBRANCH  27  29
ENDBRANCH  25  27
ENDBRANCH  17  25
ENDBRANCH  16  22
ENDBRANCH   1  16
TORSDOF 6
ENDMDL
MODEL 3
REMARK VINA RESULT:      -6.5      0.540      1.036
REMARK  Name = 
REMARK  10 active torsions:
REMARK  status: ('A' for Active; 'I' for Inactive)
REMARK    1  A    between atoms: C_1  and  C_2
REMARK    2  A    between atoms: C_2  and  O_3
REMARK    3  A    between atoms: O_3  and  C_4
REMARK    4  A    between atoms: C_4  and  C_6
REMARK    5  A    between atoms: C_11  and  C_13
REMARK    6  A    between atoms: C_13  and  N_14
REMARK    7  A    between atoms: C_22  and  C_23
REMARK    8  A    between atoms: C_23  and  C_24
REMARK    9  A    between atoms: C_23  and  C_25
REMARK   10  A    between atoms: C_23  and  C_26
REMARK                            x       y       z     vdW  Elec       q    Type
REMARK                         _______ _______ _______ _____ _____    ______ ____
ROOT
ATOM      1  N   UNL     1      -3.981  11.785  18.364  0.00  0.00    +0.000 N 
ATOM      2  C   UNL     1      -4.610  11.808  17.127  0.00  0.00    +0.000 C 
ATOM      3  O   UNL     1      -5.656  12.415  16.893  0.00  0.00    +0.000 OA
ATOM      4  C   UNL     1      -3.890  11.083  15.997  0.00  0.00    +0.000 C 
ATOM      5  O   UNL     1      -2.900  10.125  16.290  0.00  0.00    +0.000 OA
ATOM      6  C   UNL     1      -2.197  10.410  17.425  0.00  0.00    +0.000 A 
ATOM      7  C   UNL     1      -0.936   9.822  17.509  0.00  0.00    +0.000 A 
ATOM      8  C   UNL     1      -0.137  10.025  18.633  0.00  0.00    +0.000 A 
ATOM      9  C   UNL     1      -0.593  10.794  19.714  0.00  0.00    +0.000 A 
ATOM     10  C   UNL     1      -1.875  11.373  19.600  0.00  0.00    +0.000 A 
ATOM     11  C   UNL     1      -2.692  11.189  18.474  0.00  0.00    +0.000 A 
ENDROOT
BRANCH   9  12
ATOM     12  C   UNL     1       0.281  11.050  20.957  0.00  0.00    +0.000 C 
ATOM     13  C   UNL     1       1.188   9.823  21.176  0.00  0.00    +0.000 C 
ATOM     14  C   UNL     1       1.175  12.304  20.803  0.00  0.00    +0.000 C 
ATOM     15  C   UNL     1      -0.558  11.272  22.236  0.00  0.00    +0.000 C 
ENDBRANCH   9  12
BRANCH   1  16
ATOM     16  C   UNL     1      -4.619  12.441  19.512  0.00  0.00    +0.000 C 
BRANCH  16  22
ATOM     17  C   UNL     1      -6.321  13.664  23.010  0.00  0.00    +0.000 C 
ATOM     18  C   UNL     1      -7.562  13.009  23.633  0.00  0.00    +0.000 C 
ATOM     19  C   UNL     1      -7.914  11.658  22.994  0.00  0.00    +0.000 C 
ATOM     20  C   UNL     1      -7.916  11.704  21.463  0.00  0.00    +0.000 C 
ATOM     21  N   UNL     1      -6.719  12.372  20.947  0.00  0.00    +0.000 N 
ATOM     22  C   UNL     1      -5.885  11.721  20.040  0.00  0.00    +0.000 C 
ATOM     23  O   UNL     1      -6.143  10.583  19.643  0.00  0.00    +0.000 OA
ATOM     24  C   UNL     1      -6.490  13.707  21.493  0.00  0.00    +0.000 C 
BRANCH  17  25
ATOM     25  C   UNL     1      -4.983  13.003  23.328  0.00  0.00    +0.000 C 
ATOM     26  O   UNL     1      -4.823  12.224  24.260  0.00  0.00    +0.000 OA
BRANCH  25  27
ATOM     27  O   UNL     1      -3.986  13.440  22.517  0.00  0.00    +0.000 OA
BRANCH  27  29
ATOM     28  C   UNL     1      -1.975  14.762  22.268  0.00  0.00    +0.000 C 
ATOM     29  C   UNL     1      -2.758  13.817  23.153  0.00  0.00    +0.000 C 
ENDBRANCH  27  29
ENDBRANCH  25  27
ENDBRANCH  17  25
ENDBRANCH  16  22
ENDBRANCH   1  16
TORSDOF 6
ENDMDL
MODEL 4
REMARK VINA RESULT:      -6.5      0.822      1.062
REMARK  Name = 
REMARK  10 active torsions:
REMARK  status: ('A' for Active; 'I' for Inactive)
REMARK    1  A    between atoms: C_1  and  C_2
REMARK    2  A    between atoms: C_2  and  O_3
REMARK    3  A    between atoms: O_3  and  C_4
REMARK    4  A    between atoms: C_4  and  C_6
REMARK    5  A    between atoms: C_11  and  C_13
REMARK    6  A    between atoms: C_13  and  N_14
REMARK    7  A    between atoms: C_22  and  C_23
REMARK    8  A    between atoms: C_23  and  C_24
REMARK    9  A    between atoms: C_23  and  C_25
REMARK   10  A    between atoms: C_23  and  C_26
REMARK                            x       y       z     vdW  Elec       q    Type
REMARK                         _______ _______ _______ _____ _____    ______ ____
ROOT
ATOM      1  N   UNL     1      -4.529  12.146  18.537  0.00  0.00    +0.000 N 
ATOM      2  C   UNL     1      -5.162  12.062  17.305  0.00  0.00    +0.000 C 
ATOM      3  O   UNL     1      -6.209  12.646  17.023  0.00  0.00    +0.000 OA
ATOM      4  C   UNL     1      -4.445  11.243  16.239  0.00  0.00    +0.000 C 
ATOM      5  O   UNL     1      -3.453  10.314  16.610  0.00  0.00    +0.000 OA
ATOM      6  C   UNL     1      -2.746  10.696  17.715  0.00  0.00    +0.000 A 
ATOM      7  C   UNL     1      -1.485  10.119  17.844  0.00  0.00    +0.000 A 
ATOM      8  C   UNL     1      -0.683  10.418  18.945  0.00  0.00    +0.000 A 
ATOM      9  C   UNL     1      -1.136  11.277  19.958  0.00  0.00    +0.000 A 
ATOM     10  C   UNL     1      -2.419  11.842  19.798  0.00  0.00    +0.000 A 
ATOM     11  C   UNL     1      -3.239  11.562  18.694  0.00  0.00    +0.000 A 
ENDROOT
BRANCH   9  12
ATOM     12  C   UNL     1      -0.258  11.639  21.171  0.00  0.00    +0.000 C 
ATOM     13  C   UNL     1       0.290  13.064  20.967  0.00  0.00    +0.000 C 
ATOM     14  C   UNL     1      -1.046  11.598  22.502  0.00  0.00    +0.000 C 
ATOM     15  C   UNL     1       0.937  10.674  21.346  0.00  0.00    +0.000 C 
ENDBRANCH   9  12
BRANCH   1  16
ATOM     16  C   UNL     1      -5.165  12.897  19.627  0.00  0.00    +0.000 C 
BRANCH  16  22
ATOM     17  C   UNL     1      -6.424  14.322  23.234  0.00  0.00    +0.000 C 
ATOM     18  C   UNL     1      -7.418  13.587  24.145  0.00  0.00    +0.000 C 
ATOM     19  C   UNL     1      -7.648  12.127  23.731  0.00  0.00    +0.000 C 
ATOM     20  C   UNL     1      -7.917  11.967  22.231  0.00  0.00    +0.000 C 
ATOM     21  N   UNL     1      -6.951  12.723  21.431  0.00  0.00    +0.000 N 
ATOM     22  C   UNL     1      -6.188  12.083  20.457  0.00  0.00    +0.000 C 
ATOM     23  O   UNL     1      -6.320  10.876  20.237  0.00  0.00    +0.000 OA
ATOM     24  C   UNL     1      -6.853  14.139  21.780  0.00  0.00    +0.000 C 
BRANCH  17  25
ATOM     25  C   UNL     1      -4.962  13.905  23.362  0.00  0.00    +0.000 C 
ATOM     26  O   UNL     1      -4.551  13.158  24.241  0.00  0.00    +0.000 OA
BRANCH  25  27
ATOM     27  O   UNL     1      -4.168  14.520  22.448  0.00  0.00    +0.000 OA
BRANCH  27  29
ATOM     28  C   UNL     1      -2.166  15.752  21.873  0.00  0.00    +0.000 C 
ATOM     29  C   UNL     1      -2.821  14.801  22.851  0.00  0.00    +0.000 C 
ENDBRANCH  27  29
ENDBRANCH  25  27
ENDBRANCH  17  25
ENDBRANCH  16  22
ENDBRANCH   1  16
TORSDOF 6
ENDMDL
MODEL 5
REMARK VINA RESULT:      -6.2      8.717     11.768
REMARK  Name = 
REMARK  10 active torsions:
REMARK  status: ('A' for Active; 'I' for Inactive)
REMARK    1  A    between atoms: C_1  and  C_2
REMARK    2  A    between atoms: C_2  and  O_3
REMARK    3  A    between atoms: O_3  and  C_4
REMARK    4  A    between atoms: C_4  and  C_6
REMARK    5  A    between atoms: C_11  and  C_13
REMARK    6  A    between atoms: C_13  and  N_14
REMARK    7  A    between atoms: C_22  and  C_23
REMARK    8  A    between atoms: C_23  and  C_24
REMARK    9  A    between atoms: C_23  and  C_25
REMARK   10  A    between atoms: C_23  and  C_26
REMARK                            x       y       z     vdW  Elec       q    Type
REMARK                         _______ _______ _______ _____ _____    ______ ____
ROOT
ATOM      1  N   UNL     1       7.960  16.129  19.013  0.00  0.00    +0.000 N 
ATOM      2  C   UNL     1       7.940  17.505  18.835  0.00  0.00    +0.000 C 
ATOM      3  O   UNL     1       7.029  18.241  19.217  0.00  0.00    +0.000 OA
ATOM      4  C   UNL     1       9.177  18.113  18.185  0.00  0.00    +0.000 C 
ATOM      5  O   UNL     1      10.063  17.299  17.453  0.00  0.00    +0.000 OA
ATOM      6  C   UNL     1      10.149  16.026  17.940  0.00  0.00    +0.000 A 
ATOM      7  C   UNL     1      11.314  15.339  17.607  0.00  0.00    +0.000 A 
ATOM      8  C   UNL     1      11.502  14.023  18.031  0.00  0.00    +0.000 A 
ATOM      9  C   UNL     1      10.515  13.355  18.770  0.00  0.00    +0.000 A 
ATOM     10  C   UNL     1       9.345  14.077  19.088  0.00  0.00    +0.000 A 
ATOM     11  C   UNL     1       9.140  15.405  18.680  0.00  0.00    +0.000 A 
ENDROOT
BRANCH   9  12
ATOM     12  C   UNL     1      10.710  11.910  19.268  0.00  0.00    +0.000 C 
ATOM     13  C   UNL     1      12.209  11.563  19.181  0.00  0.00    +0.000 C 
ATOM     14  C   UNL     1      10.243  11.721  20.731  0.00  0.00    +0.000 C 
ATOM     15  C   UNL     1       9.919  10.882  18.427  0.00  0.00    +0.000 C 
ENDBRANCH   9  12
BRANCH   1  16
ATOM     16  C   UNL     1       6.797  15.461  19.611  0.00  0.00    +0.000 C 
BRANCH  16  22
ATOM     17  C   UNL     1       2.885  15.736  20.727  0.00  0.00    +0.000 C 
ATOM     18  C   UNL     1       1.706  15.368  19.814  0.00  0.00    +0.000 C 
ATOM     19  C   UNL     1       2.135  14.586  18.565  0.00  0.00    +0.000 C 
ATOM     20  C   UNL     1       3.328  15.220  17.843  0.00  0.00    +0.000 C 
ATOM     21  N   UNL     1       4.394  15.575  18.783  0.00  0.00    +0.000 N 
ATOM     22  C   UNL     1       5.685  15.082  18.602  0.00  0.00    +0.000 C 
ATOM     23  O   UNL     1       5.960  14.355  17.645  0.00  0.00    +0.000 OA
ATOM     24  C   UNL     1       3.965  16.422  19.893  0.00  0.00    +0.000 C 
BRANCH  17  25
ATOM     25  C   UNL     1       3.527  14.583  21.493  0.00  0.00    +0.000 C 
ATOM     26  O   UNL     1       3.044  13.459  21.543  0.00  0.00    +0.000 OA
BRANCH  25  27
ATOM     27  O   UNL     1       4.637  14.970  22.173  0.00  0.00    +0.000 OA
BRANCH  27  29
ATOM     28  C   UNL     1       6.483  14.558  23.682  0.00  0.00    +0.000 C 
ATOM     29  C   UNL     1       5.276  13.973  22.980  0.00  0.00    +0.000 C 
ENDBRANCH  27  29
ENDBRANCH  25  27
ENDBRANCH  17  25
ENDBRANCH  16  22
ENDBRANCH   1  16
TORSDOF 6
ENDMDL
MODEL 6
REMARK VINA RESULT:      -6.2      1.562      2.144
REMARK  Name = 
REMARK  10 active torsions:
REMARK  status: ('A' for Active; 'I' for Inactive)
REMARK    1  A    between atoms: C_1  and  C_2
REMARK    2  A    between atoms: C_2  and  O_3
REMARK    3  A    between atoms: O_3  and  C_4
REMARK    4  A    between atoms: C_4  and  C_6
REMARK    5  A    between atoms: C_11  and  C_13
REMARK    6  A    between atoms: C_13  and  N_14
REMARK    7  A    between atoms: C_22  and  C_23
REMARK    8  A    between atoms: C_23  and  C_24
REMARK    9  A    between atoms: C_23  and  C_25
REMARK   10  A    between atoms: C_23  and  C_26
REMARK                            x       y       z     vdW  Elec       q    Type
REMARK                         _______ _______ _______ _____ _____    ______ ____
ROOT
ATOM      1  N   UNL     1      -4.502  12.484  19.005  0.00  0.00    +0.000 N 
ATOM      2  C   UNL     1      -5.602  12.843  18.241  0.00  0.00    +0.000 C 
ATOM      3  O   UNL     1      -6.428  13.696  18.570  0.00  0.00    +0.000 OA
ATOM      4  C   UNL     1      -5.722  12.166  16.881  0.00  0.00    +0.000 C 
ATOM      5  O   UNL     1      -5.011  10.978  16.617  0.00  0.00    +0.000 OA
ATOM      6  C   UNL     1      -3.812  10.916  17.268  0.00  0.00    +0.000 A 
ATOM      7  C   UNL     1      -2.872  10.058  16.701  0.00  0.00    +0.000 A 
ATOM      8  C   UNL     1      -1.618   9.896  17.291  0.00  0.00    +0.000 A 
ATOM      9  C   UNL     1      -1.289  10.564  18.480  0.00  0.00    +0.000 A 
ATOM     10  C   UNL     1      -2.264  11.423  19.030  0.00  0.00    +0.000 A 
ATOM     11  C   UNL     1      -3.527  11.608  18.447  0.00  0.00    +0.000 A 
ENDROOT
BRANCH   9  12
ATOM     12  C   UNL     1       0.097  10.418  19.138  0.00  0.00    +0.000 C 
ATOM     13  C   UNL     1       0.655  11.827  19.416  0.00  0.00    +0.000 C 
ATOM     14  C   UNL     1       0.037   9.639  20.474  0.00  0.00    +0.000 C 
ATOM     15  C   UNL     1       1.102   9.661  18.241  0.00  0.00    +0.000 C 
ENDBRANCH   9  12
BRANCH   1  16
ATOM     16  C   UNL     1      -4.325  13.073  20.339  0.00  0.00    +0.000 C 
BRANCH  16  22
ATOM     17  C   UNL     1      -5.395  16.157  22.781  0.00  0.00    +0.000 C 
ATOM     18  C   UNL     1      -6.576  16.103  23.762  0.00  0.00    +0.000 C 
ATOM     19  C   UNL     1      -7.116  14.681  23.974  0.00  0.00    +0.000 C 
ATOM     20  C   UNL     1      -7.341  13.926  22.661  0.00  0.00    +0.000 C 
ATOM     21  N   UNL     1      -6.189  14.054  21.767  0.00  0.00    +0.000 N 
ATOM     22  C   UNL     1      -5.548  12.918  21.277  0.00  0.00    +0.000 C 
ATOM     23  O   UNL     1      -5.944  11.787  21.570  0.00  0.00    +0.000 OA
ATOM     24  C   UNL     1      -5.784  15.431  21.495  0.00  0.00    +0.000 C 
BRANCH  17  25
ATOM     25  C   UNL     1      -4.077  15.577  23.284  0.00  0.00    +0.000 C 
ATOM     26  O   UNL     1      -3.016  15.704  22.686  0.00  0.00    +0.000 OA
BRANCH  25  27
ATOM     27  O   UNL     1      -4.235  14.840  24.413  0.00  0.00    +0.000 OA
BRANCH  27  29
ATOM     28  C   UNL     1      -4.405  12.452  24.760  0.00  0.00    +0.000 C 
ATOM     29  C   UNL     1      -3.483  13.623  24.498  0.00  0.00    +0.000 C 
ENDBRANCH  27  29
ENDBRANCH  25  27
ENDBRANCH  17  25
ENDBRANCH  16  22
ENDBRANCH   1  16
TORSDOF 6
ENDMDL
MODEL 7
REMARK VINA RESULT:      -6.2      1.031      1.309
REMARK  Name = 
REMARK  10 active torsions:
REMARK  status: ('A' for Active; 'I' for Inactive)
REMARK    1  A    between atoms: C_1  and  C_2
REMARK    2  A    between atoms: C_2  and  O_3
REMARK    3  A    between atoms: O_3  and  C_4
REMARK    4  A    between atoms: C_4  and  C_6
REMARK    5  A    between atoms: C_11  and  C_13
REMARK    6  A    between atoms: C_13  and  N_14
REMARK    7  A    between atoms: C_22  and  C_23
REMARK    8  A    between atoms: C_23  and  C_24
REMARK    9  A    between atoms: C_23  and  C_25
REMARK   10  A    between atoms: C_23  and  C_26
REMARK                            x       y       z     vdW  Elec       q    Type
REMARK                         _______ _______ _______ _____ _____    ______ ____
ROOT
ATOM      1  N   UNL     1      -4.718  12.263  18.513  0.00  0.00    +0.000 N 
ATOM      2  C   UNL     1      -5.343  11.964  17.311  0.00  0.00    +0.000 C 
ATOM      3  O   UNL     1      -6.416  12.447  16.949  0.00  0.00    +0.000 OA
ATOM      4  C   UNL     1      -4.584  11.029  16.377  0.00  0.00    +0.000 C 
ATOM      5  O   UNL     1      -3.549  10.216  16.879  0.00  0.00    +0.000 OA
ATOM      6  C   UNL     1      -2.865  10.794  17.910  0.00  0.00    +0.000 A 
ATOM      7  C   UNL     1      -1.577  10.304  18.119  0.00  0.00    +0.000 A 
ATOM      8  C   UNL     1      -0.793  10.804  19.158  0.00  0.00    +0.000 A 
ATOM      9  C   UNL     1      -1.290  11.783  20.032  0.00  0.00    +0.000 A 
ATOM     10  C   UNL     1      -2.598  12.255  19.795  0.00  0.00    +0.000 A 
ATOM     11  C   UNL     1      -3.401  11.773  18.750  0.00  0.00    +0.000 A 
ENDROOT
BRANCH   9  12
ATOM     12  C   UNL     1      -0.434  12.365  21.173  0.00  0.00    +0.000 C 
ATOM     13  C   UNL     1      -0.856  11.689  22.492  0.00  0.00    +0.000 C 
ATOM     14  C   UNL     1       1.079  12.127  20.957  0.00  0.00    +0.000 C 
ATOM     15  C   UNL     1      -0.613  13.893  21.327  0.00  0.00    +0.000 C 
ENDBRANCH   9  12
BRANCH   1  16
ATOM     16  C   UNL     1      -5.392  13.139  19.481  0.00  0.00    +0.000 C 
BRANCH  16  22
ATOM     17  C   UNL     1      -6.346  15.025  22.967  0.00  0.00    +0.000 C 
ATOM     18  C   UNL     1      -7.146  14.371  24.103  0.00  0.00    +0.000 C 
ATOM     19  C   UNL     1      -7.278  12.849  23.948  0.00  0.00    +0.000 C 
ATOM     20  C   UNL     1      -7.707  12.428  22.539  0.00  0.00    +0.000 C 
ATOM     21  N   UNL     1      -6.923  13.118  21.513  0.00  0.00    +0.000 N 
ATOM     22  C   UNL     1      -6.223  12.391  20.553  0.00  0.00    +0.000 C 
ATOM     23  O   UNL     1      -6.259  11.158  20.537  0.00  0.00    +0.000 OA
ATOM     24  C   UNL     1      -6.926  14.575  21.628  0.00  0.00    +0.000 C 
BRANCH  17  25
ATOM     25  C   UNL     1      -4.845  14.751  22.960  0.00  0.00    +0.000 C 
ATOM     26  O   UNL     1      -4.154  14.825  21.951  0.00  0.00    +0.000 OA
BRANCH  25  27
ATOM     27  O   UNL     1      -4.390  14.340  24.170  0.00  0.00    +0.000 OA
BRANCH  27  29
ATOM     28  C   UNL     1      -2.073  14.849  24.650  0.00  0.00    +0.000 C 
ATOM     29  C   UNL     1      -3.519  15.239  24.869  0.00  0.00    +0.000 C 
ENDBRANCH  27  29
ENDBRANCH  25  27
ENDBRANCH  17  25
ENDBRANCH  16  22
ENDBRANCH   1  16
TORSDOF 6
ENDMDL
MODEL 8
REMARK VINA RESULT:      -6.1      1.915      3.240
REMARK  Name = 
REMARK  10 active torsions:
REMARK  status: ('A' for Active; 'I' for Inactive)
REMARK    1  A    between atoms: C_1  and  C_2
REMARK    2  A    between atoms: C_2  and  O_3
REMARK    3  A    between atoms: O_3  and  C_4
REMARK    4  A    between atoms: C_4  and  C_6
REMARK    5  A    between atoms: C_11  and  C_13
REMARK    6  A    between atoms: C_13  and  N_14
REMARK    7  A    between atoms: C_22  and  C_23
REMARK    8  A    between atoms: C_23  and  C_24
REMARK    9  A    between atoms: C_23  and  C_25
REMARK   10  A    between atoms: C_23  and  C_26
REMARK                            x       y       z     vdW  Elec       q    Type
REMARK                         _______ _______ _______ _____ _____    ______ ____
ROOT
ATOM      1  N   UNL     1      -4.857  12.988  19.335  0.00  0.00    +0.000 N 
ATOM      2  C   UNL     1      -6.107  13.194  18.769  0.00  0.00    +0.000 C 
ATOM      3  O   UNL     1      -6.833  14.156  19.023  0.00  0.00    +0.000 OA
ATOM      4  C   UNL     1      -6.541  12.179  17.719  0.00  0.00    +0.000 C 
ATOM      5  O   UNL     1      -5.911  10.921  17.648  0.00  0.00    +0.000 OA
ATOM      6  C   UNL     1      -4.592  10.962  18.001  0.00  0.00    +0.000 A 
ATOM      7  C   UNL     1      -3.810   9.922  17.502  0.00  0.00    +0.000 A 
ATOM      8  C   UNL     1      -2.453   9.849  17.816  0.00  0.00    +0.000 A 
ATOM      9  C   UNL     1      -1.854  10.794  18.661  0.00  0.00    +0.000 A 
ATOM     10  C   UNL     1      -2.674  11.832  19.152  0.00  0.00    +0.000 A 
ATOM     11  C   UNL     1      -4.040  11.931  18.842  0.00  0.00    +0.000 A 
ENDROOT
BRANCH   9  12
ATOM     12  C   UNL     1      -0.353  10.745  19.004  0.00  0.00    +0.000 C 
ATOM     13  C   UNL     1       0.366   9.915  17.923  0.00  0.00    +0.000 C 
ATOM     14  C   UNL     1       0.288  12.152  19.054  0.00  0.00    +0.000 C 
ATOM     15  C   UNL     1      -0.080  10.097  20.381  0.00  0.00    +0.000 C 
ENDBRANCH   9  12
BRANCH   1  16
ATOM     16  C   UNL     1      -4.373  13.908  20.373  0.00  0.00    +0.000 C 
BRANCH  16  22
ATOM     17  C   UNL     1      -2.544  15.786  23.495  0.00  0.00    +0.000 C 
ATOM     18  C   UNL     1      -2.761  15.408  24.967  0.00  0.00    +0.000 C 
ATOM     19  C   UNL     1      -3.474  14.060  25.144  0.00  0.00    +0.000 C 
ATOM     20  C   UNL     1      -4.716  13.922  24.258  0.00  0.00    +0.000 C 
ATOM     21  N   UNL     1      -4.439  14.333  22.881  0.00  0.00    +0.000 N 
ATOM     22  C   UNL     1      -4.681  13.459  21.823  0.00  0.00    +0.000 C 
ATOM     23  O   UNL     1      -5.146  12.333  22.021  0.00  0.00    +0.000 OA
ATOM     24  C   UNL     1      -3.873  15.673  22.751  0.00  0.00    +0.000 C 
BRANCH  17  25
ATOM     25  C   UNL     1      -1.498  14.971  22.740  0.00  0.00    +0.000 C 
ATOM     26  O   UNL     1      -1.139  15.232  21.599  0.00  0.00    +0.000 OA
BRANCH  25  27
ATOM     27  O   UNL     1      -1.081  13.887  23.444  0.00  0.00    +0.000 OA
BRANCH  27  29
ATOM     28  C   UNL     1      -1.818  11.605  23.124  0.00  0.00    +0.000 C 
ATOM     29  C   UNL     1      -0.848  12.686  22.697  0.00  0.00    +0.000 C 
ENDBRANCH  27  29
ENDBRANCH  25  27
ENDBRANCH  17  25
ENDBRANCH  16  22
ENDBRANCH   1  16
TORSDOF 6
ENDMDL
MODEL 9
REMARK VINA RESULT:      -6.1      2.833      4.746
REMARK  Name = 
REMARK  10 active torsions:
REMARK  status: ('A' for Active; 'I' for Inactive)
REMARK    1  A    between atoms: C_1  and  C_2
REMARK    2  A    between atoms: C_2  and  O_3
REMARK    3  A    between atoms: O_3  and  C_4
REMARK    4  A    between atoms: C_4  and  C_6
REMARK    5  A    between atoms: C_11  and  C_13
REMARK    6  A    between atoms: C_13  and  N_14
REMARK    7  A    between atoms: C_22  and  C_23
REMARK    8  A    between atoms: C_23  and  C_24
REMARK    9  A    between atoms: C_23  and  C_25
REMARK   10  A    between atoms: C_23  and  C_26
REMARK                            x       y       z     vdW  Elec       q    Type
REMARK                         _______ _______ _______ _____ _____    ______ ____
ROOT
ATOM      1  N   UNL     1      -0.678  11.829  20.148  0.00  0.00    +0.000 N 
ATOM      2  C   UNL     1       0.527  11.153  20.275  0.00  0.00    +0.000 C 
ATOM      3  O   UNL     1       1.356  11.374  21.159  0.00  0.00    +0.000 OA
ATOM      4  C   UNL     1       0.769  10.025  19.280  0.00  0.00    +0.000 C 
ATOM      5  O   UNL     1       0.026   9.964  18.085  0.00  0.00    +0.000 OA
ATOM      6  C   UNL     1      -1.245  10.446  18.220  0.00  0.00    +0.000 A 
ATOM      7  C   UNL     1      -2.160   9.984  17.276  0.00  0.00    +0.000 A 
ATOM      8  C   UNL     1      -3.483  10.424  17.301  0.00  0.00    +0.000 A 
ATOM      9  C   UNL     1      -3.913  11.362  18.251  0.00  0.00    +0.000 A 
ATOM     10  C   UNL     1      -2.962  11.813  19.191  0.00  0.00    +0.000 A 
ATOM     11  C   UNL     1      -1.629  11.376  19.190  0.00  0.00    +0.000 A 
ENDROOT
BRANCH   9  12
ATOM     12  C   UNL     1      -5.375  11.847  18.312  0.00  0.00    +0.000 C 
ATOM     13  C   UNL     1      -6.283  10.627  18.561  0.00  0.00    +0.000 C 
ATOM     14  C   UNL     1      -5.609  12.876  19.444  0.00  0.00    +0.000 C 
ATOM     15  C   UNL     1      -5.826  12.534  17.003  0.00  0.00    +0.000 C 
ENDBRANCH   9  12
BRANCH   1  16
ATOM     16  C   UNL     1      -0.979  12.946  21.053  0.00  0.00    +0.000 C 
BRANCH  16  22
ATOM     17  C   UNL     1      -3.584  15.561  22.785  0.00  0.00    +0.000 C 
ATOM     18  C   UNL     1      -4.358  15.269  24.079  0.00  0.00    +0.000 C 
ATOM     19  C   UNL     1      -3.826  14.042  24.834  0.00  0.00    +0.000 C 
ATOM     20  C   UNL     1      -3.616  12.827  23.925  0.00  0.00    +0.000 C 
ATOM     21  N   UNL     1      -2.904  13.192  22.699  0.00  0.00    +0.000 N 
ATOM     22  C   UNL     1      -1.724  12.540  22.349  0.00  0.00    +0.000 C 
ATOM     23  O   UNL     1      -1.265  11.635  23.051  0.00  0.00    +0.000 OA
ATOM     24  C   UNL     1      -3.515  14.286  21.947  0.00  0.00    +0.000 C 
BRANCH  17  25
ATOM     25  C   UNL     1      -2.168  16.103  22.957  0.00  0.00    +0.000 C 
ATOM     26  O   UNL     1      -1.314  16.041  22.081  0.00  0.00    +0.000 OA
BRANCH  25  27
ATOM     27  O   UNL     1      -1.946  16.578  24.209  0.00  0.00    +0.000 OA
BRANCH  27  29
ATOM     28  C   UNL     1      -0.956  15.863  26.299  0.00  0.00    +0.000 C 
ATOM     29  C   UNL     1      -0.720  16.184  24.839  0.00  0.00    +0.000 C 
ENDBRANCH  27  29
ENDBRANCH  25  27
ENDBRANCH  17  25
ENDBRANCH  16  22
ENDBRANCH   1  16
TORSDOF 6
ENDMDL
