MODEL 1
REMARK VINA RESULT:      -5.7      0.000      0.000
REMARK  Name = 
REMARK  10 active torsions:
REMARK  status: ('A' for Active; 'I' for Inactive)
REMARK    1  A    between atoms: C_1  and  C_2
REMARK    2  A    between atoms: C_2  and  S_3
REMARK    3  A    between atoms: S_3  and  N_6
REMARK    4  A    between atoms: N_6  and  C_7
REMARK    5  A    between atoms: N_6  and  C_15
REMARK    6  A    between atoms: C_7  and  C_8
REMARK    7  A    between atoms: C_19  and  C_20
REMARK    8  A    between atoms: N_25  and  C_26
REMARK    9  A    between atoms: C_26  and  C_27
REMARK   10  A    between atoms: N_31  and  C_32
REMARK                            x       y       z     vdW  Elec       q    Type
REMARK                         _______ _______ _______ _____ _____    ______ ____
ROOT
ATOM      1  C   UNL     1       6.933  16.003  21.472  0.00  0.00    +0.000 C 
ATOM      2  C   UNL     1       8.443  15.829  21.756  0.00  0.00    +0.000 C 
ATOM      3  C   UNL     1       8.763  14.356  21.801  0.00  0.00    +0.000 A 
ATOM      4  C   UNL     1       9.973  13.884  21.271  0.00  0.00    +0.000 A 
ATOM      5  C   UNL     1      10.170  12.514  21.111  0.00  0.00    +0.000 A 
ATOM      6  C   UNL     1       9.174  11.623  21.506  0.00  0.00    +0.000 A 
ATOM      7  C   UNL     1       8.018  12.099  22.131  0.00  0.00    +0.000 A 
ATOM      8  C   UNL     1       7.801  13.469  22.321  0.00  0.00    +0.000 A 
ATOM      9  N   UNL     1       6.631  13.941  22.905  0.00  0.00    +0.000 N 
ATOM     10  C   UNL     1       6.240  15.345  22.686  0.00  0.00    +0.000 C 
ENDROOT
BRANCH   5  11
ATOM     11  C   UNL     1      11.369  12.027  20.494  0.00  0.00    +0.000 C 
ATOM     12  N   UNL     1      12.332  11.625  19.992  0.00  0.00    +0.000 NA
ENDBRANCH   5  11
BRANCH   1  13
ATOM     13  N   UNL     1       6.481  15.466  20.084  0.00  0.00    +0.000 NA
BRANCH  13  14
ATOM     14  S   UNL     1       4.806  15.447  19.724  0.00  0.00    +0.000 S 
ATOM     15  O   UNL     1       4.293  16.800  19.856  0.00  0.00    +0.000 OA
ATOM     16  O   UNL     1       4.189  14.375  20.475  0.00  0.00    +0.000 OA
BRANCH  14  18
ATOM     17  C   UNL     1       3.499  15.759  17.278  0.00  0.00    +0.000 C 
ATOM     18  C   UNL     1       4.650  15.093  17.982  0.00  0.00    +0.000 C 
ENDBRANCH  14  18
ENDBRANCH  13  14
BRANCH  13  19
ATOM     19  C   UNL     1       7.328  15.947  18.927  0.00  0.00    +0.000 C 
BRANCH  19  20
ATOM     20  C   UNL     1       8.331  14.965  18.347  0.00  0.00    +0.000 A 
ATOM     21  C   UNL     1       8.054  13.610  18.117  0.00  0.00    +0.000 A 
ATOM     22  C   UNL     1       9.010  12.737  17.599  0.00  0.00    +0.000 A 
ATOM     23  C   UNL     1      10.283  13.205  17.301  0.00  0.00    +0.000 A 
ATOM     24  C   UNL     1      10.596  14.540  17.544  0.00  0.00    +0.000 A 
ATOM     25  C   UNL     1       9.628  15.404  18.063  0.00  0.00    +0.000 A 
ATOM     26  F   UNL     1       9.966  16.681  18.298  0.00  0.00    +0.000 F 
ENDBRANCH  19  20
ENDBRANCH  13  19
ENDBRANCH   1  13
BRANCH   9  27
ATOM     27  C   UNL     1       6.137  13.311  24.141  0.00  0.00    +0.000 C 
BRANCH  27  28
ATOM     28  C   UNL     1       6.948  13.472  25.393  0.00  0.00    +0.000 A 
ATOM     29  C   UNL     1       7.745  14.510  25.841  0.00  0.00    +0.000 A 
ATOM     30  N   UNL     1       8.176  14.300  27.126  0.00  0.00    +0.000 NA
ATOM     31  C   UNL     1       7.674  13.138  27.469  0.00  0.00    +0.000 A 
ATOM     32  N   UNL     1       6.967  12.577  26.442  0.00  0.00    +0.000 N 
ATOM     33  C   UNL     1       6.343  11.277  26.500  0.00  0.00    +0.000 C 
ENDBRANCH  27  28
ENDBRANCH   9  27
TORSDOF 8
ENDMDL
MODEL 2
REMARK VINA RESULT:      -5.3      7.283      9.769
REMARK  Name = 
REMARK  10 active torsions:
REMARK  status: ('A' for Active; 'I' for Inactive)
REMARK    1  A    between atoms: C_1  and  C_2
REMARK    2  A    between atoms: C_2  and  S_3
REMARK    3  A    between atoms: S_3  and  N_6
REMARK    4  A    between atoms: N_6  and  C_7
REMARK    5  A    between atoms: N_6  and  C_15
REMARK    6  A    between atoms: C_7  and  C_8
REMARK    7  A    between atoms: C_19  and  C_20
REMARK    8  A    between atoms: N_25  and  C_26
REMARK    9  A    between atoms: C_26  and  C_27
REMARK   10  A    between atoms: N_31  and  C_32
REMARK                            x       y       z     vdW  Elec       q    Type
REMARK                         _______ _______ _______ _____ _____    ______ ____
ROOT
ATOM      1  C   UNL     1      -1.318  11.849  20.555  0.00  0.00    +0.000 C 
ATOM      2  C   UNL     1      -1.481  12.944  19.473  0.00  0.00    +0.000 C 
ATOM      3  C   UNL     1      -1.008  14.259  20.037  0.00  0.00    +0.000 A 
ATOM      4  C   UNL     1      -0.314  15.164  19.220  0.00  0.00    +0.000 A 
ATOM      5  C   UNL     1       0.313  16.270  19.791  0.00  0.00    +0.000 A 
ATOM      6  C   UNL     1       0.219  16.484  21.165  0.00  0.00    +0.000 A 
ATOM      7  C   UNL     1      -0.565  15.636  21.952  0.00  0.00    +0.000 A 
ATOM      8  C   UNL     1      -1.219  14.527  21.403  0.00  0.00    +0.000 A 
ATOM      9  N   UNL     1      -1.964  13.661  22.198  0.00  0.00    +0.000 N 
ATOM     10  C   UNL     1      -2.252  12.305  21.699  0.00  0.00    +0.000 C 
ENDROOT
BRANCH   5  11
ATOM     11  C   UNL     1       1.094  17.154  18.976  0.00  0.00    +0.000 C 
ATOM     12  N   UNL     1       1.728  17.873  18.327  0.00  0.00    +0.000 NA
ENDBRANCH   5  11
BRANCH   1  13
ATOM     13  N   UNL     1       0.157  11.584  20.973  0.00  0.00    +0.000 NA
BRANCH  13  14
ATOM     14  S   UNL     1       0.475  10.305  22.068  0.00  0.00    +0.000 S 
ATOM     15  O   UNL     1      -0.260  10.559  23.295  0.00  0.00    +0.000 OA
ATOM     16  O   UNL     1       1.906  10.097  22.125  0.00  0.00    +0.000 OA
BRANCH  14  18
ATOM     17  C   UNL     1       0.645   7.747  20.967  0.00  0.00    +0.000 C 
ATOM     18  C   UNL     1      -0.294   8.841  21.398  0.00  0.00    +0.000 C 
ENDBRANCH  14  18
ENDBRANCH  13  14
BRANCH  13  19
ATOM     19  C   UNL     1       1.146  11.644  19.832  0.00  0.00    +0.000 C 
BRANCH  19  20
ATOM     20  C   UNL     1       2.139  12.793  19.834  0.00  0.00    +0.000 A 
ATOM     21  C   UNL     1       2.519  13.495  20.986  0.00  0.00    +0.000 A 
ATOM     22  C   UNL     1       3.421  14.557  20.941  0.00  0.00    +0.000 A 
ATOM     23  C   UNL     1       3.966  14.950  19.726  0.00  0.00    +0.000 A 
ATOM     24  C   UNL     1       3.587  14.289  18.561  0.00  0.00    +0.000 A 
ATOM     25  C   UNL     1       2.682  13.226  18.620  0.00  0.00    +0.000 A 
ATOM     26  F   UNL     1       2.328  12.619  17.477  0.00  0.00    +0.000 F 
ENDBRANCH  19  20
ENDBRANCH  13  19
ENDBRANCH   1  13
BRANCH   9  27
ATOM     27  C   UNL     1      -2.923  14.217  23.168  0.00  0.00    +0.000 C 
BRANCH  27  28
ATOM     28  C   UNL     1      -4.174  13.439  23.454  0.00  0.00    +0.000 A 
ATOM     29  C   UNL     1      -4.501  12.579  24.486  0.00  0.00    +0.000 A 
ATOM     30  N   UNL     1      -5.822  12.212  24.439  0.00  0.00    +0.000 NA
ATOM     31  C   UNL     1      -6.308  12.816  23.382  0.00  0.00    +0.000 A 
ATOM     32  N   UNL     1      -5.343  13.530  22.728  0.00  0.00    +0.000 N 
ATOM     33  C   UNL     1      -5.561  14.257  21.501  0.00  0.00    +0.000 C 
ENDBRANCH  27  28
ENDBRANCH   9  27
TORSDOF 8
ENDMDL
MODEL 3
REMARK VINA RESULT:      -5.3      3.077      6.840
REMARK  Name = 
REMARK  10 active torsions:
REMARK  status: ('A' for Active; 'I' for Inactive)
REMARK    1  A    between atoms: C_1  and  C_2
REMARK    2  A    between atoms: C_2  and  S_3
REMARK    3  A    between atoms: S_3  and  N_6
REMARK    4  A    between atoms: N_6  and  C_7
REMARK    5  A    between atoms: N_6  and  C_15
REMARK    6  A    between atoms: C_7  and  C_8
REMARK    7  A    between atoms: C_19  and  C_20
REMARK    8  A    between atoms: N_25  and  C_26
REMARK    9  A    between atoms: C_26  and  C_27
REMARK   10  A    between atoms: N_31  and  C_32
REMARK                            x       y       z     vdW  Elec       q    Type
REMARK                         _______ _______ _______ _____ _____    ______ ____
ROOT
ATOM      1  C   UNL     1       7.132  16.048  22.608  0.00  0.00    +0.000 C 
ATOM      2  C   UNL     1       6.667  17.179  21.661  0.00  0.00    +0.000 C 
ATOM      3  C   UNL     1       6.267  16.575  20.339  0.00  0.00    +0.000 A 
ATOM      4  C   UNL     1       5.168  17.089  19.635  0.00  0.00    +0.000 A 
ATOM      5  C   UNL     1       4.665  16.396  18.536  0.00  0.00    +0.000 A 
ATOM      6  C   UNL     1       5.278  15.212  18.127  0.00  0.00    +0.000 A 
ATOM      7  C   UNL     1       6.436  14.767  18.769  0.00  0.00    +0.000 A 
ATOM      8  C   UNL     1       6.973  15.452  19.866  0.00  0.00    +0.000 A 
ATOM      9  N   UNL     1       8.103  14.982  20.529  0.00  0.00    +0.000 N 
ATOM     10  C   UNL     1       8.369  15.447  21.901  0.00  0.00    +0.000 C 
ENDROOT
BRANCH   5  11
ATOM     11  C   UNL     1       3.492  16.870  17.861  0.00  0.00    +0.000 C 
ATOM     12  N   UNL     1       2.547  17.246  17.309  0.00  0.00    +0.000 NA
ENDBRANCH   5  11
BRANCH   1  13
ATOM     13  N   UNL     1       6.019  15.025  22.971  0.00  0.00    +0.000 NA
BRANCH  13  14
ATOM     14  S   UNL     1       6.358  13.840  24.162  0.00  0.00    +0.000 S 
ATOM     15  O   UNL     1       5.111  13.466  24.804  0.00  0.00    +0.000 OA
ATOM     16  O   UNL     1       7.465  14.308  24.969  0.00  0.00    +0.000 OA
BRANCH  14  18
ATOM     17  C   UNL     1       7.999  11.596  23.917  0.00  0.00    +0.000 C 
ATOM     18  C   UNL     1       6.862  12.362  23.298  0.00  0.00    +0.000 C 
ENDBRANCH  14  18
ENDBRANCH  13  14
BRANCH  13  19
ATOM     19  C   UNL     1       4.642  15.632  23.119  0.00  0.00    +0.000 C 
BRANCH  19  20
ATOM     20  C   UNL     1       3.593  15.230  22.096  0.00  0.00    +0.000 A 
ATOM     21  C   UNL     1       3.654  14.052  21.338  0.00  0.00    +0.000 A 
ATOM     22  C   UNL     1       2.677  13.729  20.396  0.00  0.00    +0.000 A 
ATOM     23  C   UNL     1       1.608  14.590  20.185  0.00  0.00    +0.000 A 
ATOM     24  C   UNL     1       1.536  15.779  20.904  0.00  0.00    +0.000 A 
ATOM     25  C   UNL     1       2.520  16.092  21.846  0.00  0.00    +0.000 A 
ATOM     26  F   UNL     1       2.428  17.252  22.513  0.00  0.00    +0.000 F 
ENDBRANCH  19  20
ENDBRANCH  13  19
ENDBRANCH   1  13
BRANCH   9  27
ATOM     27  C   UNL     1       9.275  14.557  19.745  0.00  0.00    +0.000 C 
BRANCH  27  28
ATOM     28  C   UNL     1       9.547  13.087  19.615  0.00  0.00    +0.000 A 
ATOM     29  C   UNL     1       9.280  12.028  20.464  0.00  0.00    +0.000 A 
ATOM     30  N   UNL     1       9.558  10.823  19.872  0.00  0.00    +0.000 NA
ATOM     31  C   UNL     1      10.012  11.124  18.680  0.00  0.00    +0.000 A 
ATOM     32  N   UNL     1      10.070  12.478  18.494  0.00  0.00    +0.000 N 
ATOM     33  C   UNL     1      10.578  13.114  17.303  0.00  0.00    +0.000 C 
ENDBRANCH  27  28
ENDBRANCH   9  27
TORSDOF 8
ENDMDL
MODEL 4
REMARK VINA RESULT:      -5.2      3.176      7.344
REMARK  Name = 
REMARK  10 active torsions:
REMARK  status: ('A' for Active; 'I' for Inactive)
REMARK    1  A    between atoms: C_1  and  C_2
REMARK    2  A    between atoms: C_2  and  S_3
REMARK    3  A    between atoms: S_3  and  N_6
REMARK    4  A    between atoms: N_6  and  C_7
REMARK    5  A    between atoms: N_6  and  C_15
REMARK    6  A    between atoms: C_7  and  C_8
REMARK    7  A    between atoms: C_19  and  C_20
REMARK    8  A    between atoms: N_25  and  C_26
REMARK    9  A    between atoms: C_26  and  C_27
REMARK   10  A    between atoms: N_31  and  C_32
REMARK                            x       y       z     vdW  Elec       q    Type
REMARK                         _______ _______ _______ _____ _____    ______ ____
ROOT
ATOM      1  C   UNL     1       7.163  15.850  21.881  0.00  0.00    +0.000 C 
ATOM      2  C   UNL     1       6.690  17.013  20.977  0.00  0.00    +0.000 C 
ATOM      3  C   UNL     1       6.013  16.439  19.759  0.00  0.00    +0.000 A 
ATOM      4  C   UNL     1       4.884  17.073  19.219  0.00  0.00    +0.000 A 
ATOM      5  C   UNL     1       4.131  16.427  18.240  0.00  0.00    +0.000 A 
ATOM      6  C   UNL     1       4.524  15.170  17.784  0.00  0.00    +0.000 A 
ATOM      7  C   UNL     1       5.709  14.596  18.252  0.00  0.00    +0.000 A 
ATOM      8  C   UNL     1       6.494  15.229  19.223  0.00  0.00    +0.000 A 
ATOM      9  N   UNL     1       7.651  14.635  19.717  0.00  0.00    +0.000 N 
ATOM     10  C   UNL     1       8.188  15.088  21.012  0.00  0.00    +0.000 C 
ENDROOT
BRANCH   5  11
ATOM     11  C   UNL     1       2.930  17.031  17.741  0.00  0.00    +0.000 C 
ATOM     12  N   UNL     1       1.955  17.515  17.347  0.00  0.00    +0.000 NA
ENDBRANCH   5  11
BRANCH   1  13
ATOM     13  N   UNL     1       6.008  14.980  22.454  0.00  0.00    +0.000 NA
BRANCH  13  14
ATOM     14  S   UNL     1       6.357  13.914  23.749  0.00  0.00    +0.000 S 
ATOM     15  O   UNL     1       5.116  13.607  24.438  0.00  0.00    +0.000 OA
ATOM     16  O   UNL     1       7.473  14.453  24.497  0.00  0.00    +0.000 OA
BRANCH  14  18
ATOM     17  C   UNL     1       7.882  11.577  23.791  0.00  0.00    +0.000 C 
ATOM     18  C   UNL     1       6.848  12.358  23.026  0.00  0.00    +0.000 C 
ENDBRANCH  14  18
ENDBRANCH  13  14
BRANCH  13  19
ATOM     19  C   UNL     1       4.703  15.722  22.636  0.00  0.00    +0.000 C 
BRANCH  19  20
ATOM     20  C   UNL     1       3.515  15.247  21.819  0.00  0.00    +0.000 A 
ATOM     21  C   UNL     1       3.455  14.000  21.180  0.00  0.00    +0.000 A 
ATOM     22  C   UNL     1       2.351  13.610  20.423  0.00  0.00    +0.000 A 
ATOM     23  C   UNL     1       1.271  14.471  20.282  0.00  0.00    +0.000 A 
ATOM     24  C   UNL     1       1.313  15.726  20.882  0.00  0.00    +0.000 A 
ATOM     25  C   UNL     1       2.425  16.105  21.638  0.00  0.00    +0.000 A 
ATOM     26  F   UNL     1       2.440  17.326  22.192  0.00  0.00    +0.000 F 
ENDBRANCH  19  20
ENDBRANCH  13  19
ENDBRANCH   1  13
BRANCH   9  27
ATOM     27  C   UNL     1       8.621  14.053  18.775  0.00  0.00    +0.000 C 
BRANCH  27  28
ATOM     28  C   UNL     1       9.493  14.986  17.987  0.00  0.00    +0.000 A 
ATOM     29  C   UNL     1       9.396  16.344  17.743  0.00  0.00    +0.000 A 
ATOM     30  N   UNL     1      10.508  16.824  17.100  0.00  0.00    +0.000 NA
ATOM     31  C   UNL     1      11.279  15.778  16.925  0.00  0.00    +0.000 A 
ATOM     32  N   UNL     1      10.692  14.639  17.399  0.00  0.00    +0.000 N 
ATOM     33  C   UNL     1      11.273  13.322  17.300  0.00  0.00    +0.000 C 
ENDBRANCH  27  28
ENDBRANCH   9  27
TORSDOF 8
ENDMDL
MODEL 5
REMARK VINA RESULT:      -5.1      7.276     10.976
REMARK  Name = 
REMARK  10 active torsions:
REMARK  status: ('A' for Active; 'I' for Inactive)
REMARK    1  A    between atoms: C_1  and  C_2
REMARK    2  A    between atoms: C_2  and  S_3
REMARK    3  A    between atoms: S_3  and  N_6
REMARK    4  A    between atoms: N_6  and  C_7
REMARK    5  A    between atoms: N_6  and  C_15
REMARK    6  A    between atoms: C_7  and  C_8
REMARK    7  A    between atoms: C_19  and  C_20
REMARK    8  A    between atoms: N_25  and  C_26
REMARK    9  A    between atoms: C_26  and  C_27
REMARK   10  A    between atoms: N_31  and  C_32
REMARK                            x       y       z     vdW  Elec       q    Type
REMARK                         _______ _______ _______ _____ _____    ______ ____
ROOT
ATOM      1  C   UNL     1       0.599  13.409  20.988  0.00  0.00    +0.000 C 
ATOM      2  C   UNL     1       0.206  14.285  22.202  0.00  0.00    +0.000 C 
ATOM      3  C   UNL     1      -0.793  15.320  21.752  0.00  0.00    +0.000 A 
ATOM      4  C   UNL     1      -1.853  15.686  22.595  0.00  0.00    +0.000 A 
ATOM      5  C   UNL     1      -2.894  16.468  22.099  0.00  0.00    +0.000 A 
ATOM      6  C   UNL     1      -2.858  16.905  20.776  0.00  0.00    +0.000 A 
ATOM      7  C   UNL     1      -1.746  16.624  19.977  0.00  0.00    +0.000 A 
ATOM      8  C   UNL     1      -0.678  15.855  20.455  0.00  0.00    +0.000 A 
ATOM      9  N   UNL     1       0.407  15.543  19.643  0.00  0.00    +0.000 N 
ATOM     10  C   UNL     1       1.263  14.400  20.006  0.00  0.00    +0.000 C 
ENDROOT
BRANCH   5  11
ATOM     11  C   UNL     1      -4.021  16.777  22.929  0.00  0.00    +0.000 C 
ATOM     12  N   UNL     1      -4.937  17.026  23.591  0.00  0.00    +0.000 NA
ENDBRANCH   5  11
BRANCH   1  13
ATOM     13  N   UNL     1      -0.577  12.580  20.396  0.00  0.00    +0.000 NA
BRANCH  13  14
ATOM     14  S   UNL     1      -0.370  11.861  18.854  0.00  0.00    +0.000 S 
ATOM     15  O   UNL     1       1.008  11.415  18.738  0.00  0.00    +0.000 OA
ATOM     16  O   UNL     1      -0.917  12.755  17.856  0.00  0.00    +0.000 OA
BRANCH  14  18
ATOM     17  C   UNL     1      -2.343  10.219  17.762  0.00  0.00    +0.000 C 
ATOM     18  C   UNL     1      -1.316  10.349  18.853  0.00  0.00    +0.000 C 
ENDBRANCH  14  18
ENDBRANCH  13  14
BRANCH  13  19
ATOM     19  C   UNL     1      -1.252  11.663  21.390  0.00  0.00    +0.000 C 
BRANCH  19  20
ATOM     20  C   UNL     1      -2.502  12.185  22.077  0.00  0.00    +0.000 A 
ATOM     21  C   UNL     1      -2.713  12.128  23.462  0.00  0.00    +0.000 A 
ATOM     22  C   UNL     1      -3.884  12.603  24.052  0.00  0.00    +0.000 A 
ATOM     23  C   UNL     1      -4.885  13.147  23.259  0.00  0.00    +0.000 A 
ATOM     24  C   UNL     1      -4.715  13.193  21.878  0.00  0.00    +0.000 A 
ATOM     25  C   UNL     1      -3.537  12.714  21.299  0.00  0.00    +0.000 A 
ATOM     26  F   UNL     1      -3.411  12.760  19.965  0.00  0.00    +0.000 F 
ENDBRANCH  19  20
ENDBRANCH  13  19
ENDBRANCH   1  13
BRANCH   9  27
ATOM     27  C   UNL     1       1.042  16.606  18.846  0.00  0.00    +0.000 C 
BRANCH  27  28
ATOM     28  C   UNL     1       2.456  16.990  19.172  0.00  0.00    +0.000 A 
ATOM     29  C   UNL     1       2.983  17.761  20.191  0.00  0.00    +0.000 A 
ATOM     30  N   UNL     1       4.354  17.718  20.201  0.00  0.00    +0.000 NA
ATOM     31  C   UNL     1       4.679  16.950  19.190  0.00  0.00    +0.000 A 
ATOM     32  N   UNL     1       3.572  16.525  18.510  0.00  0.00    +0.000 N 
ATOM     33  C   UNL     1       3.612  15.710  17.319  0.00  0.00    +0.000 C 
ENDBRANCH  27  28
ENDBRANCH   9  27
TORSDOF 8
ENDMDL
MODEL 6
REMARK VINA RESULT:      -5.1      3.085      7.277
REMARK  Name = 
REMARK  10 active torsions:
REMARK  status: ('A' for Active; 'I' for Inactive)
REMARK    1  A    between atoms: C_1  and  C_2
REMARK    2  A    between atoms: C_2  and  S_3
REMARK    3  A    between atoms: S_3  and  N_6
REMARK    4  A    between atoms: N_6  and  C_7
REMARK    5  A    between atoms: N_6  and  C_15
REMARK    6  A    between atoms: C_7  and  C_8
REMARK    7  A    between atoms: C_19  and  C_20
REMARK    8  A    between atoms: N_25  and  C_26
REMARK    9  A    between atoms: C_26  and  C_27
REMARK   10  A    between atoms: N_31  and  C_32
REMARK                            x       y       z     vdW  Elec       q    Type
REMARK                         _______ _______ _______ _____ _____    ______ ____
ROOT
ATOM      1  C   UNL     1       6.965  15.580  21.747  0.00  0.00    +0.000 C 
ATOM      2  C   UNL     1       6.313  16.814  21.080  0.00  0.00    +0.000 C 
ATOM      3  C   UNL     1       5.645  16.381  19.800  0.00  0.00    +0.000 A 
ATOM      4  C   UNL     1       4.424  16.954  19.416  0.00  0.00    +0.000 A 
ATOM      5  C   UNL     1       3.702  16.400  18.361  0.00  0.00    +0.000 A 
ATOM      6  C   UNL     1       4.214  15.299  17.676  0.00  0.00    +0.000 A 
ATOM      7  C   UNL     1       5.480  14.804  17.998  0.00  0.00    +0.000 A 
ATOM      8  C   UNL     1       6.236  15.351  19.042  0.00  0.00    +0.000 A 
ATOM      9  N   UNL     1       7.478  14.828  19.387  0.00  0.00    +0.000 N 
ATOM     10  C   UNL     1       8.025  15.113  20.724  0.00  0.00    +0.000 C 
ENDROOT
BRANCH   5  11
ATOM     11  C   UNL     1       2.414  16.928  18.015  0.00  0.00    +0.000 C 
ATOM     12  N   UNL     1       1.377  17.362  17.739  0.00  0.00    +0.000 NA
ENDBRANCH   5  11
BRANCH   1  13
ATOM     13  N   UNL     1       5.950  14.487  22.190  0.00  0.00    +0.000 NA
BRANCH  13  14
ATOM     14  S   UNL     1       6.541  13.130  23.053  0.00  0.00    +0.000 S 
ATOM     15  O   UNL     1       7.542  12.467  22.236  0.00  0.00    +0.000 OA
ATOM     16  O   UNL     1       5.409  12.374  23.547  0.00  0.00    +0.000 OA
BRANCH  14  18
ATOM     17  C   UNL     1       7.948  12.729  25.429  0.00  0.00    +0.000 C 
ATOM     18  C   UNL     1       7.464  13.758  24.445  0.00  0.00    +0.000 C 
ENDBRANCH  14  18
ENDBRANCH  13  14
BRANCH  13  19
ATOM     19  C   UNL     1       4.660  15.033  22.759  0.00  0.00    +0.000 C 
BRANCH  19  20
ATOM     20  C   UNL     1       3.394  14.802  21.952  0.00  0.00    +0.000 A 
ATOM     21  C   UNL     1       3.243  13.771  21.013  0.00  0.00    +0.000 A 
ATOM     22  C   UNL     1       2.069  13.605  20.280  0.00  0.00    +0.000 A 
ATOM     23  C   UNL     1       1.008  14.481  20.467  0.00  0.00    +0.000 A 
ATOM     24  C   UNL     1       1.138  15.530  21.373  0.00  0.00    +0.000 A 
ATOM     25  C   UNL     1       2.320  15.685  22.102  0.00  0.00    +0.000 A 
ATOM     26  F   UNL     1       2.418  16.714  22.957  0.00  0.00    +0.000 F 
ENDBRANCH  19  20
ENDBRANCH  13  19
ENDBRANCH   1  13
BRANCH   9  27
ATOM     27  C   UNL     1       8.460  14.543  18.326  0.00  0.00    +0.000 C 
BRANCH  27  28
ATOM     28  C   UNL     1       9.195  13.236  18.372  0.00  0.00    +0.000 A 
ATOM     29  C   UNL     1       8.859  11.980  17.902  0.00  0.00    +0.000 A 
ATOM     30  N   UNL     1       9.905  11.100  18.017  0.00  0.00    +0.000 NA
ATOM     31  C   UNL     1      10.873  11.790  18.570  0.00  0.00    +0.000 A 
ATOM     32  N   UNL     1      10.479  13.069  18.846  0.00  0.00    +0.000 N 
ATOM     33  C   UNL     1      11.308  14.050  19.504  0.00  0.00    +0.000 C 
ENDBRANCH  27  28
ENDBRANCH   9  27
TORSDOF 8
ENDMDL
MODEL 7
REMARK VINA RESULT:      -5.1      8.011     10.457
REMARK  Name = 
REMARK  10 active torsions:
REMARK  status: ('A' for Active; 'I' for Inactive)
REMARK    1  A    between atoms: C_1  and  C_2
REMARK    2  A    between atoms: C_2  and  S_3
REMARK    3  A    between atoms: S_3  and  N_6
REMARK    4  A    between atoms: N_6  and  C_7
REMARK    5  A    between atoms: N_6  and  C_15
REMARK    6  A    between atoms: C_7  and  C_8
REMARK    7  A    between atoms: C_19  and  C_20
REMARK    8  A    between atoms: N_25  and  C_26
REMARK    9  A    between atoms: C_26  and  C_27
REMARK   10  A    between atoms: N_31  and  C_32
REMARK                            x       y       z     vdW  Elec       q    Type
REMARK                         _______ _______ _______ _____ _____    ______ ____
ROOT
ATOM      1  C   UNL     1      -2.069  13.731  22.303  0.00  0.00    +0.000 C 
ATOM      2  C   UNL     1      -1.656  12.241  22.338  0.00  0.00    +0.000 C 
ATOM      3  C   UNL     1      -1.541  11.734  20.923  0.00  0.00    +0.000 A 
ATOM      4  C   UNL     1      -0.527  10.826  20.583  0.00  0.00    +0.000 A 
ATOM      5  C   UNL     1      -0.282  10.533  19.243  0.00  0.00    +0.000 A 
ATOM      6  C   UNL     1      -1.068  11.121  18.253  0.00  0.00    +0.000 A 
ATOM      7  C   UNL     1      -2.143  11.940  18.609  0.00  0.00    +0.000 A 
ATOM      8  C   UNL     1      -2.423  12.238  19.948  0.00  0.00    +0.000 A 
ATOM      9  N   UNL     1      -3.469  13.087  20.297  0.00  0.00    +0.000 N 
ATOM     10  C   UNL     1      -3.458  13.723  21.625  0.00  0.00    +0.000 C 
ENDROOT
BRANCH   5  11
ATOM     11  C   UNL     1       0.805   9.671  18.881  0.00  0.00    +0.000 C 
ATOM     12  N   UNL     1       1.684   8.980  18.581  0.00  0.00    +0.000 NA
ENDBRANCH   5  11
BRANCH   1  13
ATOM     13  N   UNL     1      -1.018  14.667  21.641  0.00  0.00    +0.000 NA
BRANCH  13  14
ATOM     14  S   UNL     1      -1.305  16.356  21.660  0.00  0.00    +0.000 S 
ATOM     15  O   UNL     1      -0.024  17.038  21.708  0.00  0.00    +0.000 OA
ATOM     16  O   UNL     1      -2.301  16.639  22.671  0.00  0.00    +0.000 OA
BRANCH  14  18
ATOM     17  C   UNL     1      -0.955  17.115  18.997  0.00  0.00    +0.000 C 
ATOM     18  C   UNL     1      -1.968  16.791  20.061  0.00  0.00    +0.000 C 
ENDBRANCH  14  18
ENDBRANCH  13  14
BRANCH  13  19
ATOM     19  C   UNL     1       0.417  14.308  21.954  0.00  0.00    +0.000 C 
BRANCH  19  20
ATOM     20  C   UNL     1       1.390  14.260  20.790  0.00  0.00    +0.000 A 
ATOM     21  C   UNL     1       1.017  13.960  19.472  0.00  0.00    +0.000 A 
ATOM     22  C   UNL     1       1.947  13.909  18.434  0.00  0.00    +0.000 A 
ATOM     23  C   UNL     1       3.288  14.153  18.695  0.00  0.00    +0.000 A 
ATOM     24  C   UNL     1       3.693  14.426  19.998  0.00  0.00    +0.000 A 
ATOM     25  C   UNL     1       2.751  14.475  21.030  0.00  0.00    +0.000 A 
ATOM     26  F   UNL     1       3.176  14.729  22.277  0.00  0.00    +0.000 F 
ENDBRANCH  19  20
ENDBRANCH  13  19
ENDBRANCH   1  13
BRANCH   9  27
ATOM     27  C   UNL     1      -4.790  12.896  19.674  0.00  0.00    +0.000 C 
BRANCH  27  28
ATOM     28  C   UNL     1      -5.850  12.184  20.462  0.00  0.00    +0.000 A 
ATOM     29  C   UNL     1      -6.311  12.369  21.753  0.00  0.00    +0.000 A 
ATOM     30  N   UNL     1      -7.411  11.592  22.013  0.00  0.00    +0.000 NA
ATOM     31  C   UNL     1      -7.622  10.917  20.909  0.00  0.00    +0.000 A 
ATOM     32  N   UNL     1      -6.679  11.203  19.961  0.00  0.00    +0.000 N 
ATOM     33  C   UNL     1      -6.616  10.576  18.663  0.00  0.00    +0.000 C 
ENDBRANCH  27  28
ENDBRANCH   9  27
TORSDOF 8
ENDMDL
MODEL 8
REMARK VINA RESULT:      -5.0      8.004     10.748
REMARK  Name = 
REMARK  10 active torsions:
REMARK  status: ('A' for Active; 'I' for Inactive)
REMARK    1  A    between atoms: C_1  and  C_2
REMARK    2  A    between atoms: C_2  and  S_3
REMARK    3  A    between atoms: S_3  and  N_6
REMARK    4  A    between atoms: N_6  and  C_7
REMARK    5  A    between atoms: N_6  and  C_15
REMARK    6  A    between atoms: C_7  and  C_8
REMARK    7  A    between atoms: C_19  and  C_20
REMARK    8  A    between atoms: N_25  and  C_26
REMARK    9  A    between atoms: C_26  and  C_27
REMARK   10  A    between atoms: N_31  and  C_32
REMARK                            x       y       z     vdW  Elec       q    Type
REMARK                         _______ _______ _______ _____ _____    ______ ____
ROOT
ATOM      1  C   UNL     1      -0.169  13.304  22.026  0.00  0.00    +0.000 C 
ATOM      2  C   UNL     1      -1.296  12.593  22.811  0.00  0.00    +0.000 C 
ATOM      3  C   UNL     1      -2.609  13.259  22.489  0.00  0.00    +0.000 A 
ATOM      4  C   UNL     1      -3.774  12.489  22.360  0.00  0.00    +0.000 A 
ATOM      5  C   UNL     1      -4.933  13.068  21.846  0.00  0.00    +0.000 A 
ATOM      6  C   UNL     1      -4.933  14.417  21.493  0.00  0.00    +0.000 A 
ATOM      7  C   UNL     1      -3.798  15.199  21.726  0.00  0.00    +0.000 A 
ATOM      8  C   UNL     1      -2.626  14.648  22.256  0.00  0.00    +0.000 A 
ATOM      9  N   UNL     1      -1.486  15.421  22.448  0.00  0.00    +0.000 N 
ATOM     10  C   UNL     1      -0.181  14.750  22.571  0.00  0.00    +0.000 C 
ENDROOT
BRANCH   5  11
ATOM     11  C   UNL     1      -6.104  12.268  21.633  0.00  0.00    +0.000 C 
ATOM     12  N   UNL     1      -7.055  11.631  21.462  0.00  0.00    +0.000 NA
ENDBRANCH   5  11
BRANCH   1  13
ATOM     13  N   UNL     1      -0.296  13.181  20.480  0.00  0.00    +0.000 NA
BRANCH  13  14
ATOM     14  S   UNL     1       0.617  14.250  19.501  0.00  0.00    +0.000 S 
ATOM     15  O   UNL     1       1.755  14.718  20.271  0.00  0.00    +0.000 OA
ATOM     16  O   UNL     1      -0.288  15.212  18.908  0.00  0.00    +0.000 OA
BRANCH  14  18
ATOM     17  C   UNL     1       2.843  13.123  18.252  0.00  0.00    +0.000 C 
ATOM     18  C   UNL     1       1.347  13.271  18.200  0.00  0.00    +0.000 C 
ENDBRANCH  14  18
ENDBRANCH  13  14
BRANCH  13  19
ATOM     19  C   UNL     1      -0.287  11.758  19.968  0.00  0.00    +0.000 C 
BRANCH  19  20
ATOM     20  C   UNL     1      -1.403  11.355  19.019  0.00  0.00    +0.000 A 
ATOM     21  C   UNL     1      -2.700  11.885  19.070  0.00  0.00    +0.000 A 
ATOM     22  C   UNL     1      -3.701  11.474  18.191  0.00  0.00    +0.000 A 
ATOM     23  C   UNL     1      -3.425  10.507  17.232  0.00  0.00    +0.000 A 
ATOM     24  C   UNL     1      -2.153   9.944  17.176  0.00  0.00    +0.000 A 
ATOM     25  C   UNL     1      -1.159  10.365  18.063  0.00  0.00    +0.000 A 
ATOM     26  F   UNL     1       0.052   9.792  17.990  0.00  0.00    +0.000 F 
ENDBRANCH  19  20
ENDBRANCH  13  19
ENDBRANCH   1  13
BRANCH   9  27
ATOM     27  C   UNL     1      -1.607  16.736  23.101  0.00  0.00    +0.000 C 
BRANCH  27  28
ATOM     28  C   UNL     1      -1.167  16.863  24.530  0.00  0.00    +0.000 A 
ATOM     29  C   UNL     1      -1.569  16.198  25.674  0.00  0.00    +0.000 A 
ATOM     30  N   UNL     1      -0.781  16.520  26.749  0.00  0.00    +0.000 NA
ATOM     31  C   UNL     1       0.086  17.389  26.290  0.00  0.00    +0.000 A 
ATOM     32  N   UNL     1      -0.135  17.665  24.969  0.00  0.00    +0.000 N 
ATOM     33  C   UNL     1       0.622  18.623  24.201  0.00  0.00    +0.000 C 
ENDBRANCH  27  28
ENDBRANCH   9  27
TORSDOF 8
ENDMDL
MODEL 9
REMARK VINA RESULT:      -5.0      2.866      6.656
REMARK  Name = 
REMARK  10 active torsions:
REMARK  status: ('A' for Active; 'I' for Inactive)
REMARK    1  A    between atoms: C_1  and  C_2
REMARK    2  A    between atoms: C_2  and  S_3
REMARK    3  A    between atoms: S_3  and  N_6
REMARK    4  A    between atoms: N_6  and  C_7
REMARK    5  A    between atoms: N_6  and  C_15
REMARK    6  A    between atoms: C_7  and  C_8
REMARK    7  A    between atoms: C_19  and  C_20
REMARK    8  A    between atoms: N_25  and  C_26
REMARK    9  A    between atoms: C_26  and  C_27
REMARK   10  A    between atoms: N_31  and  C_32
REMARK                            x       y       z     vdW  Elec       q    Type
REMARK                         _______ _______ _______ _____ _____    ______ ____
ROOT
ATOM      1  C   UNL     1       7.595  15.386  18.359  0.00  0.00    +0.000 C 
ATOM      2  C   UNL     1       7.300  16.582  19.295  0.00  0.00    +0.000 C 
ATOM      3  C   UNL     1       6.331  16.138  20.361  0.00  0.00    +0.000 A 
ATOM      4  C   UNL     1       6.464  16.616  21.673  0.00  0.00    +0.000 A 
ATOM      5  C   UNL     1       5.716  16.040  22.697  0.00  0.00    +0.000 A 
ATOM      6  C   UNL     1       4.819  15.014  22.405  0.00  0.00    +0.000 A 
ATOM      7  C   UNL     1       4.617  14.620  21.079  0.00  0.00    +0.000 A 
ATOM      8  C   UNL     1       5.342  15.192  20.028  0.00  0.00    +0.000 A 
ATOM      9  N   UNL     1       5.168  14.768  18.714  0.00  0.00    +0.000 N 
ATOM     10  C   UNL     1       6.225  15.051  17.728  0.00  0.00    +0.000 C 
ENDROOT
BRANCH   5  11
ATOM     11  C   UNL     1       5.906  16.465  24.054  0.00  0.00    +0.000 C 
ATOM     12  N   UNL     1       6.055  16.800  25.152  0.00  0.00    +0.000 NA
ENDBRANCH   5  11
BRANCH   1  13
ATOM     13  N   UNL     1       8.309  14.193  19.058  0.00  0.00    +0.000 NA
BRANCH  13  14
ATOM     14  S   UNL     1       8.905  12.917  18.083  0.00  0.00    +0.000 S 
ATOM     15  O   UNL     1      10.128  13.364  17.441  0.00  0.00    +0.000 OA
ATOM     16  O   UNL     1       7.817  12.413  17.273  0.00  0.00    +0.000 OA
BRANCH  14  18
ATOM     17  C   UNL     1       9.083  10.221  18.783  0.00  0.00    +0.000 C 
ATOM     18  C   UNL     1       9.445  11.624  19.189  0.00  0.00    +0.000 C 
ENDBRANCH  14  18
ENDBRANCH  13  14
BRANCH  13  19
ATOM     19  C   UNL     1       9.270  14.600  20.152  0.00  0.00    +0.000 C 
BRANCH  19  20
ATOM     20  C   UNL     1       8.905  14.214  21.575  0.00  0.00    +0.000 A 
ATOM     21  C   UNL     1       8.039  13.161  21.901  0.00  0.00    +0.000 A 
ATOM     22  C   UNL     1       7.716  12.851  23.221  0.00  0.00    +0.000 A 
ATOM     23  C   UNL     1       8.255  13.601  24.258  0.00  0.00    +0.000 A 
ATOM     24  C   UNL     1       9.096  14.670  23.965  0.00  0.00    +0.000 A 
ATOM     25  C   UNL     1       9.412  14.970  22.637  0.00  0.00    +0.000 A 
ATOM     26  F   UNL     1      10.216  16.015  22.387  0.00  0.00    +0.000 F 
ENDBRANCH  19  20
ENDBRANCH  13  19
ENDBRANCH   1  13
BRANCH   9  27
ATOM     27  C   UNL     1       3.804  14.609  18.183  0.00  0.00    +0.000 C 
BRANCH  27  28
ATOM     28  C   UNL     1       2.956  15.837  18.025  0.00  0.00    +0.000 A 
ATOM     29  C   UNL     1       3.057  16.916  17.167  0.00  0.00    +0.000 A 
ATOM     30  N   UNL     1       1.965  17.741  17.259  0.00  0.00    +0.000 NA
ATOM     31  C   UNL     1       1.203  17.198  18.177  0.00  0.00    +0.000 A 
ATOM     32  N   UNL     1       1.779  16.074  18.703  0.00  0.00    +0.000 N 
ATOM     33  C   UNL     1       1.204  15.290  19.769  0.00  0.00    +0.000 C 
ENDBRANCH  27  28
ENDBRANCH   9  27
TORSDOF 8
ENDMDL
