MODEL 1
REMARK VINA RESULT:      -7.6      0.000      0.000
REMARK  Name = 
REMARK  4 active torsions:
REMARK  status: ('A' for Active; 'I' for Inactive)
REMARK    1  A    between atoms: C_1  and  C_2
REMARK    2  A    between atoms: C_2  and  C_3
REMARK    3  A    between atoms: C_6  and  N_7
REMARK    4  A    between atoms: N_13  and  C_14
REMARK                            x       y       z     vdW  Elec       q    Type
REMARK                         _______ _______ _______ _____ _____    ______ ____
ROOT
ATOM      1  N   UNL     1       2.894   7.443  18.265  0.00  0.00    +0.000 N 
ATOM      2  C   UNL     1       2.294   7.238  19.486  0.00  0.00    +0.000 C 
ATOM      3  O   UNL     1       2.443   6.222  20.162  0.00  0.00    +0.000 OA
ATOM      4  N   UNL     1       1.544   8.288  19.975  0.00  0.00    +0.000 N 
ATOM      5  C   UNL     1       1.026   8.173  21.346  0.00  0.00    +0.000 C 
ATOM      6  C   UNL     1       1.224   9.484  22.112  0.00  0.00    +0.000 C 
ATOM      7  N   UNL     1       0.613  10.596  21.364  0.00  0.00    +0.000 N 
ATOM      8  C   UNL     1       1.067  10.744  19.970  0.00  0.00    +0.000 C 
ATOM      9  C   UNL     1       0.956   9.399  19.215  0.00  0.00    +0.000 C 
ATOM     10  H   UNL     1       2.998   8.402  17.977  0.00  0.00    +0.000 HD
ENDROOT
BRANCH   7  11
ATOM     11  C   UNL     1      -0.306  11.447  21.943  0.00  0.00    +0.000 A 
ATOM     12  C   UNL     1      -0.327  12.820  21.652  0.00  0.00    +0.000 A 
ATOM     13  C   UNL     1      -1.270  13.678  22.230  0.00  0.00    +0.000 A 
ATOM     14  C   UNL     1      -2.209  13.167  23.113  0.00  0.00    +0.000 A 
ATOM     15  F   UNL     1      -3.114  13.985  23.665  0.00  0.00    +0.000 F 
ATOM     16  C   UNL     1      -2.219  11.820  23.429  0.00  0.00    +0.000 A 
ATOM     17  C   UNL     1      -1.275  10.972  22.845  0.00  0.00    +0.000 A 
ENDBRANCH   7  11
BRANCH   1  21
ATOM     18  C   UNL     1       5.242   4.602  16.178  0.00  0.00    +0.000 A 
ATOM     19  C   UNL     1       5.653   5.935  16.239  0.00  0.00    +0.000 A 
ATOM     20  C   UNL     1       4.906   6.872  16.953  0.00  0.00    +0.000 A 
ATOM     21  C   UNL     1       3.728   6.508  17.605  0.00  0.00    +0.000 A 
ATOM     22  C   UNL     1       3.342   5.162  17.593  0.00  0.00    +0.000 A 
ATOM     23  C   UNL     1       4.094   4.217  16.881  0.00  0.00    +0.000 A 
BRANCH  18  25
ATOM     24  C   UNL     1       6.196   4.034  13.927  0.00  0.00    +0.000 C 
ATOM     25  C   UNL     1       6.035   3.604  15.375  0.00  0.00    +0.000 C 
ENDBRANCH  18  25
ENDBRANCH   1  21
TORSDOF 3
ENDMDL
MODEL 2
REMARK VINA RESULT:      -7.5      1.457      1.772
REMARK  Name = 
REMARK  4 active torsions:
REMARK  status: ('A' for Active; 'I' for Inactive)
REMARK    1  A    between atoms: C_1  and  C_2
REMARK    2  A    between atoms: C_2  and  C_3
REMARK    3  A    between atoms: C_6  and  N_7
REMARK    4  A    between atoms: N_13  and  C_14
REMARK                            x       y       z     vdW  Elec       q    Type
REMARK                         _______ _______ _______ _____ _____    ______ ____
ROOT
ATOM      1  N   UNL     1       2.564   7.364  18.781  0.00  0.00    +0.000 N 
ATOM      2  C   UNL     1       2.121   8.566  18.279  0.00  0.00    +0.000 C 
ATOM      3  O   UNL     1       2.340   8.954  17.133  0.00  0.00    +0.000 OA
ATOM      4  N   UNL     1       1.330   9.320  19.122  0.00  0.00    +0.000 N 
ATOM      5  C   UNL     1       0.701  10.526  18.566  0.00  0.00    +0.000 C 
ATOM      6  C   UNL     1      -0.763  10.626  19.006  0.00  0.00    +0.000 C 
ATOM      7  N   UNL     1      -0.849  10.564  20.475  0.00  0.00    +0.000 N 
ATOM      8  C   UNL     1      -0.206   9.392  21.096  0.00  0.00    +0.000 C 
ATOM      9  C   UNL     1       1.245   9.232  20.586  0.00  0.00    +0.000 C 
ATOM     10  H   UNL     1       2.053   6.995  19.565  0.00  0.00    +0.000 HD
ENDROOT
BRANCH   7  11
ATOM     11  C   UNL     1      -1.503  11.531  21.208  0.00  0.00    +0.000 A 
ATOM     12  C   UNL     1      -2.281  12.525  20.593  0.00  0.00    +0.000 A 
ATOM     13  C   UNL     1      -2.956  13.497  21.340  0.00  0.00    +0.000 A 
ATOM     14  C   UNL     1      -2.860  13.485  22.723  0.00  0.00    +0.000 A 
ATOM     15  F   UNL     1      -3.508  14.410  23.441  0.00  0.00    +0.000 F 
ATOM     16  C   UNL     1      -2.101  12.524  23.368  0.00  0.00    +0.000 A 
ATOM     17  C   UNL     1      -1.432  11.558  22.613  0.00  0.00    +0.000 A 
ENDBRANCH   7  11
BRANCH   1  21
ATOM     18  C   UNL     1       4.795   4.552  16.534  0.00  0.00    +0.000 A 
ATOM     19  C   UNL     1       5.283   5.849  16.707  0.00  0.00    +0.000 A 
ATOM     20  C   UNL     1       4.573   6.773  17.474  0.00  0.00    +0.000 A 
ATOM     21  C   UNL     1       3.358   6.433  18.070  0.00  0.00    +0.000 A 
ATOM     22  C   UNL     1       2.894   5.119  17.944  0.00  0.00    +0.000 A 
ATOM     23  C   UNL     1       3.608   4.185  17.179  0.00  0.00    +0.000 A 
BRANCH  18  25
ATOM     24  C   UNL     1       6.029   4.200  14.376  0.00  0.00    +0.000 C 
ATOM     25  C   UNL     1       5.550   3.572  15.674  0.00  0.00    +0.000 C 
ENDBRANCH  18  25
ENDBRANCH   1  21
TORSDOF 3
ENDMDL
MODEL 3
REMARK VINA RESULT:      -7.5      1.448      2.154
REMARK  Name = 
REMARK  4 active torsions:
REMARK  status: ('A' for Active; 'I' for Inactive)
REMARK    1  A    between atoms: C_1  and  C_2
REMARK    2  A    between atoms: C_2  and  C_3
REMARK    3  A    between atoms: C_6  and  N_7
REMARK    4  A    between atoms: N_13  and  C_14
REMARK                            x       y       z     vdW  Elec       q    Type
REMARK                         _______ _______ _______ _____ _____    ______ ____
ROOT
ATOM      1  N   UNL     1       2.395   7.354  18.736  0.00  0.00    +0.000 N 
ATOM      2  C   UNL     1       2.035   8.603  18.287  0.00  0.00    +0.000 C 
ATOM      3  O   UNL     1       2.296   9.031  17.164  0.00  0.00    +0.000 OA
ATOM      4  N   UNL     1       1.280   9.364  19.155  0.00  0.00    +0.000 N 
ATOM      5  C   UNL     1       0.735  10.633  18.651  0.00  0.00    +0.000 C 
ATOM      6  C   UNL     1      -0.727  10.803  19.077  0.00  0.00    +0.000 C 
ATOM      7  N   UNL     1      -0.838  10.676  20.540  0.00  0.00    +0.000 N 
ATOM      8  C   UNL     1      -0.280   9.438  21.111  0.00  0.00    +0.000 C 
ATOM      9  C   UNL     1       1.167   9.212  20.612  0.00  0.00    +0.000 C 
ATOM     10  H   UNL     1       1.850   6.981  19.494  0.00  0.00    +0.000 HD
ENDROOT
BRANCH   7  11
ATOM     11  C   UNL     1      -1.443  11.647  21.311  0.00  0.00    +0.000 A 
ATOM     12  C   UNL     1      -1.242  11.719  22.699  0.00  0.00    +0.000 A 
ATOM     13  C   UNL     1      -1.846  12.713  23.477  0.00  0.00    +0.000 A 
ATOM     14  C   UNL     1      -2.665  13.654  22.871  0.00  0.00    +0.000 A 
ATOM     15  F   UNL     1      -3.240  14.609  23.612  0.00  0.00    +0.000 F 
ATOM     16  C   UNL     1      -2.891  13.615  21.506  0.00  0.00    +0.000 A 
ATOM     17  C   UNL     1      -2.282  12.619  20.738  0.00  0.00    +0.000 A 
ENDBRANCH   7  11
BRANCH   1  21
ATOM     18  C   UNL     1       4.773   4.561  16.617  0.00  0.00    +0.000 A 
ATOM     19  C   UNL     1       3.572   4.152  17.201  0.00  0.00    +0.000 A 
ATOM     20  C   UNL     1       2.763   5.071  17.870  0.00  0.00    +0.000 A 
ATOM     21  C   UNL     1       3.141   6.409  17.990  0.00  0.00    +0.000 A 
ATOM     22  C   UNL     1       4.316   6.834  17.360  0.00  0.00    +0.000 A 
ATOM     23  C   UNL     1       5.128   5.914  16.680  0.00  0.00    +0.000 A 
BRANCH  18  25
ATOM     24  C   UNL     1       6.171   4.065  14.592  0.00  0.00    +0.000 C 
ATOM     25  C   UNL     1       5.656   3.555  15.928  0.00  0.00    +0.000 C 
ENDBRANCH  18  25
ENDBRANCH   1  21
TORSDOF 3
ENDMDL
MODEL 4
REMARK VINA RESULT:      -7.5      1.531      2.222
REMARK  Name = 
REMARK  4 active torsions:
REMARK  status: ('A' for Active; 'I' for Inactive)
REMARK    1  A    between atoms: C_1  and  C_2
REMARK    2  A    between atoms: C_2  and  C_3
REMARK    3  A    between atoms: C_6  and  N_7
REMARK    4  A    between atoms: N_13  and  C_14
REMARK                            x       y       z     vdW  Elec       q    Type
REMARK                         _______ _______ _______ _____ _____    ______ ____
ROOT
ATOM      1  N   UNL     1       2.208   7.685  18.922  0.00  0.00    +0.000 N 
ATOM      2  C   UNL     1       1.813   8.912  18.440  0.00  0.00    +0.000 C 
ATOM      3  O   UNL     1       2.010   9.292  17.287  0.00  0.00    +0.000 OA
ATOM      4  N   UNL     1       1.099   9.705  19.314  0.00  0.00    +0.000 N 
ATOM      5  C   UNL     1       0.517  10.947  18.786  0.00  0.00    +0.000 C 
ATOM      6  C   UNL     1      -0.921  11.126  19.282  0.00  0.00    +0.000 C 
ATOM      7  N   UNL     1      -0.953  11.063  20.753  0.00  0.00    +0.000 N 
ATOM      8  C   UNL     1      -0.354   9.854  21.346  0.00  0.00    +0.000 C 
ATOM      9  C   UNL     1       1.066   9.616  20.780  0.00  0.00    +0.000 C 
ATOM     10  H   UNL     1       1.707   7.342  19.724  0.00  0.00    +0.000 HD
ENDROOT
BRANCH   7  11
ATOM     11  C   UNL     1      -1.524  12.061  21.514  0.00  0.00    +0.000 A 
ATOM     12  C   UNL     1      -2.790  12.588  21.211  0.00  0.00    +0.000 A 
ATOM     13  C   UNL     1      -3.373  13.592  21.993  0.00  0.00    +0.000 A 
ATOM     14  C   UNL     1      -2.691  14.084  23.095  0.00  0.00    +0.000 A 
ATOM     15  F   UNL     1      -3.248  15.041  23.847  0.00  0.00    +0.000 F 
ATOM     16  C   UNL     1      -1.440  13.594  23.425  0.00  0.00    +0.000 A 
ATOM     17  C   UNL     1      -0.867  12.591  22.639  0.00  0.00    +0.000 A 
ENDBRANCH   7  11
BRANCH   1  21
ATOM     18  C   UNL     1       4.490   4.813  16.805  0.00  0.00    +0.000 A 
ATOM     19  C   UNL     1       3.299   4.434  17.429  0.00  0.00    +0.000 A 
ATOM     20  C   UNL     1       2.522   5.379  18.098  0.00  0.00    +0.000 A 
ATOM     21  C   UNL     1       2.920   6.714  18.178  0.00  0.00    +0.000 A 
ATOM     22  C   UNL     1       4.085   7.107  17.508  0.00  0.00    +0.000 A 
ATOM     23  C   UNL     1       4.865   6.162  16.828  0.00  0.00    +0.000 A 
BRANCH  18  25
ATOM     24  C   UNL     1       5.880   4.276  14.785  0.00  0.00    +0.000 C 
ATOM     25  C   UNL     1       5.341   3.779  16.116  0.00  0.00    +0.000 C 
ENDBRANCH  18  25
ENDBRANCH   1  21
TORSDOF 3
ENDMDL
MODEL 5
REMARK VINA RESULT:      -7.5      0.327      1.024
REMARK  Name = 
REMARK  4 active torsions:
REMARK  status: ('A' for Active; 'I' for Inactive)
REMARK    1  A    between atoms: C_1  and  C_2
REMARK    2  A    between atoms: C_2  and  C_3
REMARK    3  A    between atoms: C_6  and  N_7
REMARK    4  A    between atoms: N_13  and  C_14
REMARK                            x       y       z     vdW  Elec       q    Type
REMARK                         _______ _______ _______ _____ _____    ______ ____
ROOT
ATOM      1  N   UNL     1       2.752   7.638  18.429  0.00  0.00    +0.000 N 
ATOM      2  C   UNL     1       2.112   7.437  19.630  0.00  0.00    +0.000 C 
ATOM      3  O   UNL     1       2.210   6.408  20.297  0.00  0.00    +0.000 OA
ATOM      4  N   UNL     1       1.380   8.503  20.112  0.00  0.00    +0.000 N 
ATOM      5  C   UNL     1       0.820   8.387  21.466  0.00  0.00    +0.000 C 
ATOM      6  C   UNL     1       1.036   9.683  22.254  0.00  0.00    +0.000 C 
ATOM      7  N   UNL     1       0.480  10.822  21.503  0.00  0.00    +0.000 N 
ATOM      8  C   UNL     1       0.978  10.973  20.125  0.00  0.00    +0.000 C 
ATOM      9  C   UNL     1       0.848   9.640  19.350  0.00  0.00    +0.000 C 
ATOM     10  H   UNL     1       2.893   8.596  18.156  0.00  0.00    +0.000 HD
ENDROOT
BRANCH   7  11
ATOM     11  C   UNL     1      -0.428  11.693  22.067  0.00  0.00    +0.000 A 
ATOM     12  C   UNL     1      -1.542  11.234  22.789  0.00  0.00    +0.000 A 
ATOM     13  C   UNL     1      -2.454  12.121  23.373  0.00  0.00    +0.000 A 
ATOM     14  C   UNL     1      -2.261  13.487  23.239  0.00  0.00    +0.000 A 
ATOM     15  F   UNL     1      -3.130  14.338  23.800  0.00  0.00    +0.000 F 
ATOM     16  C   UNL     1      -1.179  13.980  22.532  0.00  0.00    +0.000 A 
ATOM     17  C   UNL     1      -0.273  13.087  21.955  0.00  0.00    +0.000 A 
ENDBRANCH   7  11
BRANCH   1  21
ATOM     18  C   UNL     1       5.072   4.753  16.371  0.00  0.00    +0.000 A 
ATOM     19  C   UNL     1       5.529   6.068  16.477  0.00  0.00    +0.000 A 
ATOM     20  C   UNL     1       4.790   7.018  17.182  0.00  0.00    +0.000 A 
ATOM     21  C   UNL     1       3.575   6.685  17.781  0.00  0.00    +0.000 A 
ATOM     22  C   UNL     1       3.141   5.356  17.724  0.00  0.00    +0.000 A 
ATOM     23  C   UNL     1       3.884   4.397  17.022  0.00  0.00    +0.000 A 
BRANCH  18  25
ATOM     24  C   UNL     1       6.001   4.146  14.119  0.00  0.00    +0.000 C 
ATOM     25  C   UNL     1       5.858   3.743  15.577  0.00  0.00    +0.000 C 
ENDBRANCH  18  25
ENDBRANCH   1  21
TORSDOF 3
ENDMDL
MODEL 6
REMARK VINA RESULT:      -7.5      1.452      2.275
REMARK  Name = 
REMARK  4 active torsions:
REMARK  status: ('A' for Active; 'I' for Inactive)
REMARK    1  A    between atoms: C_1  and  C_2
REMARK    2  A    between atoms: C_2  and  C_3
REMARK    3  A    between atoms: C_6  and  N_7
REMARK    4  A    between atoms: N_13  and  C_14
REMARK                            x       y       z     vdW  Elec       q    Type
REMARK                         _______ _______ _______ _____ _____    ______ ____
ROOT
ATOM      1  N   UNL     1       2.044   7.915  19.387  0.00  0.00    +0.000 N 
ATOM      2  C   UNL     1       1.524   9.112  18.952  0.00  0.00    +0.000 C 
ATOM      3  O   UNL     1       1.529   9.476  17.777  0.00  0.00    +0.000 OA
ATOM      4  N   UNL     1       0.910   9.890  19.911  0.00  0.00    +0.000 N 
ATOM      5  C   UNL     1       0.197  11.093  19.458  0.00  0.00    +0.000 C 
ATOM      6  C   UNL     1      -1.159  11.217  20.160  0.00  0.00    +0.000 C 
ATOM      7  N   UNL     1      -0.970  11.183  21.620  0.00  0.00    +0.000 N 
ATOM      8  C   UNL     1      -0.232  10.016  22.135  0.00  0.00    +0.000 C 
ATOM      9  C   UNL     1       1.098   9.830  21.367  0.00  0.00    +0.000 C 
ATOM     10  H   UNL     1       1.684   7.566  20.260  0.00  0.00    +0.000 HD
ENDROOT
BRANCH   7  11
ATOM     11  C   UNL     1      -1.470  12.171  22.442  0.00  0.00    +0.000 A 
ATOM     12  C   UNL     1      -0.752  13.350  22.701  0.00  0.00    +0.000 A 
ATOM     13  C   UNL     1      -1.268  14.357  23.525  0.00  0.00    +0.000 A 
ATOM     14  C   UNL     1      -2.517  14.195  24.104  0.00  0.00    +0.000 A 
ATOM     15  F   UNL     1      -3.015  15.158  24.889  0.00  0.00    +0.000 F 
ATOM     16  C   UNL     1      -3.255  13.046  23.877  0.00  0.00    +0.000 A 
ATOM     17  C   UNL     1      -2.732  12.047  23.051  0.00  0.00    +0.000 A 
ENDBRANCH   7  11
BRANCH   1  21
ATOM     18  C   UNL     1       4.121   5.095  17.004  0.00  0.00    +0.000 A 
ATOM     19  C   UNL     1       3.004   4.696  17.741  0.00  0.00    +0.000 A 
ATOM     20  C   UNL     1       2.292   5.624  18.502  0.00  0.00    +0.000 A 
ATOM     21  C   UNL     1       2.685   6.961  18.559  0.00  0.00    +0.000 A 
ATOM     22  C   UNL     1       3.770   7.376  17.779  0.00  0.00    +0.000 A 
ATOM     23  C   UNL     1       4.485   6.448  17.009  0.00  0.00    +0.000 A 
BRANCH  18  25
ATOM     24  C   UNL     1       5.770   4.729  15.147  0.00  0.00    +0.000 C 
ATOM     25  C   UNL     1       4.905   4.080  16.215  0.00  0.00    +0.000 C 
ENDBRANCH  18  25
ENDBRANCH   1  21
TORSDOF 3
ENDMDL
MODEL 7
REMARK VINA RESULT:      -7.4      0.260      1.013
REMARK  Name = 
REMARK  4 active torsions:
REMARK  status: ('A' for Active; 'I' for Inactive)
REMARK    1  A    between atoms: C_1  and  C_2
REMARK    2  A    between atoms: C_2  and  C_3
REMARK    3  A    between atoms: C_6  and  N_7
REMARK    4  A    between atoms: N_13  and  C_14
REMARK                            x       y       z     vdW  Elec       q    Type
REMARK                         _______ _______ _______ _____ _____    ______ ____
ROOT
ATOM      1  N   UNL     1       2.752   7.596  18.291  0.00  0.00    +0.000 N 
ATOM      2  C   UNL     1       2.155   7.381  19.512  0.00  0.00    +0.000 C 
ATOM      3  O   UNL     1       2.285   6.349  20.168  0.00  0.00    +0.000 OA
ATOM      4  N   UNL     1       1.433   8.438  20.027  0.00  0.00    +0.000 N 
ATOM      5  C   UNL     1       0.922   8.309  21.399  0.00  0.00    +0.000 C 
ATOM      6  C   UNL     1       1.155   9.600  22.189  0.00  0.00    +0.000 C 
ATOM      7  N   UNL     1       0.565  10.740  21.466  0.00  0.00    +0.000 N 
ATOM      8  C   UNL     1       1.013  10.905  20.072  0.00  0.00    +0.000 C 
ATOM      9  C   UNL     1       0.866   9.577  19.292  0.00  0.00    +0.000 C 
ATOM     10  H   UNL     1       2.876   8.557  18.021  0.00  0.00    +0.000 HD
ENDROOT
BRANCH   7  11
ATOM     11  C   UNL     1      -0.330  11.600  22.068  0.00  0.00    +0.000 A 
ATOM     12  C   UNL     1      -0.214  12.994  21.943  0.00  0.00    +0.000 A 
ATOM     13  C   UNL     1      -1.131  13.863  22.543  0.00  0.00    +0.000 A 
ATOM     14  C   UNL     1      -2.185  13.344  23.281  0.00  0.00    +0.000 A 
ATOM     15  F   UNL     1      -3.067  14.174  23.852  0.00  0.00    +0.000 F 
ATOM     16  C   UNL     1      -2.333  11.977  23.431  0.00  0.00    +0.000 A 
ATOM     17  C   UNL     1      -1.412  11.117  22.826  0.00  0.00    +0.000 A 
ENDBRANCH   7  11
BRANCH   1  21
ATOM     18  C   UNL     1       5.313   4.837  16.350  0.00  0.00    +0.000 A 
ATOM     19  C   UNL     1       4.176   4.380  17.020  0.00  0.00    +0.000 A 
ATOM     20  C   UNL     1       3.307   5.282  17.633  0.00  0.00    +0.000 A 
ATOM     21  C   UNL     1       3.559   6.655  17.608  0.00  0.00    +0.000 A 
ATOM     22  C   UNL     1       4.667   7.120  16.891  0.00  0.00    +0.000 A 
ATOM     23  C   UNL     1       5.539   6.216  16.268  0.00  0.00    +0.000 A 
BRANCH  18  25
ATOM     24  C   UNL     1       6.214   3.895  14.204  0.00  0.00    +0.000 C 
ATOM     25  C   UNL     1       6.265   3.853  15.722  0.00  0.00    +0.000 C 
ENDBRANCH  18  25
ENDBRANCH   1  21
TORSDOF 3
ENDMDL
MODEL 8
REMARK VINA RESULT:      -7.4      2.068      3.017
REMARK  Name = 
REMARK  4 active torsions:
REMARK  status: ('A' for Active; 'I' for Inactive)
REMARK    1  A    between atoms: C_1  and  C_2
REMARK    2  A    between atoms: C_2  and  C_3
REMARK    3  A    between atoms: C_6  and  N_7
REMARK    4  A    between atoms: N_13  and  C_14
REMARK                            x       y       z     vdW  Elec       q    Type
REMARK                         _______ _______ _______ _____ _____    ______ ____
ROOT
ATOM      1  N   UNL     1       1.592   7.365  20.749  0.00  0.00    +0.000 N 
ATOM      2  C   UNL     1       1.352   8.596  20.184  0.00  0.00    +0.000 C 
ATOM      3  O   UNL     1       1.617   8.880  19.017  0.00  0.00    +0.000 OA
ATOM      4  N   UNL     1       0.714   9.517  20.988  0.00  0.00    +0.000 N 
ATOM      5  C   UNL     1       0.291  10.782  20.371  0.00  0.00    +0.000 C 
ATOM      6  C   UNL     1      -1.129  11.154  20.812  0.00  0.00    +0.000 C 
ATOM      7  N   UNL     1      -1.202  11.185  22.283  0.00  0.00    +0.000 N 
ATOM      8  C   UNL     1      -0.759   9.955  22.964  0.00  0.00    +0.000 C 
ATOM      9  C   UNL     1       0.637   9.524  22.456  0.00  0.00    +0.000 C 
ATOM     10  H   UNL     1       1.037   7.131  21.555  0.00  0.00    +0.000 HD
ENDROOT
BRANCH   7  11
ATOM     11  C   UNL     1      -1.672  12.287  22.966  0.00  0.00    +0.000 A 
ATOM     12  C   UNL     1      -2.954  12.311  23.537  0.00  0.00    +0.000 A 
ATOM     13  C   UNL     1      -3.423  13.426  24.241  0.00  0.00    +0.000 A 
ATOM     14  C   UNL     1      -2.608  14.538  24.384  0.00  0.00    +0.000 A 
ATOM     15  F   UNL     1      -3.052  15.604  25.061  0.00  0.00    +0.000 F 
ATOM     16  C   UNL     1      -1.338  14.556  23.833  0.00  0.00    +0.000 A 
ATOM     17  C   UNL     1      -0.879  13.437  23.133  0.00  0.00    +0.000 A 
ENDBRANCH   7  11
BRANCH   1  21
ATOM     18  C   UNL     1       3.265   4.075  18.672  0.00  0.00    +0.000 A 
ATOM     19  C   UNL     1       3.854   5.336  18.568  0.00  0.00    +0.000 A 
ATOM     20  C   UNL     1       3.333   6.420  19.276  0.00  0.00    +0.000 A 
ATOM     21  C   UNL     1       2.205   6.275  20.085  0.00  0.00    +0.000 A 
ATOM     22  C   UNL     1       1.645   5.001  20.235  0.00  0.00    +0.000 A 
ATOM     23  C   UNL     1       2.171   3.909  19.530  0.00  0.00    +0.000 A 
BRANCH  18  25
ATOM     24  C   UNL     1       3.424   1.577  18.473  0.00  0.00    +0.000 C 
ATOM     25  C   UNL     1       3.813   2.919  17.876  0.00  0.00    +0.000 C 
ENDBRANCH  18  25
ENDBRANCH   1  21
TORSDOF 3
ENDMDL
MODEL 9
REMARK VINA RESULT:      -7.4      1.910      2.794
REMARK  Name = 
REMARK  4 active torsions:
REMARK  status: ('A' for Active; 'I' for Inactive)
REMARK    1  A    between atoms: C_1  and  C_2
REMARK    2  A    between atoms: C_2  and  C_3
REMARK    3  A    between atoms: C_6  and  N_7
REMARK    4  A    between atoms: N_13  and  C_14
REMARK                            x       y       z     vdW  Elec       q    Type
REMARK                         _______ _______ _______ _____ _____    ______ ____
ROOT
ATOM      1  N   UNL     1       1.668   7.568  20.559  0.00  0.00    +0.000 N 
ATOM      2  C   UNL     1       1.391   8.816  20.051  0.00  0.00    +0.000 C 
ATOM      3  O   UNL     1       1.645   9.160  18.897  0.00  0.00    +0.000 OA
ATOM      4  N   UNL     1       0.726   9.680  20.896  0.00  0.00    +0.000 N 
ATOM      5  C   UNL     1       0.265  10.959  20.337  0.00  0.00    +0.000 C 
ATOM      6  C   UNL     1      -1.164  11.267  20.795  0.00  0.00    +0.000 C 
ATOM      7  N   UNL     1      -1.236  11.229  22.266  0.00  0.00    +0.000 N 
ATOM      8  C   UNL     1      -0.756   9.984  22.890  0.00  0.00    +0.000 C 
ATOM      9  C   UNL     1       0.652   9.617  22.362  0.00  0.00    +0.000 C 
ATOM     10  H   UNL     1       1.121   7.281  21.353  0.00  0.00    +0.000 HD
ENDROOT
BRANCH   7  11
ATOM     11  C   UNL     1      -1.737  12.285  22.999  0.00  0.00    +0.000 A 
ATOM     12  C   UNL     1      -0.992  13.456  23.212  0.00  0.00    +0.000 A 
ATOM     13  C   UNL     1      -1.510  14.531  23.944  0.00  0.00    +0.000 A 
ATOM     14  C   UNL     1      -2.788  14.446  24.474  0.00  0.00    +0.000 A 
ATOM     15  F   UNL     1      -3.287  15.475  25.171  0.00  0.00    +0.000 F 
ATOM     16  C   UNL     1      -3.553  13.308  24.289  0.00  0.00    +0.000 A 
ATOM     17  C   UNL     1      -3.028  12.241  23.556  0.00  0.00    +0.000 A 
ENDBRANCH   7  11
BRANCH   1  21
ATOM     18  C   UNL     1       3.431   4.368  18.416  0.00  0.00    +0.000 A 
ATOM     19  C   UNL     1       3.500   5.667  17.909  0.00  0.00    +0.000 A 
ATOM     20  C   UNL     1       2.953   6.733  18.623  0.00  0.00    +0.000 A 
ATOM     21  C   UNL     1       2.312   6.529  19.846  0.00  0.00    +0.000 A 
ATOM     22  C   UNL     1       2.290   5.237  20.383  0.00  0.00    +0.000 A 
ATOM     23  C   UNL     1       2.844   4.163  19.671  0.00  0.00    +0.000 A 
BRANCH  18  25
ATOM     24  C   UNL     1       3.354   1.892  18.004  0.00  0.00    +0.000 C 
ATOM     25  C   UNL     1       3.991   3.218  17.622  0.00  0.00    +0.000 C 
ENDBRANCH  18  25
ENDBRANCH   1  21
TORSDOF 3
ENDMDL
