MODEL 1
REMARK VINA RESULT:      -9.3      0.000      0.000
REMARK  Name = 
REMARK  5 active torsions:
REMARK  status: ('A' for Active; 'I' for Inactive)
REMARK    1  A    between atoms: C_1  and  C_2
REMARK    2  A    between atoms: C_5  and  C_6
REMARK    3  A    between atoms: C_7  and  N_8
REMARK    4  A    between atoms: C_12  and  C_14
REMARK    5  A    between atoms: C_23  and  C_24
REMARK                            x       y       z     vdW  Elec       q    Type
REMARK                         _______ _______ _______ _____ _____    ______ ____
ROOT
ATOM      1  C   UNL     1      -0.349   9.809  20.498  0.00  0.00    +0.000 C 
ATOM      2  C   UNL     1       0.153   8.463  21.024  0.00  0.00    +0.000 C 
ATOM      3  C   UNL     1       1.585   8.159  20.609  0.00  0.00    +0.000 C 
ATOM      4  N   UNL     1       1.790   8.345  19.177  0.00  0.00    +0.000 N 
ATOM      5  C   UNL     1       2.562   7.436  18.538  0.00  0.00    +0.000 A 
ATOM      6  N   UNL     1       2.574   6.144  18.744  0.00  0.00    +0.000 NA
ATOM      7  C   UNL     1       3.468   5.630  17.849  0.00  0.00    +0.000 A 
ATOM      8  C   UNL     1       3.795   4.292  17.605  0.00  0.00    +0.000 A 
ATOM      9  C   UNL     1       4.760   4.004  16.636  0.00  0.00    +0.000 A 
ATOM     10  C   UNL     1       5.405   5.029  15.927  0.00  0.00    +0.000 A 
ATOM     11  C   UNL     1       6.450   4.680  14.903  0.00  0.00    +0.000 C 
ATOM     12  C   UNL     1       5.085   6.380  16.172  0.00  0.00    +0.000 A 
ATOM     13  C   UNL     1       4.089   6.638  17.125  0.00  0.00    +0.000 A 
ATOM     14  N   UNL     1       3.496   7.789  17.585  0.00  0.00    +0.000 N 
ATOM     15  C   UNL     1       1.277   9.534  18.519  0.00  0.00    +0.000 C 
ATOM     16  C   UNL     1      -0.157   9.834  18.968  0.00  0.00    +0.000 C 
ATOM     17  H   UNL     1       3.719   8.733  17.312  0.00  0.00    +0.000 HD
ENDROOT
BRANCH   1  22
ATOM     18  N   UNL     1      -0.578  14.863  19.803  0.00  0.00    +0.000 N 
ATOM     19  C   UNL     1       0.658  14.557  20.540  0.00  0.00    +0.000 C 
ATOM     20  C   UNL     1       0.396  13.454  21.591  0.00  0.00    +0.000 C 
ATOM     21  N   UNL     1      -0.286  12.282  21.018  0.00  0.00    +0.000 N 
ATOM     22  C   UNL     1       0.297  11.039  21.164  0.00  0.00    +0.000 C 
ATOM     23  O   UNL     1       1.353  10.905  21.782  0.00  0.00    +0.000 OA
ATOM     24  C   UNL     1      -1.507  12.627  20.277  0.00  0.00    +0.000 C 
ATOM     25  C   UNL     1      -1.229  13.691  19.191  0.00  0.00    +0.000 C 
BRANCH  18  32
ATOM     26  C   UNL     1       0.515  18.341  16.519  0.00  0.00    +0.000 C 
ATOM     27  C   UNL     1      -0.362  17.869  17.641  0.00  0.00    +0.000 A 
ATOM     28  C   UNL     1      -1.436  18.630  18.085  0.00  0.00    +0.000 A 
ATOM     29  C   UNL     1      -2.213  18.174  19.147  0.00  0.00    +0.000 A 
ATOM     30  C   UNL     1      -1.940  16.946  19.792  0.00  0.00    +0.000 A 
ATOM     31  C   UNL     1      -2.775  16.618  21.001  0.00  0.00    +0.000 C 
ATOM     32  C   UNL     1      -0.886  16.131  19.328  0.00  0.00    +0.000 A 
ATOM     33  C   UNL     1      -0.104  16.638  18.264  0.00  0.00    +0.000 A 
ENDBRANCH  18  32
ENDBRANCH   1  22
TORSDOF 2
ENDMDL
MODEL 2
REMARK VINA RESULT:      -9.2      0.970      1.842
REMARK  Name = 
REMARK  5 active torsions:
REMARK  status: ('A' for Active; 'I' for Inactive)
REMARK    1  A    between atoms: C_1  and  C_2
REMARK    2  A    between atoms: C_5  and  C_6
REMARK    3  A    between atoms: C_7  and  N_8
REMARK    4  A    between atoms: C_12  and  C_14
REMARK    5  A    between atoms: C_23  and  C_24
REMARK                            x       y       z     vdW  Elec       q    Type
REMARK                         _______ _______ _______ _____ _____    ______ ____
ROOT
ATOM      1  C   UNL     1      -0.445   9.709  20.603  0.00  0.00    +0.000 C 
ATOM      2  C   UNL     1       0.055   8.351  21.098  0.00  0.00    +0.000 C 
ATOM      3  C   UNL     1       1.493   8.063  20.691  0.00  0.00    +0.000 C 
ATOM      4  N   UNL     1       1.714   8.289  19.267  0.00  0.00    +0.000 N 
ATOM      5  C   UNL     1       2.497   7.400  18.613  0.00  0.00    +0.000 A 
ATOM      6  N   UNL     1       2.510   6.103  18.783  0.00  0.00    +0.000 NA
ATOM      7  C   UNL     1       3.416   5.616  17.885  0.00  0.00    +0.000 A 
ATOM      8  C   UNL     1       3.751   4.287  17.607  0.00  0.00    +0.000 A 
ATOM      9  C   UNL     1       4.727   4.029  16.642  0.00  0.00    +0.000 A 
ATOM     10  C   UNL     1       5.378   5.075  15.970  0.00  0.00    +0.000 A 
ATOM     11  C   UNL     1       6.435   4.758  14.949  0.00  0.00    +0.000 C 
ATOM     12  C   UNL     1       5.050   6.418  16.248  0.00  0.00    +0.000 A 
ATOM     13  C   UNL     1       4.043   6.647  17.196  0.00  0.00    +0.000 A 
ATOM     14  N   UNL     1       3.440   7.783  17.681  0.00  0.00    +0.000 N 
ATOM     15  C   UNL     1       1.205   9.494  18.637  0.00  0.00    +0.000 C 
ATOM     16  C   UNL     1      -0.235   9.777  19.077  0.00  0.00    +0.000 C 
ATOM     17  H   UNL     1       3.663   8.734  17.437  0.00  0.00    +0.000 HD
ENDROOT
BRANCH   1  22
ATOM     18  N   UNL     1       0.629  14.529  19.302  0.00  0.00    +0.000 N 
ATOM     19  C   UNL     1       1.462  14.170  20.459  0.00  0.00    +0.000 C 
ATOM     20  C   UNL     1       0.646  13.329  21.467  0.00  0.00    +0.000 C 
ATOM     21  N   UNL     1      -0.040  12.195  20.826  0.00  0.00    +0.000 N 
ATOM     22  C   UNL     1       0.189  10.923  21.312  0.00  0.00    +0.000 C 
ATOM     23  O   UNL     1       0.932  10.737  22.275  0.00  0.00    +0.000 OA
ATOM     24  C   UNL     1      -0.850  12.588  19.665  0.00  0.00    +0.000 C 
ATOM     25  C   UNL     1      -0.016  13.383  18.636  0.00  0.00    +0.000 C 
BRANCH  18  32
ATOM     26  C   UNL     1      -1.610  18.629  17.799  0.00  0.00    +0.000 C 
ATOM     27  C   UNL     1      -0.354  17.814  17.885  0.00  0.00    +0.000 A 
ATOM     28  C   UNL     1       0.848  18.285  17.373  0.00  0.00    +0.000 A 
ATOM     29  C   UNL     1       1.990  17.490  17.446  0.00  0.00    +0.000 A 
ATOM     30  C   UNL     1       1.962  16.206  18.034  0.00  0.00    +0.000 A 
ATOM     31  C   UNL     1       3.228  15.396  17.948  0.00  0.00    +0.000 C 
ATOM     32  C   UNL     1       0.766  15.724  18.606  0.00  0.00    +0.000 A 
ATOM     33  C   UNL     1      -0.377  16.548  18.491  0.00  0.00    +0.000 A 
ENDBRANCH  18  32
ENDBRANCH   1  22
TORSDOF 2
ENDMDL
MODEL 3
REMARK VINA RESULT:      -8.5      2.533      3.561
REMARK  Name = 
REMARK  5 active torsions:
REMARK  status: ('A' for Active; 'I' for Inactive)
REMARK    1  A    between atoms: C_1  and  C_2
REMARK    2  A    between atoms: C_5  and  C_6
REMARK    3  A    between atoms: C_7  and  N_8
REMARK    4  A    between atoms: C_12  and  C_14
REMARK    5  A    between atoms: C_23  and  C_24
REMARK                            x       y       z     vdW  Elec       q    Type
REMARK                         _______ _______ _______ _____ _____    ______ ____
ROOT
ATOM      1  C   UNL     1      -0.508  10.221  20.087  0.00  0.00    +0.000 C 
ATOM      2  C   UNL     1       0.012   8.985  20.824  0.00  0.00    +0.000 C 
ATOM      3  C   UNL     1       1.453   8.646  20.474  0.00  0.00    +0.000 C 
ATOM      4  N   UNL     1       1.671   8.606  19.033  0.00  0.00    +0.000 N 
ATOM      5  C   UNL     1       2.466   7.622  18.554  0.00  0.00    +0.000 A 
ATOM      6  N   UNL     1       2.497   6.379  18.961  0.00  0.00    +0.000 NA
ATOM      7  C   UNL     1       3.410   5.746  18.167  0.00  0.00    +0.000 A 
ATOM      8  C   UNL     1       3.762   4.393  18.141  0.00  0.00    +0.000 A 
ATOM      9  C   UNL     1       4.743   3.973  17.238  0.00  0.00    +0.000 A 
ATOM     10  C   UNL     1       5.379   4.885  16.382  0.00  0.00    +0.000 A 
ATOM     11  C   UNL     1       6.441   4.397  15.435  0.00  0.00    +0.000 C 
ATOM     12  C   UNL     1       5.033   6.251  16.406  0.00  0.00    +0.000 A 
ATOM     13  C   UNL     1       4.022   6.639  17.297  0.00  0.00    +0.000 A 
ATOM     14  N   UNL     1       3.404   7.837  17.564  0.00  0.00    +0.000 N 
ATOM     15  C   UNL     1       1.146   9.666  18.191  0.00  0.00    +0.000 C 
ATOM     16  C   UNL     1      -0.298  10.006  18.574  0.00  0.00    +0.000 C 
ATOM     17  H   UNL     1       3.614   8.729  17.147  0.00  0.00    +0.000 HD
ENDROOT
BRANCH   1  22
ATOM     18  N   UNL     1      -2.166  14.277  22.708  0.00  0.00    +0.000 N 
ATOM     19  C   UNL     1      -0.979  14.681  21.941  0.00  0.00    +0.000 C 
ATOM     20  C   UNL     1       0.085  13.560  21.968  0.00  0.00    +0.000 C 
ATOM     21  N   UNL     1      -0.473  12.249  21.596  0.00  0.00    +0.000 N 
ATOM     22  C   UNL     1       0.110  11.553  20.555  0.00  0.00    +0.000 C 
ATOM     23  O   UNL     1       1.091  12.004  19.963  0.00  0.00    +0.000 OA
ATOM     24  C   UNL     1      -1.666  11.885  22.372  0.00  0.00    +0.000 C 
ATOM     25  C   UNL     1      -2.747  12.986  22.298  0.00  0.00    +0.000 C 
BRANCH  18  32
ATOM     26  C   UNL     1      -6.449  16.663  22.910  0.00  0.00    +0.000 C 
ATOM     27  C   UNL     1      -5.131  16.343  23.549  0.00  0.00    +0.000 A 
ATOM     28  C   UNL     1      -4.791  16.853  24.795  0.00  0.00    +0.000 A 
ATOM     29  C   UNL     1      -3.546  16.557  25.347  0.00  0.00    +0.000 A 
ATOM     30  C   UNL     1      -2.610  15.743  24.670  0.00  0.00    +0.000 A 
ATOM     31  C   UNL     1      -1.257  15.593  25.312  0.00  0.00    +0.000 C 
ATOM     32  C   UNL     1      -2.950  15.172  23.426  0.00  0.00    +0.000 A 
ATOM     33  C   UNL     1      -4.211  15.515  22.886  0.00  0.00    +0.000 A 
ENDBRANCH  18  32
ENDBRANCH   1  22
TORSDOF 2
ENDMDL
MODEL 4
REMARK VINA RESULT:      -8.1      0.737      1.972
REMARK  Name = 
REMARK  5 active torsions:
REMARK  status: ('A' for Active; 'I' for Inactive)
REMARK    1  A    between atoms: C_1  and  C_2
REMARK    2  A    between atoms: C_5  and  C_6
REMARK    3  A    between atoms: C_7  and  N_8
REMARK    4  A    between atoms: C_12  and  C_14
REMARK    5  A    between atoms: C_23  and  C_24
REMARK                            x       y       z     vdW  Elec       q    Type
REMARK                         _______ _______ _______ _____ _____    ______ ____
ROOT
ATOM      1  C   UNL     1      -0.364   9.797  20.607  0.00  0.00    +0.000 C 
ATOM      2  C   UNL     1       0.171   8.461  21.127  0.00  0.00    +0.000 C 
ATOM      3  C   UNL     1       1.600   8.180  20.686  0.00  0.00    +0.000 C 
ATOM      4  N   UNL     1       1.774   8.365  19.250  0.00  0.00    +0.000 N 
ATOM      5  C   UNL     1       2.549   7.467  18.599  0.00  0.00    +0.000 A 
ATOM      6  N   UNL     1       2.587   6.176  18.808  0.00  0.00    +0.000 NA
ATOM      7  C   UNL     1       3.472   5.674  17.898  0.00  0.00    +0.000 A 
ATOM      8  C   UNL     1       3.817   4.341  17.651  0.00  0.00    +0.000 A 
ATOM      9  C   UNL     1       4.768   4.067  16.665  0.00  0.00    +0.000 A 
ATOM     10  C   UNL     1       5.382   5.101  15.941  0.00  0.00    +0.000 A 
ATOM     11  C   UNL     1       6.413   4.766  14.898  0.00  0.00    +0.000 C 
ATOM     12  C   UNL     1       5.044   6.447  16.188  0.00  0.00    +0.000 A 
ATOM     13  C   UNL     1       4.062   6.691  17.159  0.00  0.00    +0.000 A 
ATOM     14  N   UNL     1       3.459   7.834  17.627  0.00  0.00    +0.000 N 
ATOM     15  C   UNL     1       1.229   9.543  18.599  0.00  0.00    +0.000 C 
ATOM     16  C   UNL     1      -0.202   9.820  19.074  0.00  0.00    +0.000 C 
ATOM     17  H   UNL     1       3.660   8.780  17.348  0.00  0.00    +0.000 HD
ENDROOT
BRANCH   1  22
ATOM     18  N   UNL     1      -1.349  14.807  20.617  0.00  0.00    +0.000 N 
ATOM     19  C   UNL     1       0.055  14.615  21.011  0.00  0.00    +0.000 C 
ATOM     20  C   UNL     1       0.187  13.394  21.949  0.00  0.00    +0.000 C 
ATOM     21  N   UNL     1      -0.470  12.194  21.403  0.00  0.00    +0.000 N 
ATOM     22  C   UNL     1       0.274  11.040  21.258  0.00  0.00    +0.000 C 
ATOM     23  O   UNL     1       1.456  11.002  21.599  0.00  0.00    +0.000 OA
ATOM     24  C   UNL     1      -1.866  12.427  21.007  0.00  0.00    +0.000 C 
ATOM     25  C   UNL     1      -1.985  13.616  20.028  0.00  0.00    +0.000 C 
BRANCH  18  32
ATOM     26  C   UNL     1      -4.734  18.062  22.040  0.00  0.00    +0.000 C 
ATOM     27  C   UNL     1      -3.591  17.718  21.132  0.00  0.00    +0.000 A 
ATOM     28  C   UNL     1      -3.106  18.631  20.205  0.00  0.00    +0.000 A 
ATOM     29  C   UNL     1      -2.061  18.268  19.359  0.00  0.00    +0.000 A 
ATOM     30  C   UNL     1      -1.470  16.986  19.418  0.00  0.00    +0.000 A 
ATOM     31  C   UNL     1      -0.430  16.671  18.376  0.00  0.00    +0.000 C 
ATOM     32  C   UNL     1      -1.910  16.057  20.385  0.00  0.00    +0.000 A 
ATOM     33  C   UNL     1      -2.989  16.452  21.210  0.00  0.00    +0.000 A 
ENDBRANCH  18  32
ENDBRANCH   1  22
TORSDOF 2
ENDMDL
MODEL 5
REMARK VINA RESULT:      -8.0      2.437      3.540
REMARK  Name = 
REMARK  5 active torsions:
REMARK  status: ('A' for Active; 'I' for Inactive)
REMARK    1  A    between atoms: C_1  and  C_2
REMARK    2  A    between atoms: C_5  and  C_6
REMARK    3  A    between atoms: C_7  and  N_8
REMARK    4  A    between atoms: C_12  and  C_14
REMARK    5  A    between atoms: C_23  and  C_24
REMARK                            x       y       z     vdW  Elec       q    Type
REMARK                         _______ _______ _______ _____ _____    ______ ____
ROOT
ATOM      1  C   UNL     1      -0.187  10.446  19.915  0.00  0.00    +0.000 C 
ATOM      2  C   UNL     1       0.287   9.258  20.754  0.00  0.00    +0.000 C 
ATOM      3  C   UNL     1       1.682   8.781  20.376  0.00  0.00    +0.000 C 
ATOM      4  N   UNL     1       1.818   8.578  18.939  0.00  0.00    +0.000 N 
ATOM      5  C   UNL     1       2.518   7.495  18.530  0.00  0.00    +0.000 A 
ATOM      6  N   UNL     1       2.487   6.301  19.065  0.00  0.00    +0.000 NA
ATOM      7  C   UNL     1       3.311   5.526  18.302  0.00  0.00    +0.000 A 
ATOM      8  C   UNL     1       3.570   4.155  18.402  0.00  0.00    +0.000 A 
ATOM      9  C   UNL     1       4.469   3.575  17.505  0.00  0.00    +0.000 A 
ATOM     10  C   UNL     1       5.118   4.345  16.528  0.00  0.00    +0.000 A 
ATOM     11  C   UNL     1       6.093   3.687  15.590  0.00  0.00    +0.000 C 
ATOM     12  C   UNL     1       4.868   5.729  16.423  0.00  0.00    +0.000 A 
ATOM     13  C   UNL     1       3.934   6.278  17.314  0.00  0.00    +0.000 A 
ATOM     14  N   UNL     1       3.414   7.539  17.481  0.00  0.00    +0.000 N 
ATOM     15  C   UNL     1       1.321   9.581  18.015  0.00  0.00    +0.000 C 
ATOM     16  C   UNL     1      -0.074  10.064  18.426  0.00  0.00    +0.000 C 
ATOM     17  H   UNL     1       3.661   8.366  16.962  0.00  0.00    +0.000 HD
ENDROOT
BRANCH   1  22
ATOM     18  N   UNL     1      -1.124  14.552  22.804  0.00  0.00    +0.000 N 
ATOM     19  C   UNL     1      -0.143  14.929  21.776  0.00  0.00    +0.000 C 
ATOM     20  C   UNL     1       0.880  13.789  21.567  0.00  0.00    +0.000 C 
ATOM     21  N   UNL     1       0.231  12.485  21.351  0.00  0.00    +0.000 N 
ATOM     22  C   UNL     1       0.544  11.771  20.211  0.00  0.00    +0.000 C 
ATOM     23  O   UNL     1       1.365  12.200  19.401  0.00  0.00    +0.000 OA
ATOM     24  C   UNL     1      -0.753  12.149  22.388  0.00  0.00    +0.000 C 
ATOM     25  C   UNL     1      -1.804  13.268  22.556  0.00  0.00    +0.000 C 
BRANCH  18  32
ATOM     26  C   UNL     1      -0.665  16.965  27.052  0.00  0.00    +0.000 C 
ATOM     27  C   UNL     1      -1.451  16.717  25.799  0.00  0.00    +0.000 A 
ATOM     28  C   UNL     1      -2.615  17.423  25.527  0.00  0.00    +0.000 A 
ATOM     29  C   UNL     1      -3.335  17.148  24.366  0.00  0.00    +0.000 A 
ATOM     30  C   UNL     1      -2.910  16.162  23.446  0.00  0.00    +0.000 A 
ATOM     31  C   UNL     1      -3.831  15.873  22.292  0.00  0.00    +0.000 C 
ATOM     32  C   UNL     1      -1.704  15.466  23.674  0.00  0.00    +0.000 A 
ATOM     33  C   UNL     1      -1.014  15.755  24.875  0.00  0.00    +0.000 A 
ENDBRANCH  18  32
ENDBRANCH   1  22
TORSDOF 2
ENDMDL
MODEL 6
REMARK VINA RESULT:      -8.0      1.893      2.355
REMARK  Name = 
REMARK  5 active torsions:
REMARK  status: ('A' for Active; 'I' for Inactive)
REMARK    1  A    between atoms: C_1  and  C_2
REMARK    2  A    between atoms: C_5  and  C_6
REMARK    3  A    between atoms: C_7  and  N_8
REMARK    4  A    between atoms: C_12  and  C_14
REMARK    5  A    between atoms: C_23  and  C_24
REMARK                            x       y       z     vdW  Elec       q    Type
REMARK                         _______ _______ _______ _____ _____    ______ ____
ROOT
ATOM      1  C   UNL     1      -0.604  10.092  20.727  0.00  0.00    +0.000 C 
ATOM      2  C   UNL     1      -0.045   8.797  21.320  0.00  0.00    +0.000 C 
ATOM      3  C   UNL     1       1.383   8.509  20.880  0.00  0.00    +0.000 C 
ATOM      4  N   UNL     1       1.539   8.609  19.433  0.00  0.00    +0.000 N 
ATOM      5  C   UNL     1       2.320   7.684  18.829  0.00  0.00    +0.000 A 
ATOM      6  N   UNL     1       2.377   6.409  19.115  0.00  0.00    +0.000 NA
ATOM      7  C   UNL     1       3.260   5.865  18.226  0.00  0.00    +0.000 A 
ATOM      8  C   UNL     1       3.621   4.524  18.056  0.00  0.00    +0.000 A 
ATOM      9  C   UNL     1       4.564   4.203  17.077  0.00  0.00    +0.000 A 
ATOM     10  C   UNL     1       5.157   5.199  16.285  0.00  0.00    +0.000 A 
ATOM     11  C   UNL     1       6.181   4.816  15.253  0.00  0.00    +0.000 C 
ATOM     12  C   UNL     1       4.803   6.554  16.455  0.00  0.00    +0.000 A 
ATOM     13  C   UNL     1       3.828   6.843  17.421  0.00  0.00    +0.000 A 
ATOM     14  N   UNL     1       3.213   8.003  17.826  0.00  0.00    +0.000 N 
ATOM     15  C   UNL     1       0.971   9.738  18.719  0.00  0.00    +0.000 C 
ATOM     16  C   UNL     1      -0.458  10.025  19.193  0.00  0.00    +0.000 C 
ATOM     17  H   UNL     1       3.399   8.933  17.488  0.00  0.00    +0.000 HD
ENDROOT
BRANCH   1  22
ATOM     18  N   UNL     1      -2.259  14.826  21.691  0.00  0.00    +0.000 N 
ATOM     19  C   UNL     1      -0.792  14.864  21.590  0.00  0.00    +0.000 C 
ATOM     20  C   UNL     1      -0.175  13.623  22.272  0.00  0.00    +0.000 C 
ATOM     21  N   UNL     1      -0.791  12.366  21.815  0.00  0.00    +0.000 N 
ATOM     22  C   UNL     1       0.024  11.380  21.295  0.00  0.00    +0.000 C 
ATOM     23  O   UNL     1       1.243  11.534  21.234  0.00  0.00    +0.000 OA
ATOM     24  C   UNL     1      -2.257  12.369  21.917  0.00  0.00    +0.000 C 
ATOM     25  C   UNL     1      -2.872  13.584  21.187  0.00  0.00    +0.000 C 
BRANCH  18  32
ATOM     26  C   UNL     1      -4.310  18.608  19.333  0.00  0.00    +0.000 C 
ATOM     27  C   UNL     1      -4.114  17.852  20.613  0.00  0.00    +0.000 A 
ATOM     28  C   UNL     1      -4.750  18.241  21.785  0.00  0.00    +0.000 A 
ATOM     29  C   UNL     1      -4.525  17.530  22.962  0.00  0.00    +0.000 A 
ATOM     30  C   UNL     1      -3.662  16.412  22.999  0.00  0.00    +0.000 A 
ATOM     31  C   UNL     1      -3.407  15.800  24.350  0.00  0.00    +0.000 C 
ATOM     32  C   UNL     1      -3.043  15.965  21.812  0.00  0.00    +0.000 A 
ATOM     33  C   UNL     1      -3.276  16.726  20.643  0.00  0.00    +0.000 A 
ENDBRANCH  18  32
ENDBRANCH   1  22
TORSDOF 2
ENDMDL
MODEL 7
REMARK VINA RESULT:      -7.8      2.575      3.542
REMARK  Name = 
REMARK  5 active torsions:
REMARK  status: ('A' for Active; 'I' for Inactive)
REMARK    1  A    between atoms: C_1  and  C_2
REMARK    2  A    between atoms: C_5  and  C_6
REMARK    3  A    between atoms: C_7  and  N_8
REMARK    4  A    between atoms: C_12  and  C_14
REMARK    5  A    between atoms: C_23  and  C_24
REMARK                            x       y       z     vdW  Elec       q    Type
REMARK                         _______ _______ _______ _____ _____    ______ ____
ROOT
ATOM      1  C   UNL     1      -0.518  10.153  20.158  0.00  0.00    +0.000 C 
ATOM      2  C   UNL     1       0.043   8.938  20.899  0.00  0.00    +0.000 C 
ATOM      3  C   UNL     1       1.481   8.620  20.516  0.00  0.00    +0.000 C 
ATOM      4  N   UNL     1       1.661   8.561  19.070  0.00  0.00    +0.000 N 
ATOM      5  C   UNL     1       2.460   7.583  18.585  0.00  0.00    +0.000 A 
ATOM      6  N   UNL     1       2.525   6.348  19.011  0.00  0.00    +0.000 NA
ATOM      7  C   UNL     1       3.428   5.719  18.202  0.00  0.00    +0.000 A 
ATOM      8  C   UNL     1       3.804   4.372  18.187  0.00  0.00    +0.000 A 
ATOM      9  C   UNL     1       4.767   3.955  17.265  0.00  0.00    +0.000 A 
ATOM     10  C   UNL     1       5.363   4.864  16.377  0.00  0.00    +0.000 A 
ATOM     11  C   UNL     1       6.408   4.381  15.410  0.00  0.00    +0.000 C 
ATOM     12  C   UNL     1       4.993   6.225  16.390  0.00  0.00    +0.000 A 
ATOM     13  C   UNL     1       4.000   6.608  17.302  0.00  0.00    +0.000 A 
ATOM     14  N   UNL     1       3.368   7.799  17.567  0.00  0.00    +0.000 N 
ATOM     15  C   UNL     1       1.094   9.597  18.226  0.00  0.00    +0.000 C 
ATOM     16  C   UNL     1      -0.346   9.918  18.643  0.00  0.00    +0.000 C 
ATOM     17  H   UNL     1       3.550   8.688  17.130  0.00  0.00    +0.000 HD
ENDROOT
BRANCH   1  22
ATOM     18  N   UNL     1      -2.161  14.196  22.809  0.00  0.00    +0.000 N 
ATOM     19  C   UNL     1      -1.015  14.620  21.990  0.00  0.00    +0.000 C 
ATOM     20  C   UNL     1       0.074  13.523  21.983  0.00  0.00    +0.000 C 
ATOM     21  N   UNL     1      -0.468  12.196  21.646  0.00  0.00    +0.000 N 
ATOM     22  C   UNL     1       0.088  11.503  20.588  0.00  0.00    +0.000 C 
ATOM     23  O   UNL     1       1.033  11.970  19.953  0.00  0.00    +0.000 OA
ATOM     24  C   UNL     1      -1.620  11.813  22.473  0.00  0.00    +0.000 C 
ATOM     25  C   UNL     1      -2.728  12.889  22.434  0.00  0.00    +0.000 C 
BRANCH  18  32
ATOM     26  C   UNL     1      -2.134  18.075  25.814  0.00  0.00    +0.000 C 
ATOM     27  C   UNL     1      -2.922  17.066  25.034  0.00  0.00    +0.000 A 
ATOM     28  C   UNL     1      -4.311  17.096  25.010  0.00  0.00    +0.000 A 
ATOM     29  C   UNL     1      -5.011  16.127  24.296  0.00  0.00    +0.000 A 
ATOM     30  C   UNL     1      -4.345  15.104  23.584  0.00  0.00    +0.000 A 
ATOM     31  C   UNL     1      -5.210  14.048  22.950  0.00  0.00    +0.000 C 
ATOM     32  C   UNL     1      -2.935  15.080  23.550  0.00  0.00    +0.000 A 
ATOM     33  C   UNL     1      -2.258  16.065  24.307  0.00  0.00    +0.000 A 
ENDBRANCH  18  32
ENDBRANCH   1  22
TORSDOF 2
ENDMDL
MODEL 8
REMARK VINA RESULT:      -7.8      1.511      2.900
REMARK  Name = 
REMARK  5 active torsions:
REMARK  status: ('A' for Active; 'I' for Inactive)
REMARK    1  A    between atoms: C_1  and  C_2
REMARK    2  A    between atoms: C_5  and  C_6
REMARK    3  A    between atoms: C_7  and  N_8
REMARK    4  A    between atoms: C_12  and  C_14
REMARK    5  A    between atoms: C_23  and  C_24
REMARK                            x       y       z     vdW  Elec       q    Type
REMARK                         _______ _______ _______ _____ _____    ______ ____
ROOT
ATOM      1  C   UNL     1      -0.456  10.379  20.203  0.00  0.00    +0.000 C 
ATOM      2  C   UNL     1      -0.057   9.068  20.882  0.00  0.00    +0.000 C 
ATOM      3  C   UNL     1       1.369   8.642  20.564  0.00  0.00    +0.000 C 
ATOM      4  N   UNL     1       1.639   8.668  19.131  0.00  0.00    +0.000 N 
ATOM      5  C   UNL     1       2.378   7.656  18.621  0.00  0.00    +0.000 A 
ATOM      6  N   UNL     1       2.303   6.394  18.955  0.00  0.00    +0.000 NA
ATOM      7  C   UNL     1       3.197   5.740  18.156  0.00  0.00    +0.000 A 
ATOM      8  C   UNL     1       3.452   4.368  18.061  0.00  0.00    +0.000 A 
ATOM      9  C   UNL     1       4.433   3.929  17.170  0.00  0.00    +0.000 A 
ATOM     10  C   UNL     1       5.166   4.837  16.391  0.00  0.00    +0.000 A 
ATOM     11  C   UNL     1       6.226   4.326  15.454  0.00  0.00    +0.000 C 
ATOM     12  C   UNL     1       4.920   6.223  16.486  0.00  0.00    +0.000 A 
ATOM     13  C   UNL     1       3.906   6.633  17.363  0.00  0.00    +0.000 A 
ATOM     14  N   UNL     1       3.367   7.857  17.679  0.00  0.00    +0.000 N 
ATOM     15  C   UNL     1       1.225   9.810  18.336  0.00  0.00    +0.000 C 
ATOM     16  C   UNL     1      -0.204  10.236  18.688  0.00  0.00    +0.000 C 
ATOM     17  H   UNL     1       3.657   8.753  17.323  0.00  0.00    +0.000 HD
ENDROOT
BRANCH   1  22
ATOM     18  N   UNL     1      -1.980  15.014  21.708  0.00  0.00    +0.000 N 
ATOM     19  C   UNL     1      -0.540  15.078  21.416  0.00  0.00    +0.000 C 
ATOM     20  C   UNL     1       0.166  13.799  21.922  0.00  0.00    +0.000 C 
ATOM     21  N   UNL     1      -0.502  12.570  21.463  0.00  0.00    +0.000 N 
ATOM     22  C   UNL     1       0.238  11.632  20.771  0.00  0.00    +0.000 C 
ATOM     23  O   UNL     1       1.439  11.804  20.560  0.00  0.00    +0.000 OA
ATOM     24  C   UNL     1      -1.942  12.548  21.759  0.00  0.00    +0.000 C 
ATOM     25  C   UNL     1      -2.652  13.803  21.204  0.00  0.00    +0.000 C 
BRANCH  18  32
ATOM     26  C   UNL     1      -4.738  17.246  25.098  0.00  0.00    +0.000 C 
ATOM     27  C   UNL     1      -4.102  17.280  23.740  0.00  0.00    +0.000 A 
ATOM     28  C   UNL     1      -4.221  18.391  22.916  0.00  0.00    +0.000 A 
ATOM     29  C   UNL     1      -3.640  18.377  21.650  0.00  0.00    +0.000 A 
ATOM     30  C   UNL     1      -2.923  17.255  21.175  0.00  0.00    +0.000 A 
ATOM     31  C   UNL     1      -2.444  17.313  19.749  0.00  0.00    +0.000 C 
ATOM     32  C   UNL     1      -2.745  16.133  22.012  0.00  0.00    +0.000 A 
ATOM     33  C   UNL     1      -3.370  16.174  23.280  0.00  0.00    +0.000 A 
ENDBRANCH  18  32
ENDBRANCH   1  22
TORSDOF 2
ENDMDL
MODEL 9
REMARK VINA RESULT:      -7.7      2.591     11.194
REMARK  Name = 
REMARK  5 active torsions:
REMARK  status: ('A' for Active; 'I' for Inactive)
REMARK    1  A    between atoms: C_1  and  C_2
REMARK    2  A    between atoms: C_5  and  C_6
REMARK    3  A    between atoms: C_7  and  N_8
REMARK    4  A    between atoms: C_12  and  C_14
REMARK    5  A    between atoms: C_23  and  C_24
REMARK                            x       y       z     vdW  Elec       q    Type
REMARK                         _______ _______ _______ _____ _____    ______ ____
ROOT
ATOM      1  C   UNL     1       1.029  11.563  20.960  0.00  0.00    +0.000 C 
ATOM      2  C   UNL     1      -0.156  11.007  21.751  0.00  0.00    +0.000 C 
ATOM      3  C   UNL     1      -1.489  11.607  21.328  0.00  0.00    +0.000 C 
ATOM      4  N   UNL     1      -1.442  13.064  21.284  0.00  0.00    +0.000 N 
ATOM      5  C   UNL     1      -2.523  13.733  21.746  0.00  0.00    +0.000 A 
ATOM      6  N   UNL     1      -3.240  13.422  22.796  0.00  0.00    +0.000 NA
ATOM      7  C   UNL     1      -4.192  14.395  22.902  0.00  0.00    +0.000 A 
ATOM      8  C   UNL     1      -5.161  14.572  23.896  0.00  0.00    +0.000 A 
ATOM      9  C   UNL     1      -6.045  15.648  23.786  0.00  0.00    +0.000 A 
ATOM     10  C   UNL     1      -5.981  16.531  22.697  0.00  0.00    +0.000 A 
ATOM     11  C   UNL     1      -6.961  17.669  22.606  0.00  0.00    +0.000 C 
ATOM     12  C   UNL     1      -5.012  16.357  21.688  0.00  0.00    +0.000 A 
ATOM     13  C   UNL     1      -4.116  15.289  21.842  0.00  0.00    +0.000 A 
ATOM     14  N   UNL     1      -3.041  14.844  21.111  0.00  0.00    +0.000 N 
ATOM     15  C   UNL     1      -0.321  13.735  20.650  0.00  0.00    +0.000 C 
ATOM     16  C   UNL     1       1.009  13.101  21.073  0.00  0.00    +0.000 C 
ATOM     17  H   UNL     1      -2.702  15.227  20.243  0.00  0.00    +0.000 HD
ENDROOT
BRANCH   1  22
ATOM     18  N   UNL     1       2.294   7.255  18.526  0.00  0.00    +0.000 N 
ATOM     19  C   UNL     1       2.382   8.366  17.567  0.00  0.00    +0.000 C 
ATOM     20  C   UNL     1       1.211   9.352  17.779  0.00  0.00    +0.000 C 
ATOM     21  N   UNL     1       1.069   9.762  19.186  0.00  0.00    +0.000 N 
ATOM     22  C   UNL     1       1.085  11.109  19.487  0.00  0.00    +0.000 C 
ATOM     23  O   UNL     1       1.192  11.955  18.600  0.00  0.00    +0.000 OA
ATOM     24  C   UNL     1       0.999   8.627  20.116  0.00  0.00    +0.000 C 
ATOM     25  C   UNL     1       2.201   7.673  19.937  0.00  0.00    +0.000 C 
BRANCH  18  32
ATOM     26  C   UNL     1       1.085   2.500  18.604  0.00  0.00    +0.000 C 
ATOM     27  C   UNL     1       2.074   3.563  18.231  0.00  0.00    +0.000 A 
ATOM     28  C   UNL     1       3.255   3.250  17.571  0.00  0.00    +0.000 A 
ATOM     29  C   UNL     1       4.164   4.260  17.263  0.00  0.00    +0.000 A 
ATOM     30  C   UNL     1       3.918   5.608  17.605  0.00  0.00    +0.000 A 
ATOM     31  C   UNL     1       5.025   6.589  17.327  0.00  0.00    +0.000 C 
ATOM     32  C   UNL     1       2.703   5.961  18.231  0.00  0.00    +0.000 A 
ATOM     33  C   UNL     1       1.816   4.906  18.549  0.00  0.00    +0.000 A 
ENDBRANCH  18  32
ENDBRANCH   1  22
TORSDOF 2
ENDMDL
