MODEL 1
REMARK VINA RESULT:      -6.4      0.000      0.000
REMARK  Name = 
REMARK  13 active torsions:
REMARK  status: ('A' for Active; 'I' for Inactive)
REMARK    1  A    between atoms: C_1  and  C_2
REMARK    2  A    between atoms: C_2  and  C_3
REMARK    3  A    between atoms: C_3  and  C_4
REMARK    4  A    between atoms: C_4  and  C_5
REMARK    5  A    between atoms: C_5  and  C_6
REMARK    6  A    between atoms: C_9  and  C_10
REMARK    7  A    between atoms: C_11  and  C_12
REMARK    8  A    between atoms: C_12  and  O_13
REMARK    9  A    between atoms: C_12  and  CA_14
REMARK   10  A    between atoms: CA_14  and  C_15
REMARK   11  A    between atoms: CA_14  and  N_17
REMARK   12  A    between atoms: C_15  and  O_16
REMARK   13  A    between atoms: N_17  and  C_18
REMARK                            x       y       z     vdW  Elec       q    Type
REMARK                         _______ _______ _______ _____ _____    ______ ____
ROOT
ATOM      1  C   UNL     1       6.211   4.366  14.770  0.00  0.00    +0.000 C 
ATOM      2  C   UNL     1       5.643   3.910  13.621  0.00  0.00    +0.000 C 
ENDROOT
BRANCH   1   6
ATOM      3  C   UNL     1       3.882   5.578  18.163  0.00  0.00    +0.000 A 
ATOM      4  C   UNL     1       4.487   6.541  17.358  0.00  0.00    +0.000 A 
ATOM      5  C   UNL     1       5.233   6.155  16.245  0.00  0.00    +0.000 A 
ATOM      6  C   UNL     1       5.396   4.800  15.932  0.00  0.00    +0.000 A 
ATOM      7  C   UNL     1       4.788   3.830  16.744  0.00  0.00    +0.000 A 
ATOM      8  C   UNL     1       4.033   4.215  17.851  0.00  0.00    +0.000 A 
BRANCH   3   9
ATOM      9  C   UNL     1       3.057   5.994  19.355  0.00  0.00    +0.000 C 
BRANCH   9  10
ATOM     10  C   UNL     1       1.766   5.168  19.463  0.00  0.00    +0.000 C 
BRANCH  10  11
ATOM     11  C   UNL     1       1.621   4.496  20.817  0.00  0.00    +0.000 C 
BRANCH  11  13
ATOM     12  C   UNL     1       0.900   2.723  19.222  0.00  0.00    +0.000 C 
ATOM     13  C   UNL     1       1.419   2.994  20.618  0.00  0.00    +0.000 C 
ENDBRANCH  11  13
ENDBRANCH  10  11
ENDBRANCH   9  10
ENDBRANCH   3   9
ENDBRANCH   1   6
BRANCH   2  14
ATOM     14  C   UNL     1       6.468   3.445  12.466  0.00  0.00    +0.000 C 
BRANCH  14  15
ATOM     15  O   UNL     1       7.256   4.517  12.024  0.00  0.00    +0.000 OA
ATOM     16  H   UNL     1       6.643   5.267  11.794  0.00  0.00    +0.000 HD
ENDBRANCH  14  15
BRANCH  14  17
ATOM     17  CA  UNL     1       5.591   2.858  11.331  0.00  0.00    +0.000 C 
BRANCH  17  18
ATOM     18  N   UNL     1       4.151   3.161  11.557  0.00  0.00    +0.000 NA
ATOM     19  C   UNL     1       3.462   3.617  10.348  0.00  0.00    +0.000 C 
ATOM     20  H   UNL     1       4.076   3.950  12.244  0.00  0.00    +0.000 HD
ENDBRANCH  17  18
BRANCH  17  21
ATOM     21  C   UNL     1       5.816   1.330  11.240  0.00  0.00    +0.000 C 
BRANCH  21  22
ATOM     22  O   UNL     1       7.174   1.002  11.351  0.00  0.00    +0.000 OA
ATOM     23  H   UNL     1       7.654   1.566  10.686  0.00  0.00    +0.000 HD
ENDBRANCH  21  22
ENDBRANCH  17  21
ENDBRANCH  14  17
ENDBRANCH   2  14
TORSDOF 11
ENDMDL
MODEL 2
REMARK VINA RESULT:      -6.3      4.191      7.919
REMARK  Name = 
REMARK  13 active torsions:
REMARK  status: ('A' for Active; 'I' for Inactive)
REMARK    1  A    between atoms: C_1  and  C_2
REMARK    2  A    between atoms: C_2  and  C_3
REMARK    3  A    between atoms: C_3  and  C_4
REMARK    4  A    between atoms: C_4  and  C_5
REMARK    5  A    between atoms: C_5  and  C_6
REMARK    6  A    between atoms: C_9  and  C_10
REMARK    7  A    between atoms: C_11  and  C_12
REMARK    8  A    between atoms: C_12  and  O_13
REMARK    9  A    between atoms: C_12  and  CA_14
REMARK   10  A    between atoms: CA_14  and  C_15
REMARK   11  A    between atoms: CA_14  and  N_17
REMARK   12  A    between atoms: C_15  and  O_16
REMARK   13  A    between atoms: N_17  and  C_18
REMARK                            x       y       z     vdW  Elec       q    Type
REMARK                         _______ _______ _______ _____ _____    ______ ____
ROOT
ATOM      1  C   UNL     1       3.621   5.186  18.973  0.00  0.00    +0.000 C 
ATOM      2  C   UNL     1       2.275   4.991  19.025  0.00  0.00    +0.000 C 
ENDROOT
BRANCH   1   6
ATOM      3  C   UNL     1       5.837   5.067  15.301  0.00  0.00    +0.000 A 
ATOM      4  C   UNL     1       5.435   3.878  15.907  0.00  0.00    +0.000 A 
ATOM      5  C   UNL     1       4.701   3.909  17.092  0.00  0.00    +0.000 A 
ATOM      6  C   UNL     1       4.374   5.131  17.695  0.00  0.00    +0.000 A 
ATOM      7  C   UNL     1       4.782   6.328  17.086  0.00  0.00    +0.000 A 
ATOM      8  C   UNL     1       5.506   6.298  15.896  0.00  0.00    +0.000 A 
BRANCH   3   9
ATOM      9  C   UNL     1       6.612   5.036  14.008  0.00  0.00    +0.000 C 
BRANCH   9  10
ATOM     10  C   UNL     1       6.643   3.624  13.402  0.00  0.00    +0.000 C 
BRANCH  10  11
ATOM     11  C   UNL     1       6.315   3.624  11.920  0.00  0.00    +0.000 C 
BRANCH  11  13
ATOM     12  C   UNL     1       3.983   3.228  11.138  0.00  0.00    +0.000 C 
ATOM     13  C   UNL     1       5.249   2.566  11.637  0.00  0.00    +0.000 C 
ENDBRANCH  11  13
ENDBRANCH  10  11
ENDBRANCH   9  10
ENDBRANCH   3   9
ENDBRANCH   1   6
BRANCH   2  14
ATOM     14  C   UNL     1       1.518   5.078  20.309  0.00  0.00    +0.000 C 
BRANCH  14  15
ATOM     15  O   UNL     1       2.265   5.846  21.214  0.00  0.00    +0.000 OA
ATOM     16  H   UNL     1       2.036   5.538  22.132  0.00  0.00    +0.000 HD
ENDBRANCH  14  15
BRANCH  14  17
ATOM     17  CA  UNL     1       1.179   3.676  20.875  0.00  0.00    +0.000 C 
BRANCH  17  18
ATOM     18  N   UNL     1       2.154   3.274  21.926  0.00  0.00    +0.000 NA
ATOM     19  C   UNL     1       3.147   2.308  21.452  0.00  0.00    +0.000 C 
ATOM     20  H   UNL     1       1.635   2.795  22.702  0.00  0.00    +0.000 HD
ENDBRANCH  17  18
BRANCH  17  21
ATOM     21  C   UNL     1       1.167   2.642  19.723  0.00  0.00    +0.000 C 
BRANCH  21  22
ATOM     22  O   UNL     1      -0.127   2.445  19.222  0.00  0.00    +0.000 OA
ATOM     23  H   UNL     1      -0.752   2.759  19.930  0.00  0.00    +0.000 HD
ENDBRANCH  21  22
ENDBRANCH  17  21
ENDBRANCH  14  17
ENDBRANCH   2  14
TORSDOF 11
ENDMDL
MODEL 3
REMARK VINA RESULT:      -6.2      4.521      6.192
REMARK  Name = 
REMARK  13 active torsions:
REMARK  status: ('A' for Active; 'I' for Inactive)
REMARK    1  A    between atoms: C_1  and  C_2
REMARK    2  A    between atoms: C_2  and  C_3
REMARK    3  A    between atoms: C_3  and  C_4
REMARK    4  A    between atoms: C_4  and  C_5
REMARK    5  A    between atoms: C_5  and  C_6
REMARK    6  A    between atoms: C_9  and  C_10
REMARK    7  A    between atoms: C_11  and  C_12
REMARK    8  A    between atoms: C_12  and  O_13
REMARK    9  A    between atoms: C_12  and  CA_14
REMARK   10  A    between atoms: CA_14  and  C_15
REMARK   11  A    between atoms: CA_14  and  N_17
REMARK   12  A    between atoms: C_15  and  O_16
REMARK   13  A    between atoms: N_17  and  C_18
REMARK                            x       y       z     vdW  Elec       q    Type
REMARK                         _______ _______ _______ _____ _____    ______ ____
ROOT
ATOM      1  C   UNL     1       3.639   6.391  17.778  0.00  0.00    +0.000 C 
ATOM      2  C   UNL     1       4.253   5.336  18.381  0.00  0.00    +0.000 C 
ENDROOT
BRANCH   1   6
ATOM      3  C   UNL     1       1.053   9.019  19.973  0.00  0.00    +0.000 A 
ATOM      4  C   UNL     1       1.411   9.333  18.663  0.00  0.00    +0.000 A 
ATOM      5  C   UNL     1       2.239   8.476  17.939  0.00  0.00    +0.000 A 
ATOM      6  C   UNL     1       2.731   7.302  18.521  0.00  0.00    +0.000 A 
ATOM      7  C   UNL     1       2.373   6.986  19.841  0.00  0.00    +0.000 A 
ATOM      8  C   UNL     1       1.538   7.837  20.563  0.00  0.00    +0.000 A 
BRANCH   3   9
ATOM      9  C   UNL     1       0.142   9.934  20.752  0.00  0.00    +0.000 C 
BRANCH   9  10
ATOM     10  C   UNL     1       0.023   9.495  22.219  0.00  0.00    +0.000 C 
BRANCH  10  11
ATOM     11  C   UNL     1      -0.855  10.429  23.033  0.00  0.00    +0.000 C 
BRANCH  11  13
ATOM     12  C   UNL     1      -1.281  12.884  23.077  0.00  0.00    +0.000 C 
ATOM     13  C   UNL     1      -1.203  11.658  22.192  0.00  0.00    +0.000 C 
ENDBRANCH  11  13
ENDBRANCH  10  11
ENDBRANCH   9  10
ENDBRANCH   3   9
ENDBRANCH   1   6
BRANCH   2  14
ATOM     14  C   UNL     1       5.189   4.442  17.637  0.00  0.00    +0.000 C 
BRANCH  14  15
ATOM     15  O   UNL     1       5.623   3.432  18.507  0.00  0.00    +0.000 OA
ATOM     16  H   UNL     1       4.835   2.864  18.727  0.00  0.00    +0.000 HD
ENDBRANCH  14  15
BRANCH  14  17
ATOM     17  CA  UNL     1       6.373   5.231  17.023  0.00  0.00    +0.000 C 
BRANCH  17  18
ATOM     18  N   UNL     1       6.740   4.689  15.686  0.00  0.00    +0.000 NA
ATOM     19  C   UNL     1       5.586   4.503  14.804  0.00  0.00    +0.000 C 
ATOM     20  H   UNL     1       7.161   3.737  15.812  0.00  0.00    +0.000 HD
ENDBRANCH  17  18
BRANCH  17  21
ATOM     21  C   UNL     1       7.586   5.175  17.982  0.00  0.00    +0.000 C 
BRANCH  21  22
ATOM     22  O   UNL     1       8.355   4.022  17.773  0.00  0.00    +0.000 OA
ATOM     23  H   UNL     1       8.097   3.672  16.878  0.00  0.00    +0.000 HD
ENDBRANCH  21  22
ENDBRANCH  17  21
ENDBRANCH  14  17
ENDBRANCH   2  14
TORSDOF 11
ENDMDL
MODEL 4
REMARK VINA RESULT:      -6.2      4.519      6.231
REMARK  Name = 
REMARK  13 active torsions:
REMARK  status: ('A' for Active; 'I' for Inactive)
REMARK    1  A    between atoms: C_1  and  C_2
REMARK    2  A    between atoms: C_2  and  C_3
REMARK    3  A    between atoms: C_3  and  C_4
REMARK    4  A    between atoms: C_4  and  C_5
REMARK    5  A    between atoms: C_5  and  C_6
REMARK    6  A    between atoms: C_9  and  C_10
REMARK    7  A    between atoms: C_11  and  C_12
REMARK    8  A    between atoms: C_12  and  O_13
REMARK    9  A    between atoms: C_12  and  CA_14
REMARK   10  A    between atoms: CA_14  and  C_15
REMARK   11  A    between atoms: CA_14  and  N_17
REMARK   12  A    between atoms: C_15  and  O_16
REMARK   13  A    between atoms: N_17  and  C_18
REMARK                            x       y       z     vdW  Elec       q    Type
REMARK                         _______ _______ _______ _____ _____    ______ ____
ROOT
ATOM      1  C   UNL     1       3.572   6.212  18.791  0.00  0.00    +0.000 C 
ATOM      2  C   UNL     1       3.630   5.466  17.653  0.00  0.00    +0.000 C 
ENDROOT
BRANCH   1   6
ATOM      3  C   UNL     1       0.884   9.538  19.132  0.00  0.00    +0.000 A 
ATOM      4  C   UNL     1       1.085   8.695  20.222  0.00  0.00    +0.000 A 
ATOM      5  C   UNL     1       1.969   7.621  20.124  0.00  0.00    +0.000 A 
ATOM      6  C   UNL     1       2.651   7.368  18.927  0.00  0.00    +0.000 A 
ATOM      7  C   UNL     1       2.447   8.216  17.827  0.00  0.00    +0.000 A 
ATOM      8  C   UNL     1       1.571   9.295  17.928  0.00  0.00    +0.000 A 
BRANCH   3   9
ATOM      9  C   UNL     1      -0.055  10.712  19.242  0.00  0.00    +0.000 C 
BRANCH   9  10
ATOM     10  C   UNL     1      -1.471  10.349  18.767  0.00  0.00    +0.000 C 
BRANCH  10  11
ATOM     11  C   UNL     1      -1.812  10.982  17.430  0.00  0.00    +0.000 C 
BRANCH  11  13
ATOM     12  C   UNL     1      -2.959  10.588  15.254  0.00  0.00    +0.000 C 
ATOM     13  C   UNL     1      -2.453   9.933  16.521  0.00  0.00    +0.000 C 
ENDBRANCH  11  13
ENDBRANCH  10  11
ENDBRANCH   9  10
ENDBRANCH   3   9
ENDBRANCH   1   6
BRANCH   2  14
ATOM     14  C   UNL     1       4.535   4.285  17.533  0.00  0.00    +0.000 C 
BRANCH  14  15
ATOM     15  O   UNL     1       4.853   3.836  18.822  0.00  0.00    +0.000 OA
ATOM     16  H   UNL     1       5.326   4.575  19.292  0.00  0.00    +0.000 HD
ENDBRANCH  14  15
BRANCH  14  17
ATOM     17  CA  UNL     1       5.802   4.613  16.701  0.00  0.00    +0.000 C 
BRANCH  17  18
ATOM     18  N   UNL     1       6.124   3.505  15.760  0.00  0.00    +0.000 NA
ATOM     19  C   UNL     1       6.191   3.938  14.363  0.00  0.00    +0.000 C 
ATOM     20  H   UNL     1       5.356   2.792  15.803  0.00  0.00    +0.000 HD
ENDBRANCH  17  18
BRANCH  17  21
ATOM     21  C   UNL     1       6.992   4.879  17.654  0.00  0.00    +0.000 C 
BRANCH  21  22
ATOM     22  O   UNL     1       8.101   4.087  17.327  0.00  0.00    +0.000 OA
ATOM     23  H   UNL     1       8.547   4.534  16.557  0.00  0.00    +0.000 HD
ENDBRANCH  21  22
ENDBRANCH  17  21
ENDBRANCH  14  17
ENDBRANCH   2  14
TORSDOF 11
ENDMDL
MODEL 5
REMARK VINA RESULT:      -6.2      4.521      6.388
REMARK  Name = 
REMARK  13 active torsions:
REMARK  status: ('A' for Active; 'I' for Inactive)
REMARK    1  A    between atoms: C_1  and  C_2
REMARK    2  A    between atoms: C_2  and  C_3
REMARK    3  A    between atoms: C_3  and  C_4
REMARK    4  A    between atoms: C_4  and  C_5
REMARK    5  A    between atoms: C_5  and  C_6
REMARK    6  A    between atoms: C_9  and  C_10
REMARK    7  A    between atoms: C_11  and  C_12
REMARK    8  A    between atoms: C_12  and  O_13
REMARK    9  A    between atoms: C_12  and  CA_14
REMARK   10  A    between atoms: CA_14  and  C_15
REMARK   11  A    between atoms: CA_14  and  N_17
REMARK   12  A    between atoms: C_15  and  O_16
REMARK   13  A    between atoms: N_17  and  C_18
REMARK                            x       y       z     vdW  Elec       q    Type
REMARK                         _______ _______ _______ _____ _____    ______ ____
ROOT
ATOM      1  C   UNL     1       3.594   5.806  17.974  0.00  0.00    +0.000 C 
ATOM      2  C   UNL     1       4.784   5.474  18.546  0.00  0.00    +0.000 C 
ENDROOT
BRANCH   1   6
ATOM      3  C   UNL     1       1.369   9.227  19.297  0.00  0.00    +0.000 A 
ATOM      4  C   UNL     1       1.910   9.206  18.013  0.00  0.00    +0.000 A 
ATOM      5  C   UNL     1       2.621   8.091  17.570  0.00  0.00    +0.000 A 
ATOM      6  C   UNL     1       2.814   6.990  18.414  0.00  0.00    +0.000 A 
ATOM      7  C   UNL     1       2.272   7.012  19.708  0.00  0.00    +0.000 A 
ATOM      8  C   UNL     1       1.552   8.121  20.147  0.00  0.00    +0.000 A 
BRANCH   3   9
ATOM      9  C   UNL     1       0.582  10.423  19.770  0.00  0.00    +0.000 C 
BRANCH   9  10
ATOM     10  C   UNL     1      -0.919  10.258  19.486  0.00  0.00    +0.000 C 
BRANCH  10  11
ATOM     11  C   UNL     1      -1.284  10.643  18.064  0.00  0.00    +0.000 C 
BRANCH  11  13
ATOM     12  C   UNL     1      -2.801   9.864  16.248  0.00  0.00    +0.000 C 
ATOM     13  C   UNL     1      -2.678  10.110  17.736  0.00  0.00    +0.000 C 
ENDBRANCH  11  13
ENDBRANCH  10  11
ENDBRANCH   9  10
ENDBRANCH   3   9
ENDBRANCH   1   6
BRANCH   2  14
ATOM     14  C   UNL     1       5.581   4.301  18.079  0.00  0.00    +0.000 C 
BRANCH  14  15
ATOM     15  O   UNL     1       5.575   3.329  19.090  0.00  0.00    +0.000 OA
ATOM     16  H   UNL     1       6.438   3.398  19.580  0.00  0.00    +0.000 HD
ENDBRANCH  14  15
BRANCH  14  17
ATOM     17  CA  UNL     1       7.020   4.707  17.670  0.00  0.00    +0.000 C 
BRANCH  17  18
ATOM     18  N   UNL     1       7.792   5.193  18.846  0.00  0.00    +0.000 NA
ATOM     19  C   UNL     1       8.097   6.624  18.784  0.00  0.00    +0.000 C 
ATOM     20  H   UNL     1       8.720   4.703  18.866  0.00  0.00    +0.000 HD
ENDBRANCH  17  18
BRANCH  17  21
ATOM     21  C   UNL     1       6.957   5.798  16.574  0.00  0.00    +0.000 C 
BRANCH  21  22
ATOM     22  O   UNL     1       7.591   5.380  15.396  0.00  0.00    +0.000 OA
ATOM     23  H   UNL     1       7.588   4.385  15.413  0.00  0.00    +0.000 HD
ENDBRANCH  21  22
ENDBRANCH  17  21
ENDBRANCH  14  17
ENDBRANCH   2  14
TORSDOF 11
ENDMDL
MODEL 6
REMARK VINA RESULT:      -6.1      0.595      1.301
REMARK  Name = 
REMARK  13 active torsions:
REMARK  status: ('A' for Active; 'I' for Inactive)
REMARK    1  A    between atoms: C_1  and  C_2
REMARK    2  A    between atoms: C_2  and  C_3
REMARK    3  A    between atoms: C_3  and  C_4
REMARK    4  A    between atoms: C_4  and  C_5
REMARK    5  A    between atoms: C_5  and  C_6
REMARK    6  A    between atoms: C_9  and  C_10
REMARK    7  A    between atoms: C_11  and  C_12
REMARK    8  A    between atoms: C_12  and  O_13
REMARK    9  A    between atoms: C_12  and  CA_14
REMARK   10  A    between atoms: CA_14  and  C_15
REMARK   11  A    between atoms: CA_14  and  N_17
REMARK   12  A    between atoms: C_15  and  O_16
REMARK   13  A    between atoms: N_17  and  C_18
REMARK                            x       y       z     vdW  Elec       q    Type
REMARK                         _______ _______ _______ _____ _____    ______ ____
ROOT
ATOM      1  C   UNL     1       6.042   4.637  14.923  0.00  0.00    +0.000 C 
ATOM      2  C   UNL     1       5.572   3.975  13.830  0.00  0.00    +0.000 C 
ENDROOT
BRANCH   1   6
ATOM      3  C   UNL     1       3.460   5.824  18.137  0.00  0.00    +0.000 A 
ATOM      4  C   UNL     1       3.429   4.511  17.672  0.00  0.00    +0.000 A 
ATOM      5  C   UNL     1       4.277   4.114  16.638  0.00  0.00    +0.000 A 
ATOM      6  C   UNL     1       5.154   5.031  16.046  0.00  0.00    +0.000 A 
ATOM      7  C   UNL     1       5.183   6.354  16.512  0.00  0.00    +0.000 A 
ATOM      8  C   UNL     1       4.345   6.749  17.552  0.00  0.00    +0.000 A 
BRANCH   3   9
ATOM      9  C   UNL     1       2.560   6.251  19.269  0.00  0.00    +0.000 C 
BRANCH   9  10
ATOM     10  C   UNL     1       2.476   5.172  20.360  0.00  0.00    +0.000 C 
BRANCH  10  11
ATOM     11  C   UNL     1       1.095   4.546  20.448  0.00  0.00    +0.000 C 
BRANCH  11  13
ATOM     12  C   UNL     1       2.662   2.684  20.984  0.00  0.00    +0.000 C 
ATOM     13  C   UNL     1       1.235   3.033  20.619  0.00  0.00    +0.000 C 
ENDBRANCH  11  13
ENDBRANCH  10  11
ENDBRANCH   9  10
ENDBRANCH   3   9
ENDBRANCH   1   6
BRANCH   2  14
ATOM     14  C   UNL     1       6.474   3.553  12.718  0.00  0.00    +0.000 C 
BRANCH  14  15
ATOM     15  O   UNL     1       7.251   4.656  12.334  0.00  0.00    +0.000 OA
ATOM     16  H   UNL     1       6.855   5.465  12.757  0.00  0.00    +0.000 HD
ENDBRANCH  14  15
BRANCH  14  17
ATOM     17  CA  UNL     1       5.681   2.955  11.528  0.00  0.00    +0.000 C 
BRANCH  17  18
ATOM     18  N   UNL     1       4.229   3.261  11.646  0.00  0.00    +0.000 NA
ATOM     19  C   UNL     1       3.617   3.650  10.373  0.00  0.00    +0.000 C 
ATOM     20  H   UNL     1       4.109   4.085  12.285  0.00  0.00    +0.000 HD
ENDBRANCH  17  18
BRANCH  17  21
ATOM     21  C   UNL     1       5.911   1.426  11.468  0.00  0.00    +0.000 C 
BRANCH  21  22
ATOM     22  O   UNL     1       6.838   1.083  10.475  0.00  0.00    +0.000 OA
ATOM     23  H   UNL     1       7.734   1.104  10.909  0.00  0.00    +0.000 HD
ENDBRANCH  21  22
ENDBRANCH  17  21
ENDBRANCH  14  17
ENDBRANCH   2  14
TORSDOF 11
ENDMDL
MODEL 7
REMARK VINA RESULT:      -6.1      4.905      7.515
REMARK  Name = 
REMARK  13 active torsions:
REMARK  status: ('A' for Active; 'I' for Inactive)
REMARK    1  A    between atoms: C_1  and  C_2
REMARK    2  A    between atoms: C_2  and  C_3
REMARK    3  A    between atoms: C_3  and  C_4
REMARK    4  A    between atoms: C_4  and  C_5
REMARK    5  A    between atoms: C_5  and  C_6
REMARK    6  A    between atoms: C_9  and  C_10
REMARK    7  A    between atoms: C_11  and  C_12
REMARK    8  A    between atoms: C_12  and  O_13
REMARK    9  A    between atoms: C_12  and  CA_14
REMARK   10  A    between atoms: CA_14  and  C_15
REMARK   11  A    between atoms: CA_14  and  N_17
REMARK   12  A    between atoms: C_15  and  O_16
REMARK   13  A    between atoms: N_17  and  C_18
REMARK                            x       y       z     vdW  Elec       q    Type
REMARK                         _______ _______ _______ _____ _____    ______ ____
ROOT
ATOM      1  C   UNL     1       5.291   3.892  19.204  0.00  0.00    +0.000 C 
ATOM      2  C   UNL     1       4.404   3.244  18.400  0.00  0.00    +0.000 C 
ENDROOT
BRANCH   1   6
ATOM      3  C   UNL     1       7.412   7.377  17.876  0.00  0.00    +0.000 A 
ATOM      4  C   UNL     1       7.961   6.568  18.869  0.00  0.00    +0.000 A 
ATOM      5  C   UNL     1       7.285   5.425  19.294  0.00  0.00    +0.000 A 
ATOM      6  C   UNL     1       6.042   5.087  18.743  0.00  0.00    +0.000 A 
ATOM      7  C   UNL     1       5.488   5.903  17.745  0.00  0.00    +0.000 A 
ATOM      8  C   UNL     1       6.168   7.039  17.311  0.00  0.00    +0.000 A 
BRANCH   3   9
ATOM      9  C   UNL     1       8.151   8.602  17.399  0.00  0.00    +0.000 C 
BRANCH   9  10
ATOM     10  C   UNL     1       8.776   9.375  18.571  0.00  0.00    +0.000 C 
BRANCH  10  11
ATOM     11  C   UNL     1       9.126  10.805  18.199  0.00  0.00    +0.000 C 
BRANCH  11  13
ATOM     12  C   UNL     1       9.977  11.599  20.402  0.00  0.00    +0.000 C 
ATOM     13  C   UNL     1      10.363  11.244  18.982  0.00  0.00    +0.000 C 
ENDBRANCH  11  13
ENDBRANCH  10  11
ENDBRANCH   9  10
ENDBRANCH   3   9
ENDBRANCH   1   6
BRANCH   2  14
ATOM     14  C   UNL     1       3.628   2.062  18.878  0.00  0.00    +0.000 C 
BRANCH  14  15
ATOM     15  O   UNL     1       4.186   0.906  18.314  0.00  0.00    +0.000 OA
ATOM     16  H   UNL     1       4.247   0.219  19.031  0.00  0.00    +0.000 HD
ENDBRANCH  14  15
BRANCH  14  17
ATOM     17  CA  UNL     1       2.117   2.196  18.557  0.00  0.00    +0.000 C 
BRANCH  17  18
ATOM     18  N   UNL     1       1.900   3.058  17.363  0.00  0.00    +0.000 NA
ATOM     19  C   UNL     1       1.400   4.393  17.700  0.00  0.00    +0.000 C 
ATOM     20  H   UNL     1       1.162   2.619  16.760  0.00  0.00    +0.000 HD
ENDBRANCH  17  18
BRANCH  17  21
ATOM     21  C   UNL     1       1.376   2.775  19.786  0.00  0.00    +0.000 C 
BRANCH  21  22
ATOM     22  O   UNL     1       1.934   2.315  20.987  0.00  0.00    +0.000 OA
ATOM     23  H   UNL     1       2.762   1.822  20.740  0.00  0.00    +0.000 HD
ENDBRANCH  21  22
ENDBRANCH  17  21
ENDBRANCH  14  17
ENDBRANCH   2  14
TORSDOF 11
ENDMDL
MODEL 8
REMARK VINA RESULT:      -6.1      4.642      6.575
REMARK  Name = 
REMARK  13 active torsions:
REMARK  status: ('A' for Active; 'I' for Inactive)
REMARK    1  A    between atoms: C_1  and  C_2
REMARK    2  A    between atoms: C_2  and  C_3
REMARK    3  A    between atoms: C_3  and  C_4
REMARK    4  A    between atoms: C_4  and  C_5
REMARK    5  A    between atoms: C_5  and  C_6
REMARK    6  A    between atoms: C_9  and  C_10
REMARK    7  A    between atoms: C_11  and  C_12
REMARK    8  A    between atoms: C_12  and  O_13
REMARK    9  A    between atoms: C_12  and  CA_14
REMARK   10  A    between atoms: CA_14  and  C_15
REMARK   11  A    between atoms: CA_14  and  N_17
REMARK   12  A    between atoms: C_15  and  O_16
REMARK   13  A    between atoms: N_17  and  C_18
REMARK                            x       y       z     vdW  Elec       q    Type
REMARK                         _______ _______ _______ _____ _____    ______ ____
ROOT
ATOM      1  C   UNL     1       3.462   5.817  18.145  0.00  0.00    +0.000 C 
ATOM      2  C   UNL     1       4.687   5.511  18.656  0.00  0.00    +0.000 C 
ENDROOT
BRANCH   1   6
ATOM      3  C   UNL     1       1.309   9.360  19.249  0.00  0.00    +0.000 A 
ATOM      4  C   UNL     1       1.493   8.342  20.182  0.00  0.00    +0.000 A 
ATOM      5  C   UNL     1       2.206   7.194  19.835  0.00  0.00    +0.000 A 
ATOM      6  C   UNL     1       2.728   7.044  18.545  0.00  0.00    +0.000 A 
ATOM      7  C   UNL     1       2.541   8.068  17.604  0.00  0.00    +0.000 A 
ATOM      8  C   UNL     1       1.838   9.220  17.953  0.00  0.00    +0.000 A 
BRANCH   3   9
ATOM      9  C   UNL     1       0.557  10.611  19.628  0.00  0.00    +0.000 C 
BRANCH   9  10
ATOM     10  C   UNL     1      -0.952  10.458  19.380  0.00  0.00    +0.000 C 
BRANCH  10  11
ATOM     11  C   UNL     1      -1.566  11.706  18.771  0.00  0.00    +0.000 C 
BRANCH  11  13
ATOM     12  C   UNL     1      -1.954   9.900  17.099  0.00  0.00    +0.000 C 
ATOM     13  C   UNL     1      -2.081  11.384  17.369  0.00  0.00    +0.000 C 
ENDBRANCH  11  13
ENDBRANCH  10  11
ENDBRANCH   9  10
ENDBRANCH   3   9
ENDBRANCH   1   6
BRANCH   2  14
ATOM     14  C   UNL     1       5.435   4.293  18.227  0.00  0.00    +0.000 C 
BRANCH  14  15
ATOM     15  O   UNL     1       5.388   3.354  19.268  0.00  0.00    +0.000 OA
ATOM     16  H   UNL     1       5.494   2.450  18.865  0.00  0.00    +0.000 HD
ENDBRANCH  14  15
BRANCH  14  17
ATOM     17  CA  UNL     1       6.890   4.627  17.809  0.00  0.00    +0.000 C 
BRANCH  17  18
ATOM     18  N   UNL     1       7.635   5.263  18.930  0.00  0.00    +0.000 NA
ATOM     19  C   UNL     1       8.015   6.650  18.655  0.00  0.00    +0.000 C 
ATOM     20  H   UNL     1       8.534   4.743  19.075  0.00  0.00    +0.000 HD
ENDBRANCH  17  18
BRANCH  17  21
ATOM     21  C   UNL     1       6.873   5.557  16.572  0.00  0.00    +0.000 C 
BRANCH  21  22
ATOM     22  O   UNL     1       7.602   5.011  15.508  0.00  0.00    +0.000 OA
ATOM     23  H   UNL     1       8.520   5.390  15.573  0.00  0.00    +0.000 HD
ENDBRANCH  21  22
ENDBRANCH  17  21
ENDBRANCH  14  17
ENDBRANCH   2  14
TORSDOF 11
ENDMDL
MODEL 9
REMARK VINA RESULT:      -6.1      4.373      6.053
REMARK  Name = 
REMARK  13 active torsions:
REMARK  status: ('A' for Active; 'I' for Inactive)
REMARK    1  A    between atoms: C_1  and  C_2
REMARK    2  A    between atoms: C_2  and  C_3
REMARK    3  A    between atoms: C_3  and  C_4
REMARK    4  A    between atoms: C_4  and  C_5
REMARK    5  A    between atoms: C_5  and  C_6
REMARK    6  A    between atoms: C_9  and  C_10
REMARK    7  A    between atoms: C_11  and  C_12
REMARK    8  A    between atoms: C_12  and  O_13
REMARK    9  A    between atoms: C_12  and  CA_14
REMARK   10  A    between atoms: CA_14  and  C_15
REMARK   11  A    between atoms: CA_14  and  N_17
REMARK   12  A    between atoms: C_15  and  O_16
REMARK   13  A    between atoms: N_17  and  C_18
REMARK                            x       y       z     vdW  Elec       q    Type
REMARK                         _______ _______ _______ _____ _____    ______ ____
ROOT
ATOM      1  C   UNL     1       3.120   5.821  18.462  0.00  0.00    +0.000 C 
ATOM      2  C   UNL     1       4.320   5.823  17.818  0.00  0.00    +0.000 C 
ENDROOT
BRANCH   1   6
ATOM      3  C   UNL     1       1.106   9.462  19.508  0.00  0.00    +0.000 A 
ATOM      4  C   UNL     1       1.554   9.268  18.203  0.00  0.00    +0.000 A 
ATOM      5  C   UNL     1       2.195   8.081  17.852  0.00  0.00    +0.000 A 
ATOM      6  C   UNL     1       2.411   7.079  18.807  0.00  0.00    +0.000 A 
ATOM      7  C   UNL     1       1.962   7.276  20.122  0.00  0.00    +0.000 A 
ATOM      8  C   UNL     1       1.311   8.457  20.471  0.00  0.00    +0.000 A 
BRANCH   3   9
ATOM      9  C   UNL     1       0.393  10.736  19.885  0.00  0.00    +0.000 C 
BRANCH   9  10
ATOM     10  C   UNL     1      -0.116  11.486  18.644  0.00  0.00    +0.000 C 
BRANCH  10  11
ATOM     11  C   UNL     1      -1.631  11.468  18.540  0.00  0.00    +0.000 C 
BRANCH  11  13
ATOM     12  C   UNL     1      -2.401  10.150  16.571  0.00  0.00    +0.000 C 
ATOM     13  C   UNL     1      -2.089  10.094  18.051  0.00  0.00    +0.000 C 
ENDBRANCH  11  13
ENDBRANCH  10  11
ENDBRANCH   9  10
ENDBRANCH   3   9
ENDBRANCH   1   6
BRANCH   2  14
ATOM     14  C   UNL     1       5.013   4.555  17.446  0.00  0.00    +0.000 C 
BRANCH  14  15
ATOM     15  O   UNL     1       5.317   3.853  18.621  0.00  0.00    +0.000 OA
ATOM     16  H   UNL     1       4.937   4.366  19.385  0.00  0.00    +0.000 HD
ENDBRANCH  14  15
BRANCH  14  17
ATOM     17  CA  UNL     1       6.274   4.820  16.583  0.00  0.00    +0.000 C 
BRANCH  17  18
ATOM     18  N   UNL     1       6.565   3.662  15.694  0.00  0.00    +0.000 NA
ATOM     19  C   UNL     1       6.252   3.922  14.287  0.00  0.00    +0.000 C 
ATOM     20  H   UNL     1       5.956   2.856  15.979  0.00  0.00    +0.000 HD
ENDBRANCH  17  18
BRANCH  17  21
ATOM     21  C   UNL     1       7.481   5.114  17.506  0.00  0.00    +0.000 C 
BRANCH  21  22
ATOM     22  O   UNL     1       8.286   3.979  17.677  0.00  0.00    +0.000 OA
ATOM     23  H   UNL     1       8.166   3.691  18.622  0.00  0.00    +0.000 HD
ENDBRANCH  21  22
ENDBRANCH  17  21
ENDBRANCH  14  17
ENDBRANCH   2  14
TORSDOF 11
ENDMDL
