MODEL 1
REMARK VINA RESULT:      -7.2      0.000      0.000
REMARK  Name = 
REMARK  10 active torsions:
REMARK  status: ('A' for Active; 'I' for Inactive)
REMARK    1  A    between atoms: C_1  and  O_2
REMARK    2  A    between atoms: O_2  and  C_3
REMARK    3  A    between atoms: C_6  and  C_7
REMARK    4  A    between atoms: C_7  and  N_8
REMARK    5  A    between atoms: N_8  and  C_9
REMARK    6  A    between atoms: N_8  and  C_18
REMARK    7  A    between atoms: C_9  and  C_10
REMARK    8  A    between atoms: C_10  and  C_11
REMARK    9  A    between atoms: C_18  and  C_19
REMARK   10  A    between atoms: C_28  and  O_29
REMARK                            x       y       z     vdW  Elec       q    Type
REMARK                         _______ _______ _______ _____ _____    ______ ____
ROOT
ATOM      1  N   UNL     1      -0.602  10.094  21.392  0.00  0.00    +0.000 NA
ENDROOT
BRANCH   1   2
ATOM      2  C   UNL     1      -0.007  10.726  20.185  0.00  0.00    +0.000 C 
BRANCH   2   6
ATOM      3  C   UNL     1      -2.952  10.655  17.017  0.00  0.00    +0.000 A 
ATOM      4  C   UNL     1      -1.793   9.872  16.928  0.00  0.00    +0.000 A 
ATOM      5  C   UNL     1      -0.810   9.921  17.920  0.00  0.00    +0.000 A 
ATOM      6  C   UNL     1      -0.968  10.772  19.018  0.00  0.00    +0.000 A 
ATOM      7  C   UNL     1      -2.074  11.632  19.055  0.00  0.00    +0.000 A 
ATOM      8  C   UNL     1      -3.075  11.547  18.084  0.00  0.00    +0.000 A 
BRANCH   3  10
ATOM      9  C   UNL     1      -3.341  10.358  14.681  0.00  0.00    +0.000 C 
ATOM     10  O   UNL     1      -3.844  10.408  16.009  0.00  0.00    +0.000 OA
ENDBRANCH   3  10
BRANCH   8  11
ATOM     11  O   UNL     1      -4.180  12.337  18.245  0.00  0.00    +0.000 OA
ATOM     12  H   UNL     1      -3.909  13.148  18.705  0.00  0.00    +0.000 HD
ENDBRANCH   8  11
ENDBRANCH   2   6
ENDBRANCH   1   2
BRANCH   1  13
ATOM     13  C   UNL     1      -0.105   8.700  21.573  0.00  0.00    +0.000 C 
BRANCH  13  14
ATOM     14  C   UNL     1       1.376   8.547  21.171  0.00  0.00    +0.000 C 
BRANCH  14  15
ATOM     15  C   UNL     1       1.758   7.486  20.165  0.00  0.00    +0.000 A 
ATOM     16  C   UNL     1       2.288   7.762  18.900  0.00  0.00    +0.000 A 
ATOM     17  C   UNL     1       2.764   6.724  18.092  0.00  0.00    +0.000 A 
ATOM     18  C   UNL     1       2.723   5.406  18.545  0.00  0.00    +0.000 A 
ATOM     19 BR   UNL     1       3.426   4.015  17.477  0.00  0.00    +0.000 Br
ATOM     20  C   UNL     1       2.200   5.111  19.797  0.00  0.00    +0.000 A 
ATOM     21  C   UNL     1       1.721   6.148  20.601  0.00  0.00    +0.000 A 
ENDBRANCH  14  15
ENDBRANCH  13  14
ENDBRANCH   1  13
BRANCH   1  22
ATOM     22  C   UNL     1      -0.317  10.918  22.587  0.00  0.00    +0.000 C 
BRANCH  22  23
ATOM     23  C   UNL     1      -1.307  12.047  22.802  0.00  0.00    +0.000 A 
ATOM     24  C   UNL     1      -2.558  11.745  23.378  0.00  0.00    +0.000 A 
ATOM     25  C   UNL     1      -3.501  12.746  23.607  0.00  0.00    +0.000 A 
ATOM     26  C   UNL     1      -3.202  14.062  23.268  0.00  0.00    +0.000 A 
ATOM     27 CL   UNL     1      -4.370  15.297  23.523  0.00  0.00    +0.000 Cl
ATOM     28  C   UNL     1      -1.962  14.386  22.723  0.00  0.00    +0.000 A 
ATOM     29  C   UNL     1      -1.015  13.384  22.499  0.00  0.00    +0.000 A 
ATOM     30 CL   UNL     1       0.512  13.870  21.854  0.00  0.00    +0.000 Cl
ENDBRANCH  22  23
ENDBRANCH   1  22
TORSDOF 9
ENDMDL
MODEL 2
REMARK VINA RESULT:      -7.2      5.579      9.605
REMARK  Name = 
REMARK  10 active torsions:
REMARK  status: ('A' for Active; 'I' for Inactive)
REMARK    1  A    between atoms: C_1  and  O_2
REMARK    2  A    between atoms: O_2  and  C_3
REMARK    3  A    between atoms: C_6  and  C_7
REMARK    4  A    between atoms: C_7  and  N_8
REMARK    5  A    between atoms: N_8  and  C_9
REMARK    6  A    between atoms: N_8  and  C_18
REMARK    7  A    between atoms: C_9  and  C_10
REMARK    8  A    between atoms: C_10  and  C_11
REMARK    9  A    between atoms: C_18  and  C_19
REMARK   10  A    between atoms: C_28  and  O_29
REMARK                            x       y       z     vdW  Elec       q    Type
REMARK                         _______ _______ _______ _____ _____    ______ ____
ROOT
ATOM      1  N   UNL     1       2.657   7.785  18.119  0.00  0.00    +0.000 NA
ENDROOT
BRANCH   1   2
ATOM      2  C   UNL     1       2.117   7.269  19.404  0.00  0.00    +0.000 C 
BRANCH   2   6
ATOM      3  C   UNL     1       2.253   2.946  19.511  0.00  0.00    +0.000 A 
ATOM      4  C   UNL     1       1.995   3.621  18.309  0.00  0.00    +0.000 A 
ATOM      5  C   UNL     1       1.900   5.014  18.269  0.00  0.00    +0.000 A 
ATOM      6  C   UNL     1       2.049   5.758  19.442  0.00  0.00    +0.000 A 
ATOM      7  C   UNL     1       2.202   5.081  20.660  0.00  0.00    +0.000 A 
ATOM      8  C   UNL     1       2.341   3.691  20.689  0.00  0.00    +0.000 A 
BRANCH   3  10
ATOM      9  C   UNL     1       3.572   1.143  18.673  0.00  0.00    +0.000 C 
ATOM     10  O   UNL     1       2.407   1.596  19.346  0.00  0.00    +0.000 OA
ENDBRANCH   3  10
BRANCH   8  11
ATOM     11  O   UNL     1       2.601   3.107  21.898  0.00  0.00    +0.000 OA
ATOM     12  H   UNL     1       2.086   3.572  22.578  0.00  0.00    +0.000 HD
ENDBRANCH   8  11
ENDBRANCH   2   6
ENDBRANCH   1   2
BRANCH   1  13
ATOM     13  C   UNL     1       2.151   9.159  17.833  0.00  0.00    +0.000 C 
BRANCH  13  14
ATOM     14  C   UNL     1       1.180   9.666  18.918  0.00  0.00    +0.000 C 
BRANCH  14  15
ATOM     15  C   UNL     1      -0.176  10.189  18.504  0.00  0.00    +0.000 A 
ATOM     16  C   UNL     1      -0.931   9.659  17.453  0.00  0.00    +0.000 A 
ATOM     17  C   UNL     1      -2.242  10.093  17.235  0.00  0.00    +0.000 A 
ATOM     18  C   UNL     1      -2.811  11.054  18.071  0.00  0.00    +0.000 A 
ATOM     19 BR   UNL     1      -4.604  11.592  17.813  0.00  0.00    +0.000 Br
ATOM     20  C   UNL     1      -2.077  11.593  19.120  0.00  0.00    +0.000 A 
ATOM     21  C   UNL     1      -0.767  11.161  19.332  0.00  0.00    +0.000 A 
ENDBRANCH  14  15
ENDBRANCH  13  14
ENDBRANCH   1  13
BRANCH   1  22
ATOM     22  C   UNL     1       4.136   7.759  18.145  0.00  0.00    +0.000 C 
BRANCH  22  23
ATOM     23  C   UNL     1       4.747   6.713  17.233  0.00  0.00    +0.000 A 
ATOM     24  C   UNL     1       4.714   6.932  15.840  0.00  0.00    +0.000 A 
ATOM     25  C   UNL     1       5.270   6.007  14.958  0.00  0.00    +0.000 A 
ATOM     26  C   UNL     1       5.869   4.855  15.457  0.00  0.00    +0.000 A 
ATOM     27 CL   UNL     1       6.532   3.698  14.372  0.00  0.00    +0.000 Cl
ATOM     28  C   UNL     1       5.936   4.632  16.830  0.00  0.00    +0.000 A 
ATOM     29  C   UNL     1       5.385   5.562  17.714  0.00  0.00    +0.000 A 
ATOM     30 CL   UNL     1       5.539   5.232  19.404  0.00  0.00    +0.000 Cl
ENDBRANCH  22  23
ENDBRANCH   1  22
TORSDOF 9
ENDMDL
MODEL 3
REMARK VINA RESULT:      -7.0      1.614      2.486
REMARK  Name = 
REMARK  10 active torsions:
REMARK  status: ('A' for Active; 'I' for Inactive)
REMARK    1  A    between atoms: C_1  and  O_2
REMARK    2  A    between atoms: O_2  and  C_3
REMARK    3  A    between atoms: C_6  and  C_7
REMARK    4  A    between atoms: C_7  and  N_8
REMARK    5  A    between atoms: N_8  and  C_9
REMARK    6  A    between atoms: N_8  and  C_18
REMARK    7  A    between atoms: C_9  and  C_10
REMARK    8  A    between atoms: C_10  and  C_11
REMARK    9  A    between atoms: C_18  and  C_19
REMARK   10  A    between atoms: C_28  and  O_29
REMARK                            x       y       z     vdW  Elec       q    Type
REMARK                         _______ _______ _______ _____ _____    ______ ____
ROOT
ATOM      1  N   UNL     1       0.637   9.974  19.642  0.00  0.00    +0.000 NA
ENDROOT
BRANCH   1   2
ATOM      2  C   UNL     1       0.233  10.931  18.578  0.00  0.00    +0.000 C 
BRANCH   2   6
ATOM      3  C   UNL     1      -3.933  10.922  17.411  0.00  0.00    +0.000 A 
ATOM      4  C   UNL     1      -3.520  11.596  18.568  0.00  0.00    +0.000 A 
ATOM      5  C   UNL     1      -2.186  11.567  18.984  0.00  0.00    +0.000 A 
ATOM      6  C   UNL     1      -1.241  10.846  18.249  0.00  0.00    +0.000 A 
ATOM      7  C   UNL     1      -1.672  10.086  17.153  0.00  0.00    +0.000 A 
ATOM      8  C   UNL     1      -2.997  10.154  16.715  0.00  0.00    +0.000 A 
BRANCH   3  10
ATOM      9  C   UNL     1      -5.722  12.477  17.136  0.00  0.00    +0.000 C 
ATOM     10  O   UNL     1      -5.250  11.137  17.105  0.00  0.00    +0.000 OA
ENDBRANCH   3  10
BRANCH   8  11
ATOM     11  O   UNL     1      -3.321   9.476  15.573  0.00  0.00    +0.000 OA
ATOM     12  H   UNL     1      -2.517   9.044  15.237  0.00  0.00    +0.000 HD
ENDBRANCH   8  11
ENDBRANCH   2   6
ENDBRANCH   1   2
BRANCH   1  13
ATOM     13  C   UNL     1       1.614   8.973  19.125  0.00  0.00    +0.000 C 
BRANCH  13  14
ATOM     14  C   UNL     1       1.884   7.839  20.134  0.00  0.00    +0.000 C 
BRANCH  14  15
ATOM     15  C   UNL     1       2.052   6.426  19.624  0.00  0.00    +0.000 A 
ATOM     16  C   UNL     1       2.516   6.107  18.344  0.00  0.00    +0.000 A 
ATOM     17  C   UNL     1       2.795   4.779  18.004  0.00  0.00    +0.000 A 
ATOM     18  C   UNL     1       2.621   3.763  18.943  0.00  0.00    +0.000 A 
ATOM     19 BR   UNL     1       3.060   1.979  18.501  0.00  0.00    +0.000 Br
ATOM     20  C   UNL     1       2.161   4.059  20.219  0.00  0.00    +0.000 A 
ATOM     21  C   UNL     1       1.879   5.385  20.555  0.00  0.00    +0.000 A 
ENDBRANCH  14  15
ENDBRANCH  13  14
ENDBRANCH   1  13
BRANCH   1  22
ATOM     22  C   UNL     1       1.194  10.710  20.799  0.00  0.00    +0.000 C 
BRANCH  22  23
ATOM     23  C   UNL     1       0.146  11.408  21.643  0.00  0.00    +0.000 A 
ATOM     24  C   UNL     1       0.015  12.808  21.533  0.00  0.00    +0.000 A 
ATOM     25  C   UNL     1      -0.940  13.498  22.278  0.00  0.00    +0.000 A 
ATOM     26  C   UNL     1      -1.778  12.797  23.139  0.00  0.00    +0.000 A 
ATOM     27 CL   UNL     1      -2.940  13.646  24.080  0.00  0.00    +0.000 Cl
ATOM     28  C   UNL     1      -1.684  11.411  23.242  0.00  0.00    +0.000 A 
ATOM     29  C   UNL     1      -0.732  10.719  22.491  0.00  0.00    +0.000 A 
ATOM     30 CL   UNL     1      -0.701   8.998  22.648  0.00  0.00    +0.000 Cl
ENDBRANCH  22  23
ENDBRANCH   1  22
TORSDOF 9
ENDMDL
MODEL 4
REMARK VINA RESULT:      -6.9      1.110      1.998
REMARK  Name = 
REMARK  10 active torsions:
REMARK  status: ('A' for Active; 'I' for Inactive)
REMARK    1  A    between atoms: C_1  and  O_2
REMARK    2  A    between atoms: O_2  and  C_3
REMARK    3  A    between atoms: C_6  and  C_7
REMARK    4  A    between atoms: C_7  and  N_8
REMARK    5  A    between atoms: N_8  and  C_9
REMARK    6  A    between atoms: N_8  and  C_18
REMARK    7  A    between atoms: C_9  and  C_10
REMARK    8  A    between atoms: C_10  and  C_11
REMARK    9  A    between atoms: C_18  and  C_19
REMARK   10  A    between atoms: C_28  and  O_29
REMARK                            x       y       z     vdW  Elec       q    Type
REMARK                         _______ _______ _______ _____ _____    ______ ____
ROOT
ATOM      1  N   UNL     1       0.187   9.781  20.573  0.00  0.00    +0.000 NA
ENDROOT
BRANCH   1   2
ATOM      2  C   UNL     1       0.286  10.196  19.149  0.00  0.00    +0.000 C 
BRANCH   2   6
ATOM      3  C   UNL     1      -3.443  11.074  17.140  0.00  0.00    +0.000 A 
ATOM      4  C   UNL     1      -3.173  11.613  18.405  0.00  0.00    +0.000 A 
ATOM      5  C   UNL     1      -1.994  11.299  19.087  0.00  0.00    +0.000 A 
ATOM      6  C   UNL     1      -1.068  10.424  18.514  0.00  0.00    +0.000 A 
ATOM      7  C   UNL     1      -1.384   9.803  17.298  0.00  0.00    +0.000 A 
ATOM      8  C   UNL     1      -2.542  10.153  16.599  0.00  0.00    +0.000 A 
BRANCH   3  10
ATOM      9  C   UNL     1      -5.564  12.119  17.458  0.00  0.00    +0.000 C 
ATOM     10  O   UNL     1      -4.594  11.563  16.583  0.00  0.00    +0.000 OA
ENDBRANCH   3  10
BRANCH   8  11
ATOM     11  O   UNL     1      -2.732   9.592  15.367  0.00  0.00    +0.000 OA
ATOM     12  H   UNL     1      -2.782   8.628  15.476  0.00  0.00    +0.000 HD
ENDBRANCH   8  11
ENDBRANCH   2   6
ENDBRANCH   1   2
BRANCH   1  13
ATOM     13  C   UNL     1       0.878   8.479  20.805  0.00  0.00    +0.000 C 
BRANCH  13  14
ATOM     14  C   UNL     1       1.890   8.144  19.692  0.00  0.00    +0.000 C 
BRANCH  14  15
ATOM     15  C   UNL     1       2.249   6.698  19.437  0.00  0.00    +0.000 A 
ATOM     16  C   UNL     1       1.968   5.654  20.324  0.00  0.00    +0.000 A 
ATOM     17  C   UNL     1       2.188   4.326  19.945  0.00  0.00    +0.000 A 
ATOM     18  C   UNL     1       2.680   4.031  18.674  0.00  0.00    +0.000 A 
ATOM     19 BR   UNL     1       2.914   2.233  18.143  0.00  0.00    +0.000 Br
ATOM     20  C   UNL     1       2.965   5.053  17.778  0.00  0.00    +0.000 A 
ATOM     21  C   UNL     1       2.749   6.379  18.161  0.00  0.00    +0.000 A 
ENDBRANCH  14  15
ENDBRANCH  13  14
ENDBRANCH   1  13
BRANCH   1  22
ATOM     22  C   UNL     1       0.739  10.838  21.448  0.00  0.00    +0.000 C 
BRANCH  22  23
ATOM     23  C   UNL     1      -0.315  11.743  22.055  0.00  0.00    +0.000 A 
ATOM     24  C   UNL     1      -1.344  11.160  22.823  0.00  0.00    +0.000 A 
ATOM     25  C   UNL     1      -2.332  11.947  23.411  0.00  0.00    +0.000 A 
ATOM     26  C   UNL     1      -2.302  13.327  23.243  0.00  0.00    +0.000 A 
ATOM     27 CL   UNL     1      -3.533  14.302  23.944  0.00  0.00    +0.000 Cl
ATOM     28  C   UNL     1      -1.280  13.927  22.511  0.00  0.00    +0.000 A 
ATOM     29  C   UNL     1      -0.286  13.139  21.927  0.00  0.00    +0.000 A 
ATOM     30 CL   UNL     1       0.967  13.959  21.064  0.00  0.00    +0.000 Cl
ENDBRANCH  22  23
ENDBRANCH   1  22
TORSDOF 9
ENDMDL
MODEL 5
REMARK VINA RESULT:      -6.8      7.084     11.205
REMARK  Name = 
REMARK  10 active torsions:
REMARK  status: ('A' for Active; 'I' for Inactive)
REMARK    1  A    between atoms: C_1  and  O_2
REMARK    2  A    between atoms: O_2  and  C_3
REMARK    3  A    between atoms: C_6  and  C_7
REMARK    4  A    between atoms: C_7  and  N_8
REMARK    5  A    between atoms: N_8  and  C_9
REMARK    6  A    between atoms: N_8  and  C_18
REMARK    7  A    between atoms: C_9  and  C_10
REMARK    8  A    between atoms: C_10  and  C_11
REMARK    9  A    between atoms: C_18  and  C_19
REMARK   10  A    between atoms: C_28  and  O_29
REMARK                            x       y       z     vdW  Elec       q    Type
REMARK                         _______ _______ _______ _____ _____    ______ ____
ROOT
ATOM      1  N   UNL     1       5.813   5.700  16.473  0.00  0.00    +0.000 NA
ENDROOT
BRANCH   1   2
ATOM      2  C   UNL     1       6.138   4.750  17.570  0.00  0.00    +0.000 C 
BRANCH   2   6
ATOM      3  C   UNL     1       2.810   2.401  19.028  0.00  0.00    +0.000 A 
ATOM      4  C   UNL     1       2.808   2.903  17.719  0.00  0.00    +0.000 A 
ATOM      5  C   UNL     1       3.853   3.703  17.250  0.00  0.00    +0.000 A 
ATOM      6  C   UNL     1       4.917   4.027  18.095  0.00  0.00    +0.000 A 
ATOM      7  C   UNL     1       4.870   3.615  19.434  0.00  0.00    +0.000 A 
ATOM      8  C   UNL     1       3.846   2.778  19.886  0.00  0.00    +0.000 A 
BRANCH   3  10
ATOM      9  C   UNL     1       0.448   2.085  19.133  0.00  0.00    +0.000 C 
ATOM     10  O   UNL     1       1.760   1.562  19.283  0.00  0.00    +0.000 OA
ENDBRANCH   3  10
BRANCH   8  11
ATOM     11  O   UNL     1       3.923   2.323  21.173  0.00  0.00    +0.000 OA
ATOM     12  H   UNL     1       4.813   2.518  21.512  0.00  0.00    +0.000 HD
ENDBRANCH   8  11
ENDBRANCH   2   6
ENDBRANCH   1   2
BRANCH   1  13
ATOM     13  C   UNL     1       5.523   7.062  17.007  0.00  0.00    +0.000 C 
BRANCH  13  14
ATOM     14  C   UNL     1       4.089   7.527  16.685  0.00  0.00    +0.000 C 
BRANCH  14  15
ATOM     15  C   UNL     1       3.098   7.691  17.815  0.00  0.00    +0.000 A 
ATOM     16  C   UNL     1       3.013   6.827  18.911  0.00  0.00    +0.000 A 
ATOM     17  C   UNL     1       2.180   7.136  19.992  0.00  0.00    +0.000 A 
ATOM     18  C   UNL     1       1.435   8.314  19.988  0.00  0.00    +0.000 A 
ATOM     19 BR   UNL     1       0.361   8.760  21.478  0.00  0.00    +0.000 Br
ATOM     20  C   UNL     1       1.506   9.185  18.909  0.00  0.00    +0.000 A 
ATOM     21  C   UNL     1       2.334   8.872  17.830  0.00  0.00    +0.000 A 
ENDBRANCH  14  15
ENDBRANCH  13  14
ENDBRANCH   1  13
BRANCH   1  22
ATOM     22  C   UNL     1       6.920   5.739  15.492  0.00  0.00    +0.000 C 
BRANCH  22  23
ATOM     23  C   UNL     1       6.704   4.840  14.290  0.00  0.00    +0.000 A 
ATOM     24  C   UNL     1       5.592   3.974  14.287  0.00  0.00    +0.000 A 
ATOM     25  C   UNL     1       5.342   3.135  13.202  0.00  0.00    +0.000 A 
ATOM     26  C   UNL     1       6.198   3.155  12.106  0.00  0.00    +0.000 A 
ATOM     27 CL   UNL     1       5.910   2.103  10.777  0.00  0.00    +0.000 Cl
ATOM     28  C   UNL     1       7.287   4.022  12.077  0.00  0.00    +0.000 A 
ATOM     29  C   UNL     1       7.534   4.868  13.160  0.00  0.00    +0.000 A 
ATOM     30 CL   UNL     1       8.884   5.940  13.035  0.00  0.00    +0.000 Cl
ENDBRANCH  22  23
ENDBRANCH   1  22
TORSDOF 9
ENDMDL
MODEL 6
REMARK VINA RESULT:      -6.7      1.466      2.426
REMARK  Name = 
REMARK  10 active torsions:
REMARK  status: ('A' for Active; 'I' for Inactive)
REMARK    1  A    between atoms: C_1  and  O_2
REMARK    2  A    between atoms: O_2  and  C_3
REMARK    3  A    between atoms: C_6  and  C_7
REMARK    4  A    between atoms: C_7  and  N_8
REMARK    5  A    between atoms: N_8  and  C_9
REMARK    6  A    between atoms: N_8  and  C_18
REMARK    7  A    between atoms: C_9  and  C_10
REMARK    8  A    between atoms: C_10  and  C_11
REMARK    9  A    between atoms: C_18  and  C_19
REMARK   10  A    between atoms: C_28  and  O_29
REMARK                            x       y       z     vdW  Elec       q    Type
REMARK                         _______ _______ _______ _____ _____    ______ ____
ROOT
ATOM      1  N   UNL     1       0.406  10.002  20.303  0.00  0.00    +0.000 NA
ENDROOT
BRANCH   1   2
ATOM      2  C   UNL     1       0.370  10.179  18.827  0.00  0.00    +0.000 C 
BRANCH   2   6
ATOM      3  C   UNL     1      -3.508  11.056  17.122  0.00  0.00    +0.000 A 
ATOM      4  C   UNL     1      -3.133  11.603  18.357  0.00  0.00    +0.000 A 
ATOM      5  C   UNL     1      -1.904  11.291  18.943  0.00  0.00    +0.000 A 
ATOM      6  C   UNL     1      -1.030  10.408  18.302  0.00  0.00    +0.000 A 
ATOM      7  C   UNL     1      -1.447   9.779  17.121  0.00  0.00    +0.000 A 
ATOM      8  C   UNL     1      -2.657  10.129  16.516  0.00  0.00    +0.000 A 
BRANCH   3  10
ATOM      9  C   UNL     1      -5.783  11.617  17.571  0.00  0.00    +0.000 C 
ATOM     10  O   UNL     1      -4.698  11.546  16.657  0.00  0.00    +0.000 OA
ENDBRANCH   3  10
BRANCH   8  11
ATOM     11  O   UNL     1      -2.947   9.560  15.308  0.00  0.00    +0.000 OA
ATOM     12  H   UNL     1      -2.199   8.997  15.049  0.00  0.00    +0.000 HD
ENDBRANCH   8  11
ENDBRANCH   2   6
ENDBRANCH   1   2
BRANCH   1  13
ATOM     13  C   UNL     1       1.180   8.785  20.682  0.00  0.00    +0.000 C 
BRANCH  13  14
ATOM     14  C   UNL     1       1.915   8.158  19.480  0.00  0.00    +0.000 C 
BRANCH  14  15
ATOM     15  C   UNL     1       2.085   6.657  19.425  0.00  0.00    +0.000 A 
ATOM     16  C   UNL     1       1.746   5.793  20.471  0.00  0.00    +0.000 A 
ATOM     17  C   UNL     1       1.783   4.407  20.283  0.00  0.00    +0.000 A 
ATOM     18  C   UNL     1       2.151   3.876  19.047  0.00  0.00    +0.000 A 
ATOM     19 BR   UNL     1       2.138   2.006  18.778  0.00  0.00    +0.000 Br
ATOM     20  C   UNL     1       2.492   4.718  17.996  0.00  0.00    +0.000 A 
ATOM     21  C   UNL     1       2.458   6.101  18.188  0.00  0.00    +0.000 A 
ENDBRANCH  14  15
ENDBRANCH  13  14
ENDBRANCH   1  13
BRANCH   1  22
ATOM     22  C   UNL     1       0.970  11.211  20.944  0.00  0.00    +0.000 C 
BRANCH  22  23
ATOM     23  C   UNL     1      -0.061  12.064  21.657  0.00  0.00    +0.000 A 
ATOM     24  C   UNL     1      -0.270  13.384  21.208  0.00  0.00    +0.000 A 
ATOM     25  C   UNL     1      -1.213  14.207  21.822  0.00  0.00    +0.000 A 
ATOM     26  C   UNL     1      -1.962  13.719  22.888  0.00  0.00    +0.000 A 
ATOM     27 CL   UNL     1      -3.108  14.737  23.665  0.00  0.00    +0.000 Cl
ATOM     28  C   UNL     1      -1.791  12.409  23.329  0.00  0.00    +0.000 A 
ATOM     29  C   UNL     1      -0.850  11.582  22.710  0.00  0.00    +0.000 A 
ATOM     30 CL   UNL     1      -0.721   9.960  23.291  0.00  0.00    +0.000 Cl
ENDBRANCH  22  23
ENDBRANCH   1  22
TORSDOF 9
ENDMDL
MODEL 7
REMARK VINA RESULT:      -6.7      5.902      9.284
REMARK  Name = 
REMARK  10 active torsions:
REMARK  status: ('A' for Active; 'I' for Inactive)
REMARK    1  A    between atoms: C_1  and  O_2
REMARK    2  A    between atoms: O_2  and  C_3
REMARK    3  A    between atoms: C_6  and  C_7
REMARK    4  A    between atoms: C_7  and  N_8
REMARK    5  A    between atoms: N_8  and  C_9
REMARK    6  A    between atoms: N_8  and  C_18
REMARK    7  A    between atoms: C_9  and  C_10
REMARK    8  A    between atoms: C_10  and  C_11
REMARK    9  A    between atoms: C_18  and  C_19
REMARK   10  A    between atoms: C_28  and  O_29
REMARK                            x       y       z     vdW  Elec       q    Type
REMARK                         _______ _______ _______ _____ _____    ______ ____
ROOT
ATOM      1  N   UNL     1       2.841   7.738  18.258  0.00  0.00    +0.000 NA
ENDROOT
BRANCH   1   2
ATOM      2  C   UNL     1       4.281   7.953  17.956  0.00  0.00    +0.000 C 
BRANCH   2   6
ATOM      3  C   UNL     1       6.312   4.831  15.755  0.00  0.00    +0.000 A 
ATOM      4  C   UNL     1       5.452   5.721  15.097  0.00  0.00    +0.000 A 
ATOM      5  C   UNL     1       4.752   6.704  15.802  0.00  0.00    +0.000 A 
ATOM      6  C   UNL     1       4.893   6.802  17.189  0.00  0.00    +0.000 A 
ATOM      7  C   UNL     1       5.670   5.847  17.861  0.00  0.00    +0.000 A 
ATOM      8  C   UNL     1       6.402   4.895  17.148  0.00  0.00    +0.000 A 
BRANCH   3  10
ATOM      9  C   UNL     1       6.428   3.798  13.608  0.00  0.00    +0.000 C 
ATOM     10  O   UNL     1       6.984   4.002  14.899  0.00  0.00    +0.000 OA
ENDBRANCH   3  10
BRANCH   8  11
ATOM     11  O   UNL     1       7.226   4.069  17.860  0.00  0.00    +0.000 OA
ATOM     12  H   UNL     1       6.977   3.150  17.665  0.00  0.00    +0.000 HD
ENDBRANCH   8  11
ENDBRANCH   2   6
ENDBRANCH   1   2
BRANCH   1  13
ATOM     13  C   UNL     1       2.004   8.847  17.716  0.00  0.00    +0.000 C 
BRANCH  13  14
ATOM     14  C   UNL     1       1.214   9.581  18.818  0.00  0.00    +0.000 C 
BRANCH  14  15
ATOM     15  C   UNL     1      -0.148  10.149  18.490  0.00  0.00    +0.000 A 
ATOM     16  C   UNL     1      -0.987   9.643  17.493  0.00  0.00    +0.000 A 
ATOM     17  C   UNL     1      -2.295  10.121  17.360  0.00  0.00    +0.000 A 
ATOM     18  C   UNL     1      -2.775  11.102  18.227  0.00  0.00    +0.000 A 
ATOM     19 BR   UNL     1      -4.562  11.700  18.085  0.00  0.00    +0.000 Br
ATOM     20  C   UNL     1      -1.957  11.618  19.224  0.00  0.00    +0.000 A 
ATOM     21  C   UNL     1      -0.650  11.141  19.352  0.00  0.00    +0.000 A 
ENDBRANCH  14  15
ENDBRANCH  13  14
ENDBRANCH   1  13
BRANCH   1  22
ATOM     22  C   UNL     1       2.402   6.431  17.723  0.00  0.00    +0.000 C 
BRANCH  22  23
ATOM     23  C   UNL     1       2.228   5.362  18.784  0.00  0.00    +0.000 A 
ATOM     24  C   UNL     1       1.891   5.761  20.093  0.00  0.00    +0.000 A 
ATOM     25  C   UNL     1       1.709   4.818  21.104  0.00  0.00    +0.000 A 
ATOM     26  C   UNL     1       1.858   3.465  20.817  0.00  0.00    +0.000 A 
ATOM     27 CL   UNL     1       1.661   2.300  22.065  0.00  0.00    +0.000 Cl
ATOM     28  C   UNL     1       2.164   3.048  19.524  0.00  0.00    +0.000 A 
ATOM     29  C   UNL     1       2.340   3.992  18.510  0.00  0.00    +0.000 A 
ATOM     30 CL   UNL     1       2.683   3.394  16.925  0.00  0.00    +0.000 Cl
ENDBRANCH  22  23
ENDBRANCH   1  22
TORSDOF 9
ENDMDL
MODEL 8
REMARK VINA RESULT:      -6.6      7.802     10.413
REMARK  Name = 
REMARK  10 active torsions:
REMARK  status: ('A' for Active; 'I' for Inactive)
REMARK    1  A    between atoms: C_1  and  O_2
REMARK    2  A    between atoms: O_2  and  C_3
REMARK    3  A    between atoms: C_6  and  C_7
REMARK    4  A    between atoms: C_7  and  N_8
REMARK    5  A    between atoms: N_8  and  C_9
REMARK    6  A    between atoms: N_8  and  C_18
REMARK    7  A    between atoms: C_9  and  C_10
REMARK    8  A    between atoms: C_10  and  C_11
REMARK    9  A    between atoms: C_18  and  C_19
REMARK   10  A    between atoms: C_28  and  O_29
REMARK                            x       y       z     vdW  Elec       q    Type
REMARK                         _______ _______ _______ _____ _____    ______ ____
ROOT
ATOM      1  N   UNL     1       6.434   6.296  17.851  0.00  0.00    +0.000 NA
ENDROOT
BRANCH   1   2
ATOM      2  C   UNL     1       7.281   5.140  17.456  0.00  0.00    +0.000 C 
BRANCH   2   6
ATOM      3  C   UNL     1       6.377   4.132  13.347  0.00  0.00    +0.000 A 
ATOM      4  C   UNL     1       5.730   3.471  14.401  0.00  0.00    +0.000 A 
ATOM      5  C   UNL     1       6.046   3.752  15.733  0.00  0.00    +0.000 A 
ATOM      6  C   UNL     1       7.033   4.695  16.032  0.00  0.00    +0.000 A 
ATOM      7  C   UNL     1       7.754   5.279  14.981  0.00  0.00    +0.000 A 
ATOM      8  C   UNL     1       7.404   5.029  13.652  0.00  0.00    +0.000 A 
BRANCH   3  10
ATOM      9  C   UNL     1       5.659   2.425  11.843  0.00  0.00    +0.000 C 
ATOM     10  O   UNL     1       5.875   3.802  12.118  0.00  0.00    +0.000 OA
ENDBRANCH   3  10
BRANCH   8  11
ATOM     11  O   UNL     1       8.075   5.719  12.680  0.00  0.00    +0.000 OA
ATOM     12  H   UNL     1       7.420   6.139  12.099  0.00  0.00    +0.000 HD
ENDBRANCH   8  11
ENDBRANCH   2   6
ENDBRANCH   1   2
BRANCH   1  13
ATOM     13  C   UNL     1       7.051   7.586  17.427  0.00  0.00    +0.000 C 
BRANCH  13  14
ATOM     14  C   UNL     1       8.251   7.982  18.311  0.00  0.00    +0.000 C 
BRANCH  14  15
ATOM     15  C   UNL     1       8.652   9.437  18.397  0.00  0.00    +0.000 A 
ATOM     16  C   UNL     1       8.207  10.424  17.512  0.00  0.00    +0.000 A 
ATOM     17  C   UNL     1       8.495  11.771  17.754  0.00  0.00    +0.000 A 
ATOM     18  C   UNL     1       9.221  12.142  18.885  0.00  0.00    +0.000 A 
ATOM     19 BR   UNL     1       9.553  13.967  19.242  0.00  0.00    +0.000 Br
ATOM     20  C   UNL     1       9.673  11.176  19.775  0.00  0.00    +0.000 A 
ATOM     21  C   UNL     1       9.388   9.831  19.529  0.00  0.00    +0.000 A 
ENDBRANCH  14  15
ENDBRANCH  13  14
ENDBRANCH   1  13
BRANCH   1  22
ATOM     22  C   UNL     1       5.076   6.146  17.282  0.00  0.00    +0.000 C 
BRANCH  22  23
ATOM     23  C   UNL     1       4.079   5.518  18.237  0.00  0.00    +0.000 A 
ATOM     24  C   UNL     1       4.315   4.205  18.691  0.00  0.00    +0.000 A 
ATOM     25  C   UNL     1       3.435   3.585  19.577  0.00  0.00    +0.000 A 
ATOM     26  C   UNL     1       2.311   4.273  20.023  0.00  0.00    +0.000 A 
ATOM     27 CL   UNL     1       1.209   3.505  21.095  0.00  0.00    +0.000 Cl
ATOM     28  C   UNL     1       2.074   5.581  19.609  0.00  0.00    +0.000 A 
ATOM     29  C   UNL     1       2.958   6.204  18.726  0.00  0.00    +0.000 A 
ATOM     30 CL   UNL     1       2.615   7.840  18.286  0.00  0.00    +0.000 Cl
ENDBRANCH  22  23
ENDBRANCH   1  22
TORSDOF 9
ENDMDL
MODEL 9
REMARK VINA RESULT:      -6.6      4.317      7.224
REMARK  Name = 
REMARK  10 active torsions:
REMARK  status: ('A' for Active; 'I' for Inactive)
REMARK    1  A    between atoms: C_1  and  O_2
REMARK    2  A    between atoms: O_2  and  C_3
REMARK    3  A    between atoms: C_6  and  C_7
REMARK    4  A    between atoms: C_7  and  N_8
REMARK    5  A    between atoms: N_8  and  C_9
REMARK    6  A    between atoms: N_8  and  C_18
REMARK    7  A    between atoms: C_9  and  C_10
REMARK    8  A    between atoms: C_10  and  C_11
REMARK    9  A    between atoms: C_18  and  C_19
REMARK   10  A    between atoms: C_28  and  O_29
REMARK                            x       y       z     vdW  Elec       q    Type
REMARK                         _______ _______ _______ _____ _____    ______ ____
ROOT
ATOM      1  N   UNL     1      -0.094  11.143  19.585  0.00  0.00    +0.000 NA
ENDROOT
BRANCH   1   2
ATOM      2  C   UNL     1       1.091  10.850  18.736  0.00  0.00    +0.000 C 
BRANCH   2   6
ATOM      3  C   UNL     1       2.575   6.800  19.072  0.00  0.00    +0.000 A 
ATOM      4  C   UNL     1       2.639   7.483  17.849  0.00  0.00    +0.000 A 
ATOM      5  C   UNL     1       2.120   8.773  17.713  0.00  0.00    +0.000 A 
ATOM      6  C   UNL     1       1.512   9.399  18.804  0.00  0.00    +0.000 A 
ATOM      7  C   UNL     1       1.353   8.679  19.997  0.00  0.00    +0.000 A 
ATOM      8  C   UNL     1       1.912   7.407  20.141  0.00  0.00    +0.000 A 
BRANCH   3  10
ATOM      9  C   UNL     1       4.464   5.521  18.373  0.00  0.00    +0.000 C 
ATOM     10  O   UNL     1       3.215   5.591  19.046  0.00  0.00    +0.000 OA
ENDBRANCH   3  10
BRANCH   8  11
ATOM     11  O   UNL     1       1.817   6.810  21.367  0.00  0.00    +0.000 OA
ATOM     12  H   UNL     1       0.920   6.447  21.460  0.00  0.00    +0.000 HD
ENDBRANCH   8  11
ENDBRANCH   2   6
ENDBRANCH   1   2
BRANCH   1  13
ATOM     13  C   UNL     1       0.316  11.561  20.957  0.00  0.00    +0.000 C 
BRANCH  13  14
ATOM     14  C   UNL     1      -0.749  11.220  22.019  0.00  0.00    +0.000 C 
BRANCH  14  15
ATOM     15  C   UNL     1      -1.551  12.340  22.641  0.00  0.00    +0.000 A 
ATOM     16  C   UNL     1      -2.795  12.165  23.253  0.00  0.00    +0.000 A 
ATOM     17  C   UNL     1      -3.398  13.221  23.945  0.00  0.00    +0.000 A 
ATOM     18  C   UNL     1      -2.757  14.456  24.036  0.00  0.00    +0.000 A 
ATOM     19 BR   UNL     1      -3.544  15.860  25.025  0.00  0.00    +0.000 Br
ATOM     20  C   UNL     1      -1.521  14.651  23.434  0.00  0.00    +0.000 A 
ATOM     21  C   UNL     1      -0.923  13.596  22.741  0.00  0.00    +0.000 A 
ENDBRANCH  14  15
ENDBRANCH  13  14
ENDBRANCH   1  13
BRANCH   1  22
ATOM     22  C   UNL     1      -0.934  12.178  18.944  0.00  0.00    +0.000 C 
BRANCH  22  23
ATOM     23  C   UNL     1      -2.390  11.782  18.800  0.00  0.00    +0.000 A 
ATOM     24  C   UNL     1      -3.357  12.484  19.548  0.00  0.00    +0.000 A 
ATOM     25  C   UNL     1      -4.710  12.167  19.445  0.00  0.00    +0.000 A 
ATOM     26  C   UNL     1      -5.114  11.148  18.590  0.00  0.00    +0.000 A 
ATOM     27 CL   UNL     1      -6.779  10.734  18.478  0.00  0.00    +0.000 Cl
ATOM     28  C   UNL     1      -4.179  10.460  17.820  0.00  0.00    +0.000 A 
ATOM     29  C   UNL     1      -2.824  10.782  17.919  0.00  0.00    +0.000 A 
ATOM     30 CL   UNL     1      -1.729   9.908  16.906  0.00  0.00    +0.000 Cl
ENDBRANCH  22  23
ENDBRANCH   1  22
TORSDOF 9
ENDMDL
