MODEL 1
REMARK VINA RESULT:      -8.4      0.000      0.000
REMARK  Name = 
REMARK  3 active torsions:
REMARK  status: ('A' for Active; 'I' for Inactive)
REMARK    1  A    between atoms: C_8  and  C_9
REMARK    2  A    between atoms: C_13  and  O_14
REMARK    3  A    between atoms: C_22  and  O_23
REMARK                            x       y       z     vdW  Elec       q    Type
REMARK                         _______ _______ _______ _____ _____    ______ ____
ROOT
ATOM      1  O   UNL     1       5.039   3.197  18.658  0.00  0.00    +0.000 OA
ATOM      2  C   UNL     1       4.204   4.031  18.985  0.00  0.00    +0.000 C 
ATOM      3  N   UNL     1       3.385   3.835  20.064  0.00  0.00    +0.000 N 
ATOM      4  C   UNL     1       2.608   4.885  20.440  0.00  0.00    +0.000 C 
ATOM      5  O   UNL     1       1.908   4.858  21.444  0.00  0.00    +0.000 OA
ATOM      6  C   UNL     1       2.880   5.861  19.429  0.00  0.00    +0.000 A 
ATOM      7  C   UNL     1       3.831   5.342  18.493  0.00  0.00    +0.000 A 
ATOM      8  C   UNL     1       4.293   6.029  17.346  0.00  0.00    +0.000 A 
ATOM      9  C   UNL     1       3.778   7.334  17.169  0.00  0.00    +0.000 A 
ATOM     10  C   UNL     1       2.880   7.852  18.096  0.00  0.00    +0.000 A 
ATOM     11  N   UNL     1       2.248   9.070  18.175  0.00  0.00    +0.000 N 
ATOM     12  C   UNL     1       1.425   9.128  19.288  0.00  0.00    +0.000 A 
ATOM     13  C   UNL     1       0.612  10.183  19.724  0.00  0.00    +0.000 A 
ATOM     14  C   UNL     1      -0.137   9.992  20.887  0.00  0.00    +0.000 A 
ATOM     15  C   UNL     1      -0.061   8.790  21.575  0.00  0.00    +0.000 A 
ATOM     16  C   UNL     1       0.753   7.741  21.141  0.00  0.00    +0.000 A 
ATOM     17  C   UNL     1       1.518   7.899  19.968  0.00  0.00    +0.000 A 
ATOM     18  C   UNL     1       2.422   7.176  19.188  0.00  0.00    +0.000 A 
ATOM     19  H   UNL     1       3.448   3.001  20.620  0.00  0.00    +0.000 HD
ATOM     20  H   UNL     1       2.365   9.825  17.513  0.00  0.00    +0.000 HD
ENDROOT
BRANCH   8  21
ATOM     21  C   UNL     1       5.234   5.461  16.354  0.00  0.00    +0.000 A 
ATOM     22  C   UNL     1       6.628   5.630  16.520  0.00  0.00    +0.000 A 
ATOM     23  C   UNL     1       7.552   5.185  15.567  0.00  0.00    +0.000 A 
ATOM     24  C   UNL     1       7.111   4.524  14.429  0.00  0.00    +0.000 A 
ATOM     25  C   UNL     1       5.748   4.341  14.246  0.00  0.00    +0.000 A 
ATOM     26  C   UNL     1       4.822   4.822  15.175  0.00  0.00    +0.000 A 
BRANCH  25  27
ATOM     27  O   UNL     1       5.262   3.700  13.145  0.00  0.00    +0.000 OA
ATOM     28  H   UNL     1       4.549   3.102  13.421  0.00  0.00    +0.000 HD
ENDBRANCH  25  27
ENDBRANCH   8  21
BRANCH  15  29
ATOM     29  O   UNL     1      -0.791   8.586  22.713  0.00  0.00    +0.000 OA
ATOM     30  H   UNL     1      -1.185   7.702  22.676  0.00  0.00    +0.000 HD
ENDBRANCH  15  29
TORSDOF 3
ENDMDL
MODEL 2
REMARK VINA RESULT:      -7.7      0.877      1.230
REMARK  Name = 
REMARK  3 active torsions:
REMARK  status: ('A' for Active; 'I' for Inactive)
REMARK    1  A    between atoms: C_8  and  C_9
REMARK    2  A    between atoms: C_13  and  O_14
REMARK    3  A    between atoms: C_22  and  O_23
REMARK                            x       y       z     vdW  Elec       q    Type
REMARK                         _______ _______ _______ _____ _____    ______ ____
ROOT
ATOM      1  O   UNL     1       4.788   3.219  18.673  0.00  0.00    +0.000 OA
ATOM      2  C   UNL     1       4.000   4.088  19.022  0.00  0.00    +0.000 C 
ATOM      3  N   UNL     1       3.248   3.955  20.159  0.00  0.00    +0.000 N 
ATOM      4  C   UNL     1       2.527   5.041  20.545  0.00  0.00    +0.000 C 
ATOM      5  O   UNL     1       1.894   5.070  21.593  0.00  0.00    +0.000 OA
ATOM      6  C   UNL     1       2.760   5.973  19.484  0.00  0.00    +0.000 A 
ATOM      7  C   UNL     1       3.632   5.393  18.508  0.00  0.00    +0.000 A 
ATOM      8  C   UNL     1       4.037   6.025  17.309  0.00  0.00    +0.000 A 
ATOM      9  C   UNL     1       3.548   7.338  17.118  0.00  0.00    +0.000 A 
ATOM     10  C   UNL     1       2.729   7.915  18.082  0.00  0.00    +0.000 A 
ATOM     11  N   UNL     1       2.137   9.153  18.157  0.00  0.00    +0.000 N 
ATOM     12  C   UNL     1       1.391   9.275  19.318  0.00  0.00    +0.000 A 
ATOM     13  C   UNL     1       0.639  10.370  19.767  0.00  0.00    +0.000 A 
ATOM     14  C   UNL     1      -0.038  10.242  20.981  0.00  0.00    +0.000 A 
ATOM     15  C   UNL     1       0.049   9.062  21.707  0.00  0.00    +0.000 A 
ATOM     16  C   UNL     1       0.803   7.974  21.259  0.00  0.00    +0.000 A 
ATOM     17  C   UNL     1       1.494   8.069  20.035  0.00  0.00    +0.000 A 
ATOM     18  C   UNL     1       2.324   7.292  19.226  0.00  0.00    +0.000 A 
ATOM     19  H   UNL     1       3.324   3.139  20.739  0.00  0.00    +0.000 HD
ATOM     20  H   UNL     1       2.232   9.881  17.462  0.00  0.00    +0.000 HD
ENDROOT
BRANCH   8  21
ATOM     21  C   UNL     1       4.895   5.395  16.280  0.00  0.00    +0.000 A 
ATOM     22  C   UNL     1       4.478   4.206  15.638  0.00  0.00    +0.000 A 
ATOM     23  C   UNL     1       5.292   3.529  14.722  0.00  0.00    +0.000 A 
ATOM     24  C   UNL     1       6.539   4.040  14.392  0.00  0.00    +0.000 A 
ATOM     25  C   UNL     1       6.968   5.209  15.004  0.00  0.00    +0.000 A 
ATOM     26  C   UNL     1       6.177   5.862  15.951  0.00  0.00    +0.000 A 
BRANCH  25  27
ATOM     27  O   UNL     1       8.187   5.751  14.717  0.00  0.00    +0.000 OA
ATOM     28  H   UNL     1       8.385   6.438  15.374  0.00  0.00    +0.000 HD
ENDBRANCH  25  27
ENDBRANCH   8  21
BRANCH  15  29
ATOM     29  O   UNL     1      -0.609   8.921  22.896  0.00  0.00    +0.000 OA
ATOM     30  H   UNL     1      -1.192   8.148  22.839  0.00  0.00    +0.000 HD
ENDBRANCH  15  29
TORSDOF 3
ENDMDL
MODEL 3
REMARK VINA RESULT:      -7.7      1.801      2.727
REMARK  Name = 
REMARK  3 active torsions:
REMARK  status: ('A' for Active; 'I' for Inactive)
REMARK    1  A    between atoms: C_8  and  C_9
REMARK    2  A    between atoms: C_13  and  O_14
REMARK    3  A    between atoms: C_22  and  O_23
REMARK                            x       y       z     vdW  Elec       q    Type
REMARK                         _______ _______ _______ _____ _____    ______ ____
ROOT
ATOM      1  O   UNL     1       3.310   4.865  20.167  0.00  0.00    +0.000 OA
ATOM      2  C   UNL     1       2.623   5.878  20.136  0.00  0.00    +0.000 C 
ATOM      3  N   UNL     1       1.697   6.142  21.109  0.00  0.00    +0.000 N 
ATOM      4  C   UNL     1       1.102   7.364  21.072  0.00  0.00    +0.000 C 
ATOM      5  O   UNL     1       0.331   7.746  21.943  0.00  0.00    +0.000 OA
ATOM      6  C   UNL     1       1.634   7.941  19.876  0.00  0.00    +0.000 A 
ATOM      7  C   UNL     1       2.544   7.025  19.254  0.00  0.00    +0.000 A 
ATOM      8  C   UNL     1       3.218   7.260  18.033  0.00  0.00    +0.000 A 
ATOM      9  C   UNL     1       2.972   8.517  17.434  0.00  0.00    +0.000 A 
ATOM     10  C   UNL     1       2.116   9.420  18.054  0.00  0.00    +0.000 A 
ATOM     11  N   UNL     1       1.719  10.690  17.707  0.00  0.00    +0.000 N 
ATOM     12  C   UNL     1       0.834  11.203  18.641  0.00  0.00    +0.000 A 
ATOM     13  C   UNL     1       0.201  12.454  18.655  0.00  0.00    +0.000 A 
ATOM     14  C   UNL     1      -0.662  12.736  19.715  0.00  0.00    +0.000 A 
ATOM     15  C   UNL     1      -0.870  11.796  20.715  0.00  0.00    +0.000 A 
ATOM     16  C   UNL     1      -0.234  10.551  20.700  0.00  0.00    +0.000 A 
ATOM     17  C   UNL     1       0.640  10.234  19.642  0.00  0.00    +0.000 A 
ATOM     18  C   UNL     1       1.452   9.179  19.220  0.00  0.00    +0.000 A 
ATOM     19  H   UNL     1       1.557   5.511  21.878  0.00  0.00    +0.000 HD
ATOM     20  H   UNL     1       2.029  11.187  16.883  0.00  0.00    +0.000 HD
ENDROOT
BRANCH   8  21
ATOM     21  C   UNL     1       4.113   6.284  17.372  0.00  0.00    +0.000 A 
ATOM     22  C   UNL     1       3.693   4.947  17.185  0.00  0.00    +0.000 A 
ATOM     23  C   UNL     1       4.535   3.969  16.642  0.00  0.00    +0.000 A 
ATOM     24  C   UNL     1       5.819   4.308  16.236  0.00  0.00    +0.000 A 
ATOM     25  C   UNL     1       6.252   5.615  16.404  0.00  0.00    +0.000 A 
ATOM     26  C   UNL     1       5.429   6.582  16.985  0.00  0.00    +0.000 A 
BRANCH  25  27
ATOM     27  O   UNL     1       7.505   5.998  16.023  0.00  0.00    +0.000 OA
ATOM     28  H   UNL     1       8.146   5.640  16.659  0.00  0.00    +0.000 HD
ENDBRANCH  25  27
ENDBRANCH   8  21
BRANCH  15  29
ATOM     29  O   UNL     1      -1.714  12.056  21.757  0.00  0.00    +0.000 OA
ATOM     30  H   UNL     1      -1.545  12.955  22.077  0.00  0.00    +0.000 HD
ENDBRANCH  15  29
TORSDOF 3
ENDMDL
MODEL 4
REMARK VINA RESULT:      -7.6      3.270      5.049
REMARK  Name = 
REMARK  3 active torsions:
REMARK  status: ('A' for Active; 'I' for Inactive)
REMARK    1  A    between atoms: C_8  and  C_9
REMARK    2  A    between atoms: C_13  and  O_14
REMARK    3  A    between atoms: C_22  and  O_23
REMARK                            x       y       z     vdW  Elec       q    Type
REMARK                         _______ _______ _______ _____ _____    ______ ____
ROOT
ATOM      1  O   UNL     1       2.968   7.941  16.968  0.00  0.00    +0.000 OA
ATOM      2  C   UNL     1       2.428   8.666  17.793  0.00  0.00    +0.000 C 
ATOM      3  N   UNL     1       2.216   9.996  17.544  0.00  0.00    +0.000 N 
ATOM      4  C   UNL     1       1.467  10.676  18.452  0.00  0.00    +0.000 C 
ATOM      5  O   UNL     1       1.133  11.842  18.286  0.00  0.00    +0.000 OA
ATOM      6  C   UNL     1       1.232   9.698  19.469  0.00  0.00    +0.000 A 
ATOM      7  C   UNL     1       1.853   8.458  19.107  0.00  0.00    +0.000 A 
ATOM      8  C   UNL     1       1.852   7.291  19.906  0.00  0.00    +0.000 A 
ATOM      9  C   UNL     1       1.146   7.389  21.127  0.00  0.00    +0.000 A 
ATOM     10  C   UNL     1       0.514   8.582  21.464  0.00  0.00    +0.000 A 
ATOM     11  N   UNL     1      -0.237   8.941  22.558  0.00  0.00    +0.000 N 
ATOM     12  C   UNL     1      -0.656  10.258  22.457  0.00  0.00    +0.000 A 
ATOM     13  C   UNL     1      -1.433  11.002  23.356  0.00  0.00    +0.000 A 
ATOM     14  C   UNL     1      -1.718  12.329  23.028  0.00  0.00    +0.000 A 
ATOM     15  C   UNL     1      -1.242  12.872  21.843  0.00  0.00    +0.000 A 
ATOM     16  C   UNL     1      -0.471  12.127  20.947  0.00  0.00    +0.000 A 
ATOM     17  C   UNL     1      -0.161  10.787  21.251  0.00  0.00    +0.000 A 
ATOM     18  C   UNL     1       0.537   9.711  20.699  0.00  0.00    +0.000 A 
ATOM     19  H   UNL     1       2.499  10.413  16.675  0.00  0.00    +0.000 HD
ATOM     20  H   UNL     1      -0.457   8.331  23.333  0.00  0.00    +0.000 HD
ENDROOT
BRANCH   8  21
ATOM     21  C   UNL     1       2.543   6.033  19.547  0.00  0.00    +0.000 A 
ATOM     22  C   UNL     1       1.796   4.869  19.257  0.00  0.00    +0.000 A 
ATOM     23  C   UNL     1       2.405   3.636  18.996  0.00  0.00    +0.000 A 
ATOM     24  C   UNL     1       3.789   3.536  18.982  0.00  0.00    +0.000 A 
ATOM     25  C   UNL     1       4.546   4.666  19.257  0.00  0.00    +0.000 A 
ATOM     26  C   UNL     1       3.939   5.886  19.561  0.00  0.00    +0.000 A 
BRANCH  25  27
ATOM     27  O   UNL     1       5.909   4.620  19.258  0.00  0.00    +0.000 OA
ATOM     28  H   UNL     1       6.220   4.582  18.339  0.00  0.00    +0.000 HD
ENDBRANCH  25  27
ENDBRANCH   8  21
BRANCH  15  29
ATOM     29  O   UNL     1      -1.510  14.170  21.509  0.00  0.00    +0.000 OA
ATOM     30  H   UNL     1      -0.739  14.714  21.732  0.00  0.00    +0.000 HD
ENDBRANCH  15  29
TORSDOF 3
ENDMDL
MODEL 5
REMARK VINA RESULT:      -7.5      3.142      4.800
REMARK  Name = 
REMARK  3 active torsions:
REMARK  status: ('A' for Active; 'I' for Inactive)
REMARK    1  A    between atoms: C_8  and  C_9
REMARK    2  A    between atoms: C_13  and  O_14
REMARK    3  A    between atoms: C_22  and  O_23
REMARK                            x       y       z     vdW  Elec       q    Type
REMARK                         _______ _______ _______ _____ _____    ______ ____
ROOT
ATOM      1  O   UNL     1       3.021   8.103  16.820  0.00  0.00    +0.000 OA
ATOM      2  C   UNL     1       2.485   8.782  17.687  0.00  0.00    +0.000 C 
ATOM      3  N   UNL     1       2.290  10.127  17.521  0.00  0.00    +0.000 N 
ATOM      4  C   UNL     1       1.545  10.758  18.467  0.00  0.00    +0.000 C 
ATOM      5  O   UNL     1       1.226  11.936  18.374  0.00  0.00    +0.000 OA
ATOM      6  C   UNL     1       1.295   9.721  19.420  0.00  0.00    +0.000 A 
ATOM      7  C   UNL     1       1.902   8.499  18.983  0.00  0.00    +0.000 A 
ATOM      8  C   UNL     1       1.885   7.284  19.707  0.00  0.00    +0.000 A 
ATOM      9  C   UNL     1       1.175   7.314  20.930  0.00  0.00    +0.000 A 
ATOM     10  C   UNL     1       0.556   8.491  21.338  0.00  0.00    +0.000 A 
ATOM     11  N   UNL     1      -0.196   8.790  22.450  0.00  0.00    +0.000 N 
ATOM     12  C   UNL     1      -0.599  10.115  22.431  0.00  0.00    +0.000 A 
ATOM     13  C   UNL     1      -1.371  10.811  23.372  0.00  0.00    +0.000 A 
ATOM     14  C   UNL     1      -1.639  12.159  23.126  0.00  0.00    +0.000 A 
ATOM     15  C   UNL     1      -1.151  12.770  21.980  0.00  0.00    +0.000 A 
ATOM     16  C   UNL     1      -0.385  12.073  21.042  0.00  0.00    +0.000 A 
ATOM     17  C   UNL     1      -0.092  10.712  21.262  0.00  0.00    +0.000 A 
ATOM     18  C   UNL     1       0.595   9.665  20.646  0.00  0.00    +0.000 A 
ATOM     19  H   UNL     1       2.581  10.594  16.681  0.00  0.00    +0.000 HD
ATOM     20  H   UNL     1      -0.426   8.135  23.185  0.00  0.00    +0.000 HD
ENDROOT
BRANCH   8  21
ATOM     21  C   UNL     1       2.563   6.042  19.272  0.00  0.00    +0.000 A 
ATOM     22  C   UNL     1       3.900   5.791  19.656  0.00  0.00    +0.000 A 
ATOM     23  C   UNL     1       4.610   4.673  19.200  0.00  0.00    +0.000 A 
ATOM     24  C   UNL     1       3.989   3.750  18.370  0.00  0.00    +0.000 A 
ATOM     25  C   UNL     1       2.675   3.971  17.985  0.00  0.00    +0.000 A 
ATOM     26  C   UNL     1       1.980   5.107  18.403  0.00  0.00    +0.000 A 
BRANCH  25  27
ATOM     27  O   UNL     1       2.021   3.095  17.169  0.00  0.00    +0.000 OA
ATOM     28  H   UNL     1       2.369   3.190  16.267  0.00  0.00    +0.000 HD
ENDBRANCH  25  27
ENDBRANCH   8  21
BRANCH  15  29
ATOM     29  O   UNL     1      -1.403  14.088  21.727  0.00  0.00    +0.000 OA
ATOM     30  H   UNL     1      -1.295  14.589  22.550  0.00  0.00    +0.000 HD
ENDBRANCH  15  29
TORSDOF 3
ENDMDL
MODEL 6
REMARK VINA RESULT:      -7.5      1.581      1.955
REMARK  Name = 
REMARK  3 active torsions:
REMARK  status: ('A' for Active; 'I' for Inactive)
REMARK    1  A    between atoms: C_8  and  C_9
REMARK    2  A    between atoms: C_13  and  O_14
REMARK    3  A    between atoms: C_22  and  O_23
REMARK                            x       y       z     vdW  Elec       q    Type
REMARK                         _______ _______ _______ _____ _____    ______ ____
ROOT
ATOM      1  O   UNL     1       4.318   4.072  19.635  0.00  0.00    +0.000 OA
ATOM      2  C   UNL     1       3.548   5.023  19.662  0.00  0.00    +0.000 C 
ATOM      3  N   UNL     1       2.590   5.138  20.634  0.00  0.00    +0.000 N 
ATOM      4  C   UNL     1       1.895   6.306  20.671  0.00  0.00    +0.000 C 
ATOM      5  O   UNL     1       1.083   6.559  21.552  0.00  0.00    +0.000 OA
ATOM      6  C   UNL     1       2.391   7.010  19.528  0.00  0.00    +0.000 A 
ATOM      7  C   UNL     1       3.383   6.220  18.861  0.00  0.00    +0.000 A 
ATOM      8  C   UNL     1       4.050   6.596  17.672  0.00  0.00    +0.000 A 
ATOM      9  C   UNL     1       3.707   7.869  17.158  0.00  0.00    +0.000 A 
ATOM     10  C   UNL     1       2.770   8.651  17.825  0.00  0.00    +0.000 A 
ATOM     11  N   UNL     1       2.272   9.904  17.560  0.00  0.00    +0.000 N 
ATOM     12  C   UNL     1       1.335  10.274  18.511  0.00  0.00    +0.000 A 
ATOM     13  C   UNL     1       0.598  11.463  18.601  0.00  0.00    +0.000 A 
ATOM     14  C   UNL     1      -0.300  11.596  19.662  0.00  0.00    +0.000 A 
ATOM     15  C   UNL     1      -0.440  10.572  20.589  0.00  0.00    +0.000 A 
ATOM     16  C   UNL     1       0.298   9.390  20.499  0.00  0.00    +0.000 A 
ATOM     17  C   UNL     1       1.210   9.222  19.438  0.00  0.00    +0.000 A 
ATOM     18  C   UNL     1       2.114   8.272  18.958  0.00  0.00    +0.000 A 
ATOM     19  H   UNL     1       2.494   4.445  21.354  0.00  0.00    +0.000 HD
ATOM     20  H   UNL     1       2.549  10.483  16.779  0.00  0.00    +0.000 HD
ENDROOT
BRANCH   8  21
ATOM     21  C   UNL     1       5.033   5.749  16.961  0.00  0.00    +0.000 A 
ATOM     22  C   UNL     1       4.777   5.319  15.639  0.00  0.00    +0.000 A 
ATOM     23  C   UNL     1       5.635   4.449  14.957  0.00  0.00    +0.000 A 
ATOM     24  C   UNL     1       6.801   4.005  15.568  0.00  0.00    +0.000 A 
ATOM     25  C   UNL     1       7.078   4.418  16.863  0.00  0.00    +0.000 A 
ATOM     26  C   UNL     1       6.201   5.251  17.560  0.00  0.00    +0.000 A 
BRANCH  25  27
ATOM     27  O   UNL     1       8.208   4.009  17.508  0.00  0.00    +0.000 OA
ATOM     28  H   UNL     1       8.540   3.205  17.075  0.00  0.00    +0.000 HD
ENDBRANCH  25  27
ENDBRANCH   8  21
BRANCH  15  29
ATOM     29  O   UNL     1      -1.316  10.686  21.631  0.00  0.00    +0.000 OA
ATOM     30  H   UNL     1      -1.427   9.814  22.041  0.00  0.00    +0.000 HD
ENDBRANCH  15  29
TORSDOF 3
ENDMDL
MODEL 7
REMARK VINA RESULT:      -7.5      9.163     11.740
REMARK  Name = 
REMARK  3 active torsions:
REMARK  status: ('A' for Active; 'I' for Inactive)
REMARK    1  A    between atoms: C_8  and  C_9
REMARK    2  A    between atoms: C_13  and  O_14
REMARK    3  A    between atoms: C_22  and  O_23
REMARK                            x       y       z     vdW  Elec       q    Type
REMARK                         _______ _______ _______ _____ _____    ______ ____
ROOT
ATOM      1  O   UNL     1       6.551  15.435  23.695  0.00  0.00    +0.000 OA
ATOM      2  C   UNL     1       7.149  15.170  22.660  0.00  0.00    +0.000 C 
ATOM      3  N   UNL     1       7.220  16.066  21.627  0.00  0.00    +0.000 N 
ATOM      4  C   UNL     1       8.038  15.741  20.591  0.00  0.00    +0.000 C 
ATOM      5  O   UNL     1       8.254  16.506  19.660  0.00  0.00    +0.000 OA
ATOM      6  C   UNL     1       8.492  14.430  20.942  0.00  0.00    +0.000 A 
ATOM      7  C   UNL     1       7.922  14.035  22.195  0.00  0.00    +0.000 A 
ATOM      8  C   UNL     1       8.127  12.782  22.817  0.00  0.00    +0.000 A 
ATOM      9  C   UNL     1       8.993  11.897  22.133  0.00  0.00    +0.000 A 
ATOM     10  C   UNL     1       9.574  12.293  20.933  0.00  0.00    +0.000 A 
ATOM     11  N   UNL     1      10.446  11.653  20.084  0.00  0.00    +0.000 N 
ATOM     12  C   UNL     1      10.744  12.449  18.990  0.00  0.00    +0.000 A 
ATOM     13  C   UNL     1      11.585  12.168  17.904  0.00  0.00    +0.000 A 
ATOM     14  C   UNL     1      11.717  13.143  16.913  0.00  0.00    +0.000 A 
ATOM     15  C   UNL     1      11.034  14.346  17.022  0.00  0.00    +0.000 A 
ATOM     16  C   UNL     1      10.200  14.625  18.108  0.00  0.00    +0.000 A 
ATOM     17  C   UNL     1      10.041  13.661  19.123  0.00  0.00    +0.000 A 
ATOM     18  C   UNL     1       9.355  13.495  20.327  0.00  0.00    +0.000 A 
ATOM     19  H   UNL     1       6.783  16.968  21.691  0.00  0.00    +0.000 HD
ATOM     20  H   UNL     1      10.822  10.727  20.234  0.00  0.00    +0.000 HD
ENDROOT
BRANCH   8  21
ATOM     21  C   UNL     1       7.490  12.363  24.085  0.00  0.00    +0.000 A 
ATOM     22  C   UNL     1       8.058  12.738  25.324  0.00  0.00    +0.000 A 
ATOM     23  C   UNL     1       7.540  12.296  26.547  0.00  0.00    +0.000 A 
ATOM     24  C   UNL     1       6.410  11.490  26.571  0.00  0.00    +0.000 A 
ATOM     25  C   UNL     1       5.830  11.113  25.368  0.00  0.00    +0.000 A 
ATOM     26  C   UNL     1       6.371  11.517  24.146  0.00  0.00    +0.000 A 
BRANCH  25  27
ATOM     27  O   UNL     1       4.721  10.320  25.337  0.00  0.00    +0.000 OA
ATOM     28  H   UNL     1       4.735   9.797  24.519  0.00  0.00    +0.000 HD
ENDBRANCH  25  27
ENDBRANCH   8  21
BRANCH  15  29
ATOM     29  O   UNL     1      11.151  15.308  16.059  0.00  0.00    +0.000 OA
ATOM     30  H   UNL     1      11.906  15.876  16.277  0.00  0.00    +0.000 HD
ENDBRANCH  15  29
TORSDOF 3
ENDMDL
MODEL 8
REMARK VINA RESULT:      -7.4      2.302      3.841
REMARK  Name = 
REMARK  3 active torsions:
REMARK  status: ('A' for Active; 'I' for Inactive)
REMARK    1  A    between atoms: C_8  and  C_9
REMARK    2  A    between atoms: C_13  and  O_14
REMARK    3  A    between atoms: C_22  and  O_23
REMARK                            x       y       z     vdW  Elec       q    Type
REMARK                         _______ _______ _______ _____ _____    ______ ____
ROOT
ATOM      1  O   UNL     1       1.873   5.553  20.982  0.00  0.00    +0.000 OA
ATOM      2  C   UNL     1       1.501   6.703  20.790  0.00  0.00    +0.000 C 
ATOM      3  N   UNL     1       0.682   7.346  21.679  0.00  0.00    +0.000 N 
ATOM      4  C   UNL     1       0.458   8.668  21.458  0.00  0.00    +0.000 C 
ATOM      5  O   UNL     1      -0.178   9.366  22.238  0.00  0.00    +0.000 OA
ATOM      6  C   UNL     1       1.137   8.905  20.221  0.00  0.00    +0.000 A 
ATOM      7  C   UNL     1       1.754   7.695  19.764  0.00  0.00    +0.000 A 
ATOM      8  C   UNL     1       2.473   7.563  18.553  0.00  0.00    +0.000 A 
ATOM      9  C   UNL     1       2.596   8.744  17.786  0.00  0.00    +0.000 A 
ATOM     10  C   UNL     1       2.027   9.927  18.246  0.00  0.00    +0.000 A 
ATOM     11  N   UNL     1       2.008  11.197  17.721  0.00  0.00    +0.000 N 
ATOM     12  C   UNL     1       1.300  12.060  18.541  0.00  0.00    +0.000 A 
ATOM     13  C   UNL     1       1.046  13.428  18.365  0.00  0.00    +0.000 A 
ATOM     14  C   UNL     1       0.292  14.082  19.341  0.00  0.00    +0.000 A 
ATOM     15  C   UNL     1      -0.178  13.383  20.444  0.00  0.00    +0.000 A 
ATOM     16  C   UNL     1       0.079  12.020  20.619  0.00  0.00    +0.000 A 
ATOM     17  C   UNL     1       0.833  11.330  19.650  0.00  0.00    +0.000 A 
ATOM     18  C   UNL     1       1.316  10.043  19.404  0.00  0.00    +0.000 A 
ATOM     19  H   UNL     1       0.365   6.890  22.517  0.00  0.00    +0.000 HD
ATOM     20  H   UNL     1       2.450  11.470  16.853  0.00  0.00    +0.000 HD
ENDROOT
BRANCH   8  21
ATOM     21  C   UNL     1       3.059   6.295  18.064  0.00  0.00    +0.000 A 
ATOM     22  C   UNL     1       4.431   6.228  17.730  0.00  0.00    +0.000 A 
ATOM     23  C   UNL     1       5.011   5.077  17.184  0.00  0.00    +0.000 A 
ATOM     24  C   UNL     1       4.241   3.940  16.986  0.00  0.00    +0.000 A 
ATOM     25  C   UNL     1       2.892   3.978  17.312  0.00  0.00    +0.000 A 
ATOM     26  C   UNL     1       2.302   5.139  17.815  0.00  0.00    +0.000 A 
BRANCH  25  27
ATOM     27  O   UNL     1       2.092   2.888  17.134  0.00  0.00    +0.000 OA
ATOM     28  H   UNL     1       1.538   2.776  17.924  0.00  0.00    +0.000 HD
ENDBRANCH  25  27
ENDBRANCH   8  21
BRANCH  15  29
ATOM     29  O   UNL     1      -0.920  14.008  21.406  0.00  0.00    +0.000 OA
ATOM     30  H   UNL     1      -1.487  13.351  21.839  0.00  0.00    +0.000 HD
ENDBRANCH  15  29
TORSDOF 3
ENDMDL
MODEL 9
REMARK VINA RESULT:      -7.4      2.160      7.068
REMARK  Name = 
REMARK  3 active torsions:
REMARK  status: ('A' for Active; 'I' for Inactive)
REMARK    1  A    between atoms: C_8  and  C_9
REMARK    2  A    between atoms: C_13  and  O_14
REMARK    3  A    between atoms: C_22  and  O_23
REMARK                            x       y       z     vdW  Elec       q    Type
REMARK                         _______ _______ _______ _____ _____    ______ ____
ROOT
ATOM      1  O   UNL     1      -0.324   9.371  21.292  0.00  0.00    +0.000 OA
ATOM      2  C   UNL     1       0.554   8.627  20.875  0.00  0.00    +0.000 C 
ATOM      3  N   UNL     1       0.917   7.498  21.559  0.00  0.00    +0.000 N 
ATOM      4  C   UNL     1       1.784   6.657  20.935  0.00  0.00    +0.000 C 
ATOM      5  O   UNL     1       2.105   5.574  21.407  0.00  0.00    +0.000 OA
ATOM      6  C   UNL     1       2.103   7.363  19.731  0.00  0.00    +0.000 A 
ATOM      7  C   UNL     1       1.389   8.604  19.690  0.00  0.00    +0.000 A 
ATOM      8  C   UNL     1       1.502   9.567  18.660  0.00  0.00    +0.000 A 
ATOM      9  C   UNL     1       2.367   9.222  17.596  0.00  0.00    +0.000 A 
ATOM     10  C   UNL     1       3.034   8.002  17.619  0.00  0.00    +0.000 A 
ATOM     11  N   UNL     1       3.904   7.419  16.728  0.00  0.00    +0.000 N 
ATOM     12  C   UNL     1       4.325   6.182  17.188  0.00  0.00    +0.000 A 
ATOM     13  C   UNL     1       5.208   5.275  16.583  0.00  0.00    +0.000 A 
ATOM     14  C   UNL     1       5.482   4.084  17.257  0.00  0.00    +0.000 A 
ATOM     15  C   UNL     1       4.886   3.823  18.483  0.00  0.00    +0.000 A 
ATOM     16  C   UNL     1       4.004   4.727  19.082  0.00  0.00    +0.000 A 
ATOM     17  C   UNL     1       3.710   5.941  18.430  0.00  0.00    +0.000 A 
ATOM     18  C   UNL     1       2.938   7.087  18.625  0.00  0.00    +0.000 A 
ATOM     19  H   UNL     1       0.470   7.247  22.423  0.00  0.00    +0.000 HD
ATOM     20  H   UNL     1       4.199   7.833  15.854  0.00  0.00    +0.000 HD
ENDROOT
BRANCH   8  21
ATOM     21  C   UNL     1       0.802  10.871  18.655  0.00  0.00    +0.000 A 
ATOM     22  C   UNL     1       1.460  12.033  19.120  0.00  0.00    +0.000 A 
ATOM     23  C   UNL     1       0.812  13.271  19.213  0.00  0.00    +0.000 A 
ATOM     24  C   UNL     1      -0.511  13.393  18.810  0.00  0.00    +0.000 A 
ATOM     25  C   UNL     1      -1.176  12.268  18.344  0.00  0.00    +0.000 A 
ATOM     26  C   UNL     1      -0.545  11.024  18.291  0.00  0.00    +0.000 A 
BRANCH  25  27
ATOM     27  O   UNL     1      -2.477  12.335  17.938  0.00  0.00    +0.000 OA
ATOM     28  H   UNL     1      -2.873  13.146  18.295  0.00  0.00    +0.000 HD
ENDBRANCH  25  27
ENDBRANCH   8  21
BRANCH  15  29
ATOM     29  O   UNL     1       5.147   2.663  19.156  0.00  0.00    +0.000 OA
ATOM     30  H   UNL     1       6.106   2.574  19.263  0.00  0.00    +0.000 HD
ENDBRANCH  15  29
TORSDOF 3
ENDMDL
