MODEL 1
REMARK VINA RESULT:      -7.0      0.000      0.000
REMARK  Name = 
REMARK  6 active torsions:
REMARK  status: ('A' for Active; 'I' for Inactive)
REMARK    1  A    between atoms: C_1  and  C_2
REMARK    2  A    between atoms: C_4  and  C_5
REMARK    3  A    between atoms: C_8  and  N_9
REMARK    4  A    between atoms: C_15  and  O_16
REMARK    5  A    between atoms: C_17  and  O_18
REMARK    6  A    between atoms: C_19  and  O_20
REMARK                            x       y       z     vdW  Elec       q    Type
REMARK                         _______ _______ _______ _____ _____    ______ ____
ROOT
ATOM      1  C   UNL     1       5.430   5.688  15.208  0.00  0.00    +0.000 C 
ATOM      2  C   UNL     1       5.826   5.607  16.680  0.00  0.00    +0.000 C 
ATOM      3  O   UNL     1       5.010   6.474  17.490  0.00  0.00    +0.000 OA
ATOM      4  C   UNL     1       3.636   6.055  17.646  0.00  0.00    +0.000 C 
ATOM      5  C   UNL     1       3.581   4.648  18.281  0.00  0.00    +0.000 C 
ATOM      6  C   UNL     1       4.379   3.670  17.408  0.00  0.00    +0.000 C 
ATOM      7  C   UNL     1       5.824   4.163  17.210  0.00  0.00    +0.000 C 
ENDROOT
BRANCH   4   8
ATOM      8  C   UNL     1       2.843   7.047  18.463  0.00  0.00    +0.000 A 
ATOM      9  N   UNL     1       2.414   8.246  17.952  0.00  0.00    +0.000 NA
ATOM     10  C   UNL     1       1.717   8.767  18.945  0.00  0.00    +0.000 A 
ATOM     11  C   UNL     1       0.998  10.011  19.065  0.00  0.00    +0.000 A 
ATOM     12  C   UNL     1       0.416  10.292  20.253  0.00  0.00    +0.000 A 
ATOM     13  C   UNL     1       0.449   9.374  21.380  0.00  0.00    +0.000 A 
ATOM     14  C   UNL     1       1.107   8.205  21.248  0.00  0.00    +0.000 A 
ATOM     15  N   UNL     1       1.741   7.909  20.045  0.00  0.00    +0.000 N 
ATOM     16  N   UNL     1       2.440   6.788  19.721  0.00  0.00    +0.000 NA
BRANCH  11  17
ATOM     17  N   UNL     1       0.916  10.871  17.984  0.00  0.00    +0.000 N 
ATOM     18  H   UNL     1       1.136  10.404  17.106  0.00  0.00    +0.000 HD
ATOM     19  H   UNL     1       1.397  11.756  18.108  0.00  0.00    +0.000 HD
ENDBRANCH  11  17
ENDBRANCH   4   8
BRANCH   5  20
ATOM     20  O   UNL     1       4.185   4.625  19.598  0.00  0.00    +0.000 OA
ATOM     21  H   UNL     1       5.098   4.972  19.499  0.00  0.00    +0.000 HD
ENDBRANCH   5  20
BRANCH   6  22
ATOM     22  O   UNL     1       4.378   2.371  18.009  0.00  0.00    +0.000 OA
ATOM     23  H   UNL     1       5.029   2.439  18.739  0.00  0.00    +0.000 HD
ENDBRANCH   6  22
BRANCH   7  24
ATOM     24  O   UNL     1       6.556   4.122  18.447  0.00  0.00    +0.000 OA
ATOM     25  H   UNL     1       5.923   4.356  19.156  0.00  0.00    +0.000 HD
ENDBRANCH   7  24
TORSDOF 5
ENDMDL
MODEL 2
REMARK VINA RESULT:      -6.9      1.568      2.278
REMARK  Name = 
REMARK  6 active torsions:
REMARK  status: ('A' for Active; 'I' for Inactive)
REMARK    1  A    between atoms: C_1  and  C_2
REMARK    2  A    between atoms: C_4  and  C_5
REMARK    3  A    between atoms: C_8  and  N_9
REMARK    4  A    between atoms: C_15  and  O_16
REMARK    5  A    between atoms: C_17  and  O_18
REMARK    6  A    between atoms: C_19  and  O_20
REMARK                            x       y       z     vdW  Elec       q    Type
REMARK                         _______ _______ _______ _____ _____    ______ ____
ROOT
ATOM      1  C   UNL     1       2.138   2.325  18.817  0.00  0.00    +0.000 C 
ATOM      2  C   UNL     1       2.641   3.357  17.810  0.00  0.00    +0.000 C 
ATOM      3  O   UNL     1       2.206   4.685  18.159  0.00  0.00    +0.000 OA
ATOM      4  C   UNL     1       2.836   5.249  19.331  0.00  0.00    +0.000 C 
ATOM      5  C   UNL     1       4.368   5.303  19.133  0.00  0.00    +0.000 C 
ATOM      6  C   UNL     1       4.888   3.892  18.831  0.00  0.00    +0.000 C 
ATOM      7  C   UNL     1       4.165   3.288  17.612  0.00  0.00    +0.000 C 
ENDROOT
BRANCH   4   8
ATOM      8  C   UNL     1       2.285   6.617  19.653  0.00  0.00    +0.000 A 
ATOM      9  N   UNL     1       2.275   7.640  18.740  0.00  0.00    +0.000 NA
ATOM     10  C   UNL     1       1.660   8.616  19.383  0.00  0.00    +0.000 A 
ATOM     11  C   UNL     1       1.324   9.962  18.992  0.00  0.00    +0.000 A 
ATOM     12  C   UNL     1       0.729  10.756  19.910  0.00  0.00    +0.000 A 
ATOM     13  C   UNL     1       0.379  10.290  21.243  0.00  0.00    +0.000 A 
ATOM     14  C   UNL     1       0.682   9.023  21.589  0.00  0.00    +0.000 A 
ATOM     15  N   UNL     1       1.323   8.197  20.671  0.00  0.00    +0.000 N 
ATOM     16  N   UNL     1       1.698   6.899  20.830  0.00  0.00    +0.000 NA
BRANCH  11  17
ATOM     17  N   UNL     1       1.604  10.402  17.711  0.00  0.00    +0.000 N 
ATOM     18  H   UNL     1       2.061   9.684  17.150  0.00  0.00    +0.000 HD
ATOM     19  H   UNL     1       2.060  11.308  17.663  0.00  0.00    +0.000 HD
ENDBRANCH  11  17
ENDBRANCH   4   8
BRANCH   5  20
ATOM     20  O   UNL     1       4.738   6.138  18.007  0.00  0.00    +0.000 OA
ATOM     21  H   UNL     1       4.166   5.871  17.254  0.00  0.00    +0.000 HD
ENDBRANCH   5  20
BRANCH   6  22
ATOM     22  O   UNL     1       6.299   3.934  18.597  0.00  0.00    +0.000 OA
ATOM     23  H   UNL     1       6.385   4.264  17.678  0.00  0.00    +0.000 HD
ENDBRANCH   6  22
BRANCH   7  24
ATOM     24  O   UNL     1       4.508   3.996  16.408  0.00  0.00    +0.000 OA
ATOM     25  H   UNL     1       5.445   4.267  16.498  0.00  0.00    +0.000 HD
ENDBRANCH   7  24
TORSDOF 5
ENDMDL
MODEL 3
REMARK VINA RESULT:      -6.9      1.087      1.383
REMARK  Name = 
REMARK  6 active torsions:
REMARK  status: ('A' for Active; 'I' for Inactive)
REMARK    1  A    between atoms: C_1  and  C_2
REMARK    2  A    between atoms: C_4  and  C_5
REMARK    3  A    between atoms: C_8  and  N_9
REMARK    4  A    between atoms: C_15  and  O_16
REMARK    5  A    between atoms: C_17  and  O_18
REMARK    6  A    between atoms: C_19  and  O_20
REMARK                            x       y       z     vdW  Elec       q    Type
REMARK                         _______ _______ _______ _____ _____    ______ ____
ROOT
ATOM      1  C   UNL     1       5.350   4.562  16.177  0.00  0.00    +0.000 C 
ATOM      2  C   UNL     1       5.061   4.188  17.629  0.00  0.00    +0.000 C 
ATOM      3  O   UNL     1       4.432   5.273  18.335  0.00  0.00    +0.000 OA
ATOM      4  C   UNL     1       3.069   5.552  17.943  0.00  0.00    +0.000 C 
ATOM      5  C   UNL     1       2.191   4.297  18.151  0.00  0.00    +0.000 C 
ATOM      6  C   UNL     1       2.785   3.128  17.354  0.00  0.00    +0.000 C 
ATOM      7  C   UNL     1       4.254   2.883  17.748  0.00  0.00    +0.000 C 
ENDROOT
BRANCH   4   8
ATOM      8  C   UNL     1       2.507   6.735  18.695  0.00  0.00    +0.000 A 
ATOM      9  N   UNL     1       2.211   7.924  18.080  0.00  0.00    +0.000 NA
ATOM     10  C   UNL     1       1.691   8.649  19.053  0.00  0.00    +0.000 A 
ATOM     11  C   UNL     1       1.174   9.995  19.080  0.00  0.00    +0.000 A 
ATOM     12  C   UNL     1       0.751  10.485  20.266  0.00  0.00    +0.000 A 
ATOM     13  C   UNL     1       0.754   9.697  21.488  0.00  0.00    +0.000 A 
ATOM     14  C   UNL     1       1.221   8.434  21.446  0.00  0.00    +0.000 A 
ATOM     15  N   UNL     1       1.692   7.918  20.242  0.00  0.00    +0.000 N 
ATOM     16  N   UNL     1       2.188   6.674  20.001  0.00  0.00    +0.000 NA
BRANCH  11  17
ATOM     17  N   UNL     1       1.118  10.738  17.914  0.00  0.00    +0.000 N 
ATOM     18  H   UNL     1       0.178  10.763  17.520  0.00  0.00    +0.000 HD
ATOM     19  H   UNL     1       1.839  10.517  17.235  0.00  0.00    +0.000 HD
ENDBRANCH  11  17
ENDBRANCH   4   8
BRANCH   5  20
ATOM     20  O   UNL     1       2.159   3.885  19.541  0.00  0.00    +0.000 OA
ATOM     21  H   UNL     1       3.051   4.063  19.912  0.00  0.00    +0.000 HD
ENDBRANCH   5  20
BRANCH   6  22
ATOM     22  O   UNL     1       2.010   1.946  17.576  0.00  0.00    +0.000 OA
ATOM     23  H   UNL     1       2.376   1.565  18.403  0.00  0.00    +0.000 HD
ENDBRANCH   6  22
BRANCH   7  24
ATOM     24  O   UNL     1       4.350   2.401  19.099  0.00  0.00    +0.000 OA
ATOM     25  H   UNL     1       4.063   1.465  19.086  0.00  0.00    +0.000 HD
ENDBRANCH   7  24
TORSDOF 5
ENDMDL
MODEL 4
REMARK VINA RESULT:      -6.8      2.144      3.610
REMARK  Name = 
REMARK  6 active torsions:
REMARK  status: ('A' for Active; 'I' for Inactive)
REMARK    1  A    between atoms: C_1  and  C_2
REMARK    2  A    between atoms: C_4  and  C_5
REMARK    3  A    between atoms: C_8  and  N_9
REMARK    4  A    between atoms: C_15  and  O_16
REMARK    5  A    between atoms: C_17  and  O_18
REMARK    6  A    between atoms: C_19  and  O_20
REMARK                            x       y       z     vdW  Elec       q    Type
REMARK                         _______ _______ _______ _____ _____    ______ ____
ROOT
ATOM      1  C   UNL     1       1.888   2.602  21.761  0.00  0.00    +0.000 C 
ATOM      2  C   UNL     1       1.410   2.820  20.328  0.00  0.00    +0.000 C 
ATOM      3  O   UNL     1       1.189   4.217  20.056  0.00  0.00    +0.000 OA
ATOM      4  C   UNL     1       2.386   5.023  19.975  0.00  0.00    +0.000 C 
ATOM      5  C   UNL     1       3.316   4.480  18.866  0.00  0.00    +0.000 C 
ATOM      6  C   UNL     1       3.639   3.009  19.156  0.00  0.00    +0.000 C 
ATOM      7  C   UNL     1       2.350   2.178  19.292  0.00  0.00    +0.000 C 
ENDROOT
BRANCH   4   8
ATOM      8  C   UNL     1       2.059   6.479  19.740  0.00  0.00    +0.000 A 
ATOM      9  N   UNL     1       1.485   7.268  20.703  0.00  0.00    +0.000 NA
ATOM     10  C   UNL     1       1.433   8.457  20.131  0.00  0.00    +0.000 A 
ATOM     11  C   UNL     1       0.943   9.729  20.599  0.00  0.00    +0.000 A 
ATOM     12  C   UNL     1       0.978  10.774  19.742  0.00  0.00    +0.000 A 
ATOM     13  C   UNL     1       1.529  10.671  18.401  0.00  0.00    +0.000 A 
ATOM     14  C   UNL     1       2.002   9.481  17.981  0.00  0.00    +0.000 A 
ATOM     15  N   UNL     1       1.948   8.383  18.835  0.00  0.00    +0.000 N 
ATOM     16  N   UNL     1       2.379   7.115  18.598  0.00  0.00    +0.000 NA
BRANCH  11  17
ATOM     17  N   UNL     1       0.464   9.854  21.891  0.00  0.00    +0.000 N 
ATOM     18  H   UNL     1       1.210   9.809  22.583  0.00  0.00    +0.000 HD
ATOM     19  H   UNL     1      -0.330   9.259  22.108  0.00  0.00    +0.000 HD
ENDBRANCH  11  17
ENDBRANCH   4   8
BRANCH   5  20
ATOM     20  O   UNL     1       2.684   4.524  17.562  0.00  0.00    +0.000 OA
ATOM     21  H   UNL     1       3.268   5.057  16.980  0.00  0.00    +0.000 HD
ENDBRANCH   5  20
BRANCH   6  22
ATOM     22  O   UNL     1       4.461   2.478  18.111  0.00  0.00    +0.000 OA
ATOM     23  H   UNL     1       3.886   1.827  17.654  0.00  0.00    +0.000 HD
ENDBRANCH   6  22
BRANCH   7  24
ATOM     24  O   UNL     1       1.660   2.089  18.034  0.00  0.00    +0.000 OA
ATOM     25  H   UNL     1       1.417   3.002  17.779  0.00  0.00    +0.000 HD
ENDBRANCH   7  24
TORSDOF 5
ENDMDL
MODEL 5
REMARK VINA RESULT:      -6.8      1.540      1.855
REMARK  Name = 
REMARK  6 active torsions:
REMARK  status: ('A' for Active; 'I' for Inactive)
REMARK    1  A    between atoms: C_1  and  C_2
REMARK    2  A    between atoms: C_4  and  C_5
REMARK    3  A    between atoms: C_8  and  N_9
REMARK    4  A    between atoms: C_15  and  O_16
REMARK    5  A    between atoms: C_17  and  O_18
REMARK    6  A    between atoms: C_19  and  O_20
REMARK                            x       y       z     vdW  Elec       q    Type
REMARK                         _______ _______ _______ _____ _____    ______ ____
ROOT
ATOM      1  C   UNL     1       4.933   4.397  14.613  0.00  0.00    +0.000 C 
ATOM      2  C   UNL     1       5.689   5.584  15.205  0.00  0.00    +0.000 C 
ATOM      3  O   UNL     1       4.843   6.368  16.067  0.00  0.00    +0.000 OA
ATOM      4  C   UNL     1       4.486   5.735  17.317  0.00  0.00    +0.000 C 
ATOM      5  C   UNL     1       5.761   5.388  18.117  0.00  0.00    +0.000 C 
ATOM      6  C   UNL     1       6.664   4.489  17.261  0.00  0.00    +0.000 C 
ATOM      7  C   UNL     1       6.987   5.158  15.912  0.00  0.00    +0.000 C 
ENDROOT
BRANCH   4   8
ATOM      8  C   UNL     1       3.557   6.603  18.132  0.00  0.00    +0.000 A 
ATOM      9  N   UNL     1       3.052   7.787  17.658  0.00  0.00    +0.000 NA
ATOM     10  C   UNL     1       2.250   8.186  18.629  0.00  0.00    +0.000 A 
ATOM     11  C   UNL     1       1.414   9.352  18.768  0.00  0.00    +0.000 A 
ATOM     12  C   UNL     1       0.738   9.509  19.928  0.00  0.00    +0.000 A 
ATOM     13  C   UNL     1       0.787   8.533  21.004  0.00  0.00    +0.000 A 
ATOM     14  C   UNL     1       1.557   7.437  20.854  0.00  0.00    +0.000 A 
ATOM     15  N   UNL     1       2.287   7.269  19.682  0.00  0.00    +0.000 N 
ATOM     16  N   UNL     1       3.105   6.235  19.344  0.00  0.00    +0.000 NA
BRANCH  11  17
ATOM     17  N   UNL     1       1.318  10.263  17.731  0.00  0.00    +0.000 N 
ATOM     18  H   UNL     1       0.872  11.131  18.024  0.00  0.00    +0.000 HD
ATOM     19  H   UNL     1       0.946   9.883  16.867  0.00  0.00    +0.000 HD
ENDBRANCH  11  17
ENDBRANCH   4   8
BRANCH   5  20
ATOM     20  O   UNL     1       6.533   6.571  18.443  0.00  0.00    +0.000 OA
ATOM     21  H   UNL     1       6.832   6.960  17.592  0.00  0.00    +0.000 HD
ENDBRANCH   5  20
BRANCH   6  22
ATOM     22  O   UNL     1       7.872   4.198  17.971  0.00  0.00    +0.000 OA
ATOM     23  H   UNL     1       8.588   4.430  17.341  0.00  0.00    +0.000 HD
ENDBRANCH   6  22
BRANCH   7  24
ATOM     24  O   UNL     1       7.815   6.319  16.099  0.00  0.00    +0.000 OA
ATOM     25  H   UNL     1       7.284   7.092  15.823  0.00  0.00    +0.000 HD
ENDBRANCH   7  24
TORSDOF 5
ENDMDL
MODEL 6
REMARK VINA RESULT:      -6.7      0.919      1.847
REMARK  Name = 
REMARK  6 active torsions:
REMARK  status: ('A' for Active; 'I' for Inactive)
REMARK    1  A    between atoms: C_1  and  C_2
REMARK    2  A    between atoms: C_4  and  C_5
REMARK    3  A    between atoms: C_8  and  N_9
REMARK    4  A    between atoms: C_15  and  O_16
REMARK    5  A    between atoms: C_17  and  O_18
REMARK    6  A    between atoms: C_19  and  O_20
REMARK                            x       y       z     vdW  Elec       q    Type
REMARK                         _______ _______ _______ _____ _____    ______ ____
ROOT
ATOM      1  C   UNL     1       5.473   5.067  15.341  0.00  0.00    +0.000 C 
ATOM      2  C   UNL     1       5.968   5.563  16.698  0.00  0.00    +0.000 C 
ATOM      3  O   UNL     1       5.075   6.546  17.254  0.00  0.00    +0.000 OA
ATOM      4  C   UNL     1       3.799   6.034  17.699  0.00  0.00    +0.000 C 
ATOM      5  C   UNL     1       4.012   4.946  18.776  0.00  0.00    +0.000 C 
ATOM      6  C   UNL     1       4.902   3.836  18.201  0.00  0.00    +0.000 C 
ATOM      7  C   UNL     1       6.234   4.410  17.682  0.00  0.00    +0.000 C 
ENDROOT
BRANCH   4   8
ATOM      8  C   UNL     1       2.909   7.138  18.217  0.00  0.00    +0.000 A 
ATOM      9  N   UNL     1       2.522   7.216  19.531  0.00  0.00    +0.000 NA
ATOM     10  C   UNL     1       1.826   8.337  19.577  0.00  0.00    +0.000 A 
ATOM     11  C   UNL     1       1.141   9.001  20.658  0.00  0.00    +0.000 A 
ATOM     12  C   UNL     1       0.458  10.132  20.374  0.00  0.00    +0.000 A 
ATOM     13  C   UNL     1       0.430  10.719  19.044  0.00  0.00    +0.000 A 
ATOM     14  C   UNL     1       1.090  10.100  18.046  0.00  0.00    +0.000 A 
ATOM     15  N   UNL     1       1.775   8.917  18.308  0.00  0.00    +0.000 N 
ATOM     16  N   UNL     1       2.500   8.159  17.442  0.00  0.00    +0.000 NA
BRANCH  11  17
ATOM     17  N   UNL     1       1.203   8.481  21.939  0.00  0.00    +0.000 N 
ATOM     18  H   UNL     1       1.720   9.086  22.574  0.00  0.00    +0.000 HD
ATOM     19  H   UNL     1       1.480   7.505  21.988  0.00  0.00    +0.000 HD
ENDBRANCH  11  17
ENDBRANCH   4   8
BRANCH   5  20
ATOM     20  O   UNL     1       4.693   5.468  19.944  0.00  0.00    +0.000 OA
ATOM     21  H   UNL     1       5.437   4.857  20.138  0.00  0.00    +0.000 HD
ENDBRANCH   5  20
BRANCH   6  22
ATOM     22  O   UNL     1       5.149   2.844  19.202  0.00  0.00    +0.000 OA
ATOM     23  H   UNL     1       4.435   2.183  19.074  0.00  0.00    +0.000 HD
ENDBRANCH   6  22
BRANCH   7  24
ATOM     24  O   UNL     1       7.038   4.904  18.767  0.00  0.00    +0.000 OA
ATOM     25  H   UNL     1       6.851   4.332  19.539  0.00  0.00    +0.000 HD
ENDBRANCH   7  24
TORSDOF 5
ENDMDL
MODEL 7
REMARK VINA RESULT:      -6.7      1.625      2.752
REMARK  Name = 
REMARK  6 active torsions:
REMARK  status: ('A' for Active; 'I' for Inactive)
REMARK    1  A    between atoms: C_1  and  C_2
REMARK    2  A    between atoms: C_4  and  C_5
REMARK    3  A    between atoms: C_8  and  N_9
REMARK    4  A    between atoms: C_15  and  O_16
REMARK    5  A    between atoms: C_17  and  O_18
REMARK    6  A    between atoms: C_19  and  O_20
REMARK                            x       y       z     vdW  Elec       q    Type
REMARK                         _______ _______ _______ _____ _____    ______ ____
ROOT
ATOM      1  C   UNL     1       2.069   2.458  18.524  0.00  0.00    +0.000 C 
ATOM      2  C   UNL     1       2.702   3.442  17.543  0.00  0.00    +0.000 C 
ATOM      3  O   UNL     1       2.275   4.792  17.805  0.00  0.00    +0.000 OA
ATOM      4  C   UNL     1       2.799   5.378  19.018  0.00  0.00    +0.000 C 
ATOM      5  C   UNL     1       4.344   5.385  18.976  0.00  0.00    +0.000 C 
ATOM      6  C   UNL     1       4.849   3.950  18.771  0.00  0.00    +0.000 C 
ATOM      7  C   UNL     1       4.236   3.326  17.504  0.00  0.00    +0.000 C 
ENDROOT
BRANCH   4   8
ATOM      8  C   UNL     1       2.259   6.771  19.240  0.00  0.00    +0.000 A 
ATOM      9  N   UNL     1       1.798   7.194  20.460  0.00  0.00    +0.000 NA
ATOM     10  C   UNL     1       1.490   8.460  20.245  0.00  0.00    +0.000 A 
ATOM     11  C   UNL     1       0.953   9.480  21.112  0.00  0.00    +0.000 A 
ATOM     12  C   UNL     1       0.690  10.692  20.574  0.00  0.00    +0.000 A 
ATOM     13  C   UNL     1       0.971  11.011  19.184  0.00  0.00    +0.000 A 
ATOM     14  C   UNL     1       1.491  10.056  18.389  0.00  0.00    +0.000 A 
ATOM     15  N   UNL     1       1.740   8.791  18.912  0.00  0.00    +0.000 N 
ATOM     16  N   UNL     1       2.266   7.709  18.276  0.00  0.00    +0.000 NA
BRANCH  11  17
ATOM     17  N   UNL     1       0.729   9.204  22.449  0.00  0.00    +0.000 N 
ATOM     18  H   UNL     1       1.155   8.324  22.735  0.00  0.00    +0.000 HD
ATOM     19  H   UNL     1      -0.235   9.308  22.748  0.00  0.00    +0.000 HD
ENDBRANCH  11  17
ENDBRANCH   4   8
BRANCH   5  20
ATOM     20  O   UNL     1       4.851   6.171  17.869  0.00  0.00    +0.000 OA
ATOM     21  H   UNL     1       4.903   5.572  17.093  0.00  0.00    +0.000 HD
ENDBRANCH   5  20
BRANCH   6  22
ATOM     22  O   UNL     1       6.277   3.947  18.682  0.00  0.00    +0.000 OA
ATOM     23  H   UNL     1       6.580   4.156  19.591  0.00  0.00    +0.000 HD
ENDBRANCH   6  22
BRANCH   7  24
ATOM     24  O   UNL     1       4.721   3.984  16.321  0.00  0.00    +0.000 OA
ATOM     25  H   UNL     1       5.454   3.436  15.974  0.00  0.00    +0.000 HD
ENDBRANCH   7  24
TORSDOF 5
ENDMDL
MODEL 8
REMARK VINA RESULT:      -6.7      3.644      4.612
REMARK  Name = 
REMARK  6 active torsions:
REMARK  status: ('A' for Active; 'I' for Inactive)
REMARK    1  A    between atoms: C_1  and  C_2
REMARK    2  A    between atoms: C_4  and  C_5
REMARK    3  A    between atoms: C_8  and  N_9
REMARK    4  A    between atoms: C_15  and  O_16
REMARK    5  A    between atoms: C_17  and  O_18
REMARK    6  A    between atoms: C_19  and  O_20
REMARK                            x       y       z     vdW  Elec       q    Type
REMARK                         _______ _______ _______ _____ _____    ______ ____
ROOT
ATOM      1  C   UNL     1       6.963   7.721  17.402  0.00  0.00    +0.000 C 
ATOM      2  C   UNL     1       7.234   6.220  17.469  0.00  0.00    +0.000 C 
ATOM      3  O   UNL     1       6.236   5.541  18.254  0.00  0.00    +0.000 OA
ATOM      4  C   UNL     1       4.926   5.465  17.648  0.00  0.00    +0.000 C 
ATOM      5  C   UNL     1       5.013   4.737  16.288  0.00  0.00    +0.000 C 
ATOM      6  C   UNL     1       6.015   5.471  15.387  0.00  0.00    +0.000 C 
ATOM      7  C   UNL     1       7.389   5.589  16.074  0.00  0.00    +0.000 C 
ENDROOT
BRANCH   4   8
ATOM      8  C   UNL     1       3.931   4.787  18.561  0.00  0.00    +0.000 A 
ATOM      9  N   UNL     1       3.071   3.815  18.118  0.00  0.00    +0.000 NA
ATOM     10  C   UNL     1       2.438   3.446  19.216  0.00  0.00    +0.000 A 
ATOM     11  C   UNL     1       1.406   2.467  19.449  0.00  0.00    +0.000 A 
ATOM     12  C   UNL     1       0.912   2.355  20.702  0.00  0.00    +0.000 A 
ATOM     13  C   UNL     1       1.412   3.143  21.817  0.00  0.00    +0.000 A 
ATOM     14  C   UNL     1       2.391   4.042  21.590  0.00  0.00    +0.000 A 
ATOM     15  N   UNL     1       2.893   4.197  20.302  0.00  0.00    +0.000 N 
ATOM     16  N   UNL     1       3.877   5.037  19.881  0.00  0.00    +0.000 NA
BRANCH  11  17
ATOM     17  N   UNL     1       0.957   1.674  18.408  0.00  0.00    +0.000 N 
ATOM     18  H   UNL     1       0.683   0.745  18.724  0.00  0.00    +0.000 HD
ATOM     19  H   UNL     1       1.559   1.666  17.590  0.00  0.00    +0.000 HD
ENDBRANCH  11  17
ENDBRANCH   4   8
BRANCH   5  20
ATOM     20  O   UNL     1       5.495   3.377  16.434  0.00  0.00    +0.000 OA
ATOM     21  H   UNL     1       4.731   2.833  16.726  0.00  0.00    +0.000 HD
ENDBRANCH   5  20
BRANCH   6  22
ATOM     22  O   UNL     1       6.144   4.779  14.141  0.00  0.00    +0.000 OA
ATOM     23  H   UNL     1       7.109   4.768  13.966  0.00  0.00    +0.000 HD
ENDBRANCH   6  22
BRANCH   7  24
ATOM     24  O   UNL     1       8.006   4.298  16.215  0.00  0.00    +0.000 OA
ATOM     25  H   UNL     1       8.965   4.426  16.068  0.00  0.00    +0.000 HD
ENDBRANCH   7  24
TORSDOF 5
ENDMDL
MODEL 9
REMARK VINA RESULT:      -6.6      3.239      6.209
REMARK  Name = 
REMARK  6 active torsions:
REMARK  status: ('A' for Active; 'I' for Inactive)
REMARK    1  A    between atoms: C_1  and  C_2
REMARK    2  A    between atoms: C_4  and  C_5
REMARK    3  A    between atoms: C_8  and  N_9
REMARK    4  A    between atoms: C_15  and  O_16
REMARK    5  A    between atoms: C_17  and  O_18
REMARK    6  A    between atoms: C_19  and  O_20
REMARK                            x       y       z     vdW  Elec       q    Type
REMARK                         _______ _______ _______ _____ _____    ______ ____
ROOT
ATOM      1  C   UNL     1       1.401   6.359  20.956  0.00  0.00    +0.000 C 
ATOM      2  C   UNL     1       1.129   5.099  20.139  0.00  0.00    +0.000 C 
ATOM      3  O   UNL     1       2.006   5.013  19.000  0.00  0.00    +0.000 OA
ATOM      4  C   UNL     1       3.391   4.736  19.311  0.00  0.00    +0.000 C 
ATOM      5  C   UNL     1       3.503   3.400  20.079  0.00  0.00    +0.000 C 
ATOM      6  C   UNL     1       2.639   3.472  21.344  0.00  0.00    +0.000 C 
ATOM      7  C   UNL     1       1.180   3.822  20.996  0.00  0.00    +0.000 C 
ENDROOT
BRANCH   4   8
ATOM      8  C   UNL     1       4.245   4.717  18.066  0.00  0.00    +0.000 A 
ATOM      9  N   UNL     1       5.295   5.580  17.881  0.00  0.00    +0.000 NA
ATOM     10  C   UNL     1       5.807   5.194  16.726  0.00  0.00    +0.000 A 
ATOM     11  C   UNL     1       6.925   5.681  15.959  0.00  0.00    +0.000 A 
ATOM     12  C   UNL     1       7.173   5.099  14.764  0.00  0.00    +0.000 A 
ATOM     13  C   UNL     1       6.391   3.983  14.257  0.00  0.00    +0.000 A 
ATOM     14  C   UNL     1       5.360   3.524  14.993  0.00  0.00    +0.000 A 
ATOM     15  N   UNL     1       5.066   4.128  16.212  0.00  0.00    +0.000 N 
ATOM     16  N   UNL     1       4.081   3.803  17.092  0.00  0.00    +0.000 NA
BRANCH  11  17
ATOM     17  N   UNL     1       7.709   6.708  16.454  0.00  0.00    +0.000 N 
ATOM     18  H   UNL     1       8.704   6.510  16.359  0.00  0.00    +0.000 HD
ATOM     19  H   UNL     1       7.445   7.037  17.377  0.00  0.00    +0.000 HD
ENDBRANCH  11  17
ENDBRANCH   4   8
BRANCH   5  20
ATOM     20  O   UNL     1       3.011   2.284  19.296  0.00  0.00    +0.000 OA
ATOM     21  H   UNL     1       3.699   1.585  19.330  0.00  0.00    +0.000 HD
ENDBRANCH   5  20
BRANCH   6  22
ATOM     22  O   UNL     1       2.695   2.224  22.041  0.00  0.00    +0.000 OA
ATOM     23  H   UNL     1       2.536   1.548  21.348  0.00  0.00    +0.000 HD
ENDBRANCH   6  22
BRANCH   7  24
ATOM     24  O   UNL     1       0.554   2.750  20.269  0.00  0.00    +0.000 OA
ATOM     25  H   UNL     1       0.896   1.915  20.647  0.00  0.00    +0.000 HD
ENDBRANCH   7  24
TORSDOF 5
ENDMDL
