MODEL 1
REMARK VINA RESULT:      -7.3      0.000      0.000
REMARK  Name = 
REMARK  3 active torsions:
REMARK  status: ('A' for Active; 'I' for Inactive)
REMARK    1  A    between atoms: S_2  and  C_4
REMARK    2  A    between atoms: S_2  and  N_11
REMARK    3  A    between atoms: C_14  and  N_15
REMARK                            x       y       z     vdW  Elec       q    Type
REMARK                         _______ _______ _______ _____ _____    ______ ____
ROOT
ATOM      1  N   UNL     1       5.609   4.174  17.451  0.00  0.00    +0.000 NA
ATOM      2  C   UNL     1       5.482   4.224  18.940  0.00  0.00    +0.000 C 
ATOM      3  C   UNL     1       4.140   3.717  19.443  0.00  0.00    +0.000 C 
ATOM      4  C   UNL     1       2.933   4.390  18.778  0.00  0.00    +0.000 C 
ATOM      5  C   UNL     1       3.080   4.188  17.263  0.00  0.00    +0.000 C 
ATOM      6  C   UNL     1       4.411   4.642  16.678  0.00  0.00    +0.000 C 
ENDROOT
BRANCH   4   7
ATOM      7  N   UNL     1       2.593   5.760  19.243  0.00  0.00    +0.000 NA
ATOM      8  C   UNL     1       2.040   6.614  18.191  0.00  0.00    +0.000 C 
ATOM      9  C   UNL     1       2.400   8.099  18.346  0.00  0.00    +0.000 C 
ATOM     10  C   UNL     1       1.528   8.888  19.314  0.00  0.00    +0.000 C 
ATOM     11  C   UNL     1       1.571   8.394  20.749  0.00  0.00    +0.000 C 
ATOM     12  C   UNL     1       1.008   6.992  20.886  0.00  0.00    +0.000 C 
ATOM     13  C   UNL     1       2.013   5.885  20.576  0.00  0.00    +0.000 C 
ENDBRANCH   4   7
BRANCH   1  15
ATOM     14  O   UNL     1       8.184   4.230  17.374  0.00  0.00    +0.000 OA
ATOM     15  S   UNL     1       7.040   4.964  16.863  0.00  0.00    +0.000 S 
ATOM     16  O   UNL     1       6.898   6.381  17.120  0.00  0.00    +0.000 OA
BRANCH  15  17
ATOM     17  C   UNL     1       6.973   4.729  15.104  0.00  0.00    +0.000 A 
ATOM     18  C   UNL     1       7.838   5.464  14.285  0.00  0.00    +0.000 A 
ATOM     19  C   UNL     1       7.840   5.235  12.908  0.00  0.00    +0.000 A 
ATOM     20  C   UNL     1       6.986   4.277  12.369  0.00  0.00    +0.000 A 
ATOM     21  F   UNL     1       6.990   4.062  11.046  0.00  0.00    +0.000 F 
ATOM     22  C   UNL     1       6.139   3.529  13.181  0.00  0.00    +0.000 A 
ATOM     23  C   UNL     1       6.137   3.744  14.560  0.00  0.00    +0.000 A 
ENDBRANCH  15  17
ENDBRANCH   1  15
TORSDOF 3
ENDMDL
MODEL 2
REMARK VINA RESULT:      -7.1      0.065      1.015
REMARK  Name = 
REMARK  3 active torsions:
REMARK  status: ('A' for Active; 'I' for Inactive)
REMARK    1  A    between atoms: S_2  and  C_4
REMARK    2  A    between atoms: S_2  and  N_11
REMARK    3  A    between atoms: C_14  and  N_15
REMARK                            x       y       z     vdW  Elec       q    Type
REMARK                         _______ _______ _______ _____ _____    ______ ____
ROOT
ATOM      1  N   UNL     1       5.599   4.204  17.449  0.00  0.00    +0.000 NA
ATOM      2  C   UNL     1       5.475   4.238  18.938  0.00  0.00    +0.000 C 
ATOM      3  C   UNL     1       4.138   3.719  19.439  0.00  0.00    +0.000 C 
ATOM      4  C   UNL     1       2.925   4.392  18.784  0.00  0.00    +0.000 C 
ATOM      5  C   UNL     1       3.070   4.206  17.266  0.00  0.00    +0.000 C 
ATOM      6  C   UNL     1       4.396   4.673  16.683  0.00  0.00    +0.000 C 
ENDROOT
BRANCH   4   7
ATOM      7  N   UNL     1       2.579   5.755  19.263  0.00  0.00    +0.000 NA
ATOM      8  C   UNL     1       2.033   6.621  18.217  0.00  0.00    +0.000 C 
ATOM      9  C   UNL     1       2.389   8.105  18.394  0.00  0.00    +0.000 C 
ATOM     10  C   UNL     1       1.508   8.880  19.365  0.00  0.00    +0.000 C 
ATOM     11  C   UNL     1       1.538   8.368  20.794  0.00  0.00    +0.000 C 
ATOM     12  C   UNL     1       0.977   6.964  20.908  0.00  0.00    +0.000 C 
ATOM     13  C   UNL     1       1.987   5.862  20.593  0.00  0.00    +0.000 C 
ENDBRANCH   4   7
BRANCH   1  15
ATOM     14  O   UNL     1       8.173   4.337  17.449  0.00  0.00    +0.000 OA
ATOM     15  S   UNL     1       7.024   5.008  16.865  0.00  0.00    +0.000 S 
ATOM     16  O   UNL     1       6.831   6.431  17.043  0.00  0.00    +0.000 OA
BRANCH  15  17
ATOM     17  C   UNL     1       7.023   4.681  15.119  0.00  0.00    +0.000 A 
ATOM     18  C   UNL     1       6.119   3.745  14.603  0.00  0.00    +0.000 A 
ATOM     19  C   UNL     1       6.064   3.532  13.224  0.00  0.00    +0.000 A 
ATOM     20  C   UNL     1       6.904   4.256  12.383  0.00  0.00    +0.000 A 
ATOM     21  F   UNL     1       6.850   4.047  11.060  0.00  0.00    +0.000 F 
ATOM     22  C   UNL     1       7.789   5.202  12.889  0.00  0.00    +0.000 A 
ATOM     23  C   UNL     1       7.845   5.428  14.266  0.00  0.00    +0.000 A 
ENDBRANCH  15  17
ENDBRANCH   1  15
TORSDOF 3
ENDMDL
MODEL 3
REMARK VINA RESULT:      -7.1      0.284      1.287
REMARK  Name = 
REMARK  3 active torsions:
REMARK  status: ('A' for Active; 'I' for Inactive)
REMARK    1  A    between atoms: S_2  and  C_4
REMARK    2  A    between atoms: S_2  and  N_11
REMARK    3  A    between atoms: C_14  and  N_15
REMARK                            x       y       z     vdW  Elec       q    Type
REMARK                         _______ _______ _______ _____ _____    ______ ____
ROOT
ATOM      1  N   UNL     1       5.550   4.118  17.411  0.00  0.00    +0.000 NA
ATOM      2  C   UNL     1       5.323   4.273  18.880  0.00  0.00    +0.000 C 
ATOM      3  C   UNL     1       4.008   3.673  19.349  0.00  0.00    +0.000 C 
ATOM      4  C   UNL     1       2.786   4.164  18.562  0.00  0.00    +0.000 C 
ATOM      5  C   UNL     1       3.050   3.858  17.080  0.00  0.00    +0.000 C 
ATOM      6  C   UNL     1       4.365   4.397  16.534  0.00  0.00    +0.000 C 
ENDROOT
BRANCH   4   7
ATOM      7  N   UNL     1       2.285   5.524  18.888  0.00  0.00    +0.000 NA
ATOM      8  C   UNL     1       2.470   5.893  20.292  0.00  0.00    +0.000 C 
ATOM      9  C   UNL     1       1.370   6.815  20.840  0.00  0.00    +0.000 C 
ATOM     10  C   UNL     1       1.538   8.296  20.526  0.00  0.00    +0.000 C 
ATOM     11  C   UNL     1       1.535   8.633  19.045  0.00  0.00    +0.000 C 
ATOM     12  C   UNL     1       2.715   8.018  18.318  0.00  0.00    +0.000 C 
ATOM     13  C   UNL     1       2.497   6.568  17.891  0.00  0.00    +0.000 C 
ENDBRANCH   4   7
BRANCH   1  15
ATOM     14  O   UNL     1       8.116   4.356  17.379  0.00  0.00    +0.000 OA
ATOM     15  S   UNL     1       6.933   5.001  16.839  0.00  0.00    +0.000 S 
ATOM     16  O   UNL     1       6.685   6.407  17.075  0.00  0.00    +0.000 OA
BRANCH  15  17
ATOM     17  C   UNL     1       6.916   4.742  15.082  0.00  0.00    +0.000 A 
ATOM     18  C   UNL     1       7.787   5.484  14.276  0.00  0.00    +0.000 A 
ATOM     19  C   UNL     1       7.829   5.238  12.903  0.00  0.00    +0.000 A 
ATOM     20  C   UNL     1       7.007   4.256  12.354  0.00  0.00    +0.000 A 
ATOM     21  F   UNL     1       7.049   4.025  11.035  0.00  0.00    +0.000 F 
ATOM     22  C   UNL     1       6.154   3.503  13.154  0.00  0.00    +0.000 A 
ATOM     23  C   UNL     1       6.112   3.735  14.530  0.00  0.00    +0.000 A 
ENDBRANCH  15  17
ENDBRANCH   1  15
TORSDOF 3
ENDMDL
MODEL 4
REMARK VINA RESULT:      -7.0      5.982      8.752
REMARK  Name = 
REMARK  3 active torsions:
REMARK  status: ('A' for Active; 'I' for Inactive)
REMARK    1  A    between atoms: S_2  and  C_4
REMARK    2  A    between atoms: S_2  and  N_11
REMARK    3  A    between atoms: C_14  and  N_15
REMARK                            x       y       z     vdW  Elec       q    Type
REMARK                         _______ _______ _______ _____ _____    ______ ____
ROOT
ATOM      1  N   UNL     1       0.296  10.401  20.351  0.00  0.00    +0.000 NA
ATOM      2  C   UNL     1      -0.856  10.175  19.426  0.00  0.00    +0.000 C 
ATOM      3  C   UNL     1      -1.322  11.442  18.729  0.00  0.00    +0.000 C 
ATOM      4  C   UNL     1      -1.621  12.603  19.685  0.00  0.00    +0.000 C 
ATOM      5  C   UNL     1      -0.350  12.848  20.511  0.00  0.00    +0.000 C 
ATOM      6  C   UNL     1       0.205  11.620  21.222  0.00  0.00    +0.000 C 
ENDROOT
BRANCH   4   7
ATOM      7  N   UNL     1      -2.904  12.538  20.431  0.00  0.00    +0.000 NA
ATOM      8  C   UNL     1      -2.934  13.395  21.617  0.00  0.00    +0.000 C 
ATOM      9  C   UNL     1      -3.785  12.832  22.766  0.00  0.00    +0.000 C 
ATOM     10  C   UNL     1      -5.283  13.086  22.660  0.00  0.00    +0.000 C 
ATOM     11  C   UNL     1      -5.943  12.472  21.439  0.00  0.00    +0.000 C 
ATOM     12  C   UNL     1      -5.426  13.077  20.147  0.00  0.00    +0.000 C 
ATOM     13  C   UNL     1      -4.128  12.450  19.641  0.00  0.00    +0.000 C 
ENDBRANCH   4   7
BRANCH   1  15
ATOM     14  O   UNL     1      -0.574   8.345  21.638  0.00  0.00    +0.000 OA
ATOM     15  S   UNL     1       0.677   9.009  21.318  0.00  0.00    +0.000 S 
ATOM     16  O   UNL     1       1.576   9.436  22.369  0.00  0.00    +0.000 OA
BRANCH  15  17
ATOM     17  C   UNL     1       1.597   7.957  20.222  0.00  0.00    +0.000 A 
ATOM     18  C   UNL     1       1.800   6.618  20.573  0.00  0.00    +0.000 A 
ATOM     19  C   UNL     1       2.462   5.768  19.686  0.00  0.00    +0.000 A 
ATOM     20  C   UNL     1       2.907   6.262  18.463  0.00  0.00    +0.000 A 
ATOM     21  F   UNL     1       3.545   5.443  17.615  0.00  0.00    +0.000 F 
ATOM     22  C   UNL     1       2.690   7.587  18.100  0.00  0.00    +0.000 A 
ATOM     23  C   UNL     1       2.021   8.442  18.977  0.00  0.00    +0.000 A 
ENDBRANCH  15  17
ENDBRANCH   1  15
TORSDOF 3
ENDMDL
MODEL 5
REMARK VINA RESULT:      -6.9      3.403      7.334
REMARK  Name = 
REMARK  3 active torsions:
REMARK  status: ('A' for Active; 'I' for Inactive)
REMARK    1  A    between atoms: S_2  and  C_4
REMARK    2  A    between atoms: S_2  and  N_11
REMARK    3  A    between atoms: C_14  and  N_15
REMARK                            x       y       z     vdW  Elec       q    Type
REMARK                         _______ _______ _______ _____ _____    ______ ____
ROOT
ATOM      1  N   UNL     1       4.977   5.680  18.413  0.00  0.00    +0.000 NA
ATOM      2  C   UNL     1       5.849   4.474  18.270  0.00  0.00    +0.000 C 
ATOM      3  C   UNL     1       7.258   4.805  17.806  0.00  0.00    +0.000 C 
ATOM      4  C   UNL     1       7.308   5.659  16.533  0.00  0.00    +0.000 C 
ATOM      5  C   UNL     1       6.491   6.930  16.808  0.00  0.00    +0.000 C 
ATOM      6  C   UNL     1       5.073   6.690  17.306  0.00  0.00    +0.000 C 
ENDROOT
BRANCH   4   7
ATOM      7  N   UNL     1       7.048   4.957  15.249  0.00  0.00    +0.000 NA
ATOM      8  C   UNL     1       5.631   4.912  14.885  0.00  0.00    +0.000 C 
ATOM      9  C   UNL     1       5.231   3.646  14.112  0.00  0.00    +0.000 C 
ATOM     10  C   UNL     1       5.517   3.672  12.617  0.00  0.00    +0.000 C 
ATOM     11  C   UNL     1       6.985   3.819  12.257  0.00  0.00    +0.000 C 
ATOM     12  C   UNL     1       7.552   5.150  12.712  0.00  0.00    +0.000 C 
ATOM     13  C   UNL     1       8.007   5.168  14.170  0.00  0.00    +0.000 C 
ENDBRANCH   4   7
BRANCH   1  15
ATOM     14  O   UNL     1       3.263   4.519  19.947  0.00  0.00    +0.000 OA
ATOM     15  S   UNL     1       3.313   5.287  18.715  0.00  0.00    +0.000 S 
ATOM     16  O   UNL     1       2.757   4.753  17.490  0.00  0.00    +0.000 OA
BRANCH  15  17
ATOM     17  C   UNL     1       2.542   6.859  19.013  0.00  0.00    +0.000 A 
ATOM     18  C   UNL     1       2.345   7.735  17.939  0.00  0.00    +0.000 A 
ATOM     19  C   UNL     1       1.679   8.943  18.151  0.00  0.00    +0.000 A 
ATOM     20  C   UNL     1       1.216   9.258  19.426  0.00  0.00    +0.000 A 
ATOM     21  F   UNL     1       0.580  10.420  19.626  0.00  0.00    +0.000 F 
ATOM     22  C   UNL     1       1.391   8.382  20.492  0.00  0.00    +0.000 A 
ATOM     23  C   UNL     1       2.048   7.167  20.287  0.00  0.00    +0.000 A 
ENDBRANCH  15  17
ENDBRANCH   1  15
TORSDOF 3
ENDMDL
MODEL 6
REMARK VINA RESULT:      -6.9      3.402      7.383
REMARK  Name = 
REMARK  3 active torsions:
REMARK  status: ('A' for Active; 'I' for Inactive)
REMARK    1  A    between atoms: S_2  and  C_4
REMARK    2  A    between atoms: S_2  and  N_11
REMARK    3  A    between atoms: C_14  and  N_15
REMARK                            x       y       z     vdW  Elec       q    Type
REMARK                         _______ _______ _______ _____ _____    ______ ____
ROOT
ATOM      1  N   UNL     1       4.980   5.625  18.370  0.00  0.00    +0.000 NA
ATOM      2  C   UNL     1       5.920   4.472  18.219  0.00  0.00    +0.000 C 
ATOM      3  C   UNL     1       7.306   4.886  17.752  0.00  0.00    +0.000 C 
ATOM      4  C   UNL     1       7.302   5.745  16.482  0.00  0.00    +0.000 C 
ATOM      5  C   UNL     1       6.414   6.966  16.764  0.00  0.00    +0.000 C 
ATOM      6  C   UNL     1       5.013   6.642  17.266  0.00  0.00    +0.000 C 
ENDROOT
BRANCH   4   7
ATOM      7  N   UNL     1       7.079   5.034  15.197  0.00  0.00    +0.000 NA
ATOM      8  C   UNL     1       5.668   4.942  14.818  0.00  0.00    +0.000 C 
ATOM      9  C   UNL     1       5.318   3.663  14.043  0.00  0.00    +0.000 C 
ATOM     10  C   UNL     1       5.620   3.696  12.550  0.00  0.00    +0.000 C 
ATOM     11  C   UNL     1       7.085   3.891  12.206  0.00  0.00    +0.000 C 
ATOM     12  C   UNL     1       7.604   5.240  12.664  0.00  0.00    +0.000 C 
ATOM     13  C   UNL     1       8.042   5.275  14.127  0.00  0.00    +0.000 C 
ENDBRANCH   4   7
BRANCH   1  15
ATOM     14  O   UNL     1       3.350   4.319  19.878  0.00  0.00    +0.000 OA
ATOM     15  S   UNL     1       3.343   5.134  18.676  0.00  0.00    +0.000 S 
ATOM     16  O   UNL     1       2.799   4.619  17.437  0.00  0.00    +0.000 OA
BRANCH  15  17
ATOM     17  C   UNL     1       2.496   6.652  19.042  0.00  0.00    +0.000 A 
ATOM     18  C   UNL     1       2.086   6.903  20.356  0.00  0.00    +0.000 A 
ATOM     19  C   UNL     1       1.482   8.122  20.666  0.00  0.00    +0.000 A 
ATOM     20  C   UNL     1       1.299   9.073  19.665  0.00  0.00    +0.000 A 
ATOM     21  F   UNL     1       0.716  10.241  19.966  0.00  0.00    +0.000 F 
ATOM     22  C   UNL     1       1.723   8.836  18.362  0.00  0.00    +0.000 A 
ATOM     23  C   UNL     1       2.337   7.623  18.045  0.00  0.00    +0.000 A 
ENDBRANCH  15  17
ENDBRANCH   1  15
TORSDOF 3
ENDMDL
MODEL 7
REMARK VINA RESULT:      -6.9      6.248      8.940
REMARK  Name = 
REMARK  3 active torsions:
REMARK  status: ('A' for Active; 'I' for Inactive)
REMARK    1  A    between atoms: S_2  and  C_4
REMARK    2  A    between atoms: S_2  and  N_11
REMARK    3  A    between atoms: C_14  and  N_15
REMARK                            x       y       z     vdW  Elec       q    Type
REMARK                         _______ _______ _______ _____ _____    ______ ____
ROOT
ATOM      1  N   UNL     1      -0.300  10.810  19.646  0.00  0.00    +0.000 NA
ATOM      2  C   UNL     1      -1.161  10.167  18.606  0.00  0.00    +0.000 C 
ATOM      3  C   UNL     1      -1.884  11.171  17.723  0.00  0.00    +0.000 C 
ATOM      4  C   UNL     1      -2.680  12.224  18.504  0.00  0.00    +0.000 C 
ATOM      5  C   UNL     1      -1.698  12.918  19.459  0.00  0.00    +0.000 C 
ATOM      6  C   UNL     1      -0.906  11.982  20.362  0.00  0.00    +0.000 C 
ENDROOT
BRANCH   4   7
ATOM      7  N   UNL     1      -3.980  11.788  19.077  0.00  0.00    +0.000 NA
ATOM      8  C   UNL     1      -4.653  12.828  19.856  0.00  0.00    +0.000 C 
ATOM      9  C   UNL     1      -5.479  12.284  21.032  0.00  0.00    +0.000 C 
ATOM     10  C   UNL     1      -6.872  11.779  20.678  0.00  0.00    +0.000 C 
ATOM     11  C   UNL     1      -6.893  10.616  19.702  0.00  0.00    +0.000 C 
ATOM     12  C   UNL     1      -6.341  11.002  18.343  0.00  0.00    +0.000 C 
ATOM     13  C   UNL     1      -4.818  10.929  18.246  0.00  0.00    +0.000 C 
ENDBRANCH   4   7
BRANCH   1  15
ATOM     14  O   UNL     1      -0.766   8.864  21.269  0.00  0.00    +0.000 OA
ATOM     15  S   UNL     1       0.340   9.678  20.796  0.00  0.00    +0.000 S 
ATOM     16  O   UNL     1       1.164  10.417  21.729  0.00  0.00    +0.000 OA
BRANCH  15  17
ATOM     17  C   UNL     1       1.417   8.643  19.835  0.00  0.00    +0.000 A 
ATOM     18  C   UNL     1       1.787   7.391  20.338  0.00  0.00    +0.000 A 
ATOM     19  C   UNL     1       2.576   6.544  19.559  0.00  0.00    +0.000 A 
ATOM     20  C   UNL     1       2.981   6.953  18.291  0.00  0.00    +0.000 A 
ATOM     21  F   UNL     1       3.740   6.137  17.548  0.00  0.00    +0.000 F 
ATOM     22  C   UNL     1       2.599   8.188  17.778  0.00  0.00    +0.000 A 
ATOM     23  C   UNL     1       1.801   9.038  18.546  0.00  0.00    +0.000 A 
ENDBRANCH  15  17
ENDBRANCH   1  15
TORSDOF 3
ENDMDL
MODEL 8
REMARK VINA RESULT:      -6.8      5.970      8.710
REMARK  Name = 
REMARK  3 active torsions:
REMARK  status: ('A' for Active; 'I' for Inactive)
REMARK    1  A    between atoms: S_2  and  C_4
REMARK    2  A    between atoms: S_2  and  N_11
REMARK    3  A    between atoms: C_14  and  N_15
REMARK                            x       y       z     vdW  Elec       q    Type
REMARK                         _______ _______ _______ _____ _____    ______ ____
ROOT
ATOM      1  N   UNL     1       0.352  10.522  20.394  0.00  0.00    +0.000 NA
ATOM      2  C   UNL     1      -0.628  10.297  19.288  0.00  0.00    +0.000 C 
ATOM      3  C   UNL     1      -1.072  11.582  18.610  0.00  0.00    +0.000 C 
ATOM      4  C   UNL     1      -1.595  12.648  19.582  0.00  0.00    +0.000 C 
ATOM      5  C   UNL     1      -0.483  12.907  20.610  0.00  0.00    +0.000 C 
ATOM      6  C   UNL     1       0.043  11.666  21.317  0.00  0.00    +0.000 C 
ENDROOT
BRANCH   4   7
ATOM      7  N   UNL     1      -2.968  12.451  20.113  0.00  0.00    +0.000 NA
ATOM      8  C   UNL     1      -3.345  13.428  21.135  0.00  0.00    +0.000 C 
ATOM      9  C   UNL     1      -4.296  12.869  22.205  0.00  0.00    +0.000 C 
ATOM     10  C   UNL     1      -5.770  12.840  21.823  0.00  0.00    +0.000 C 
ATOM     11  C   UNL     1      -6.094  11.975  20.618  0.00  0.00    +0.000 C 
ATOM     12  C   UNL     1      -5.447  12.498  19.350  0.00  0.00    +0.000 C 
ATOM     13  C   UNL     1      -3.999  12.052  19.160  0.00  0.00    +0.000 C 
ENDBRANCH   4   7
BRANCH   1  15
ATOM     14  O   UNL     1      -0.596   8.486  21.656  0.00  0.00    +0.000 OA
ATOM     15  S   UNL     1       0.681   9.088  21.317  0.00  0.00    +0.000 S 
ATOM     16  O   UNL     1       1.630   9.439  22.352  0.00  0.00    +0.000 OA
BRANCH  15  17
ATOM     17  C   UNL     1       1.510   8.015  20.170  0.00  0.00    +0.000 A 
ATOM     18  C   UNL     1       1.982   8.543  18.962  0.00  0.00    +0.000 A 
ATOM     19  C   UNL     1       2.695   7.723  18.087  0.00  0.00    +0.000 A 
ATOM     20  C   UNL     1       2.930   6.393  18.427  0.00  0.00    +0.000 A 
ATOM     21  F   UNL     1       3.613   5.609  17.582  0.00  0.00    +0.000 F 
ATOM     22  C   UNL     1       2.481   5.869  19.635  0.00  0.00    +0.000 A 
ATOM     23  C   UNL     1       1.776   6.685  20.522  0.00  0.00    +0.000 A 
ENDBRANCH  15  17
ENDBRANCH   1  15
TORSDOF 3
ENDMDL
MODEL 9
REMARK VINA RESULT:      -6.8      3.436      7.332
REMARK  Name = 
REMARK  3 active torsions:
REMARK  status: ('A' for Active; 'I' for Inactive)
REMARK    1  A    between atoms: S_2  and  C_4
REMARK    2  A    between atoms: S_2  and  N_11
REMARK    3  A    between atoms: C_14  and  N_15
REMARK                            x       y       z     vdW  Elec       q    Type
REMARK                         _______ _______ _______ _____ _____    ______ ____
ROOT
ATOM      1  N   UNL     1       4.812   5.672  18.432  0.00  0.00    +0.000 NA
ATOM      2  C   UNL     1       5.602   4.452  18.083  0.00  0.00    +0.000 C 
ATOM      3  C   UNL     1       7.006   4.767  17.595  0.00  0.00    +0.000 C 
ATOM      4  C   UNL     1       7.052   5.783  16.447  0.00  0.00    +0.000 C 
ATOM      5  C   UNL     1       6.326   7.046  16.932  0.00  0.00    +0.000 C 
ATOM      6  C   UNL     1       4.919   6.817  17.467  0.00  0.00    +0.000 C 
ENDROOT
BRANCH   4   7
ATOM      7  N   UNL     1       6.693   5.278  15.096  0.00  0.00    +0.000 NA
ATOM      8  C   UNL     1       7.854   4.941  14.271  0.00  0.00    +0.000 C 
ATOM      9  C   UNL     1       7.637   5.182  12.770  0.00  0.00    +0.000 C 
ATOM     10  C   UNL     1       6.904   4.074  12.025  0.00  0.00    +0.000 C 
ATOM     11  C   UNL     1       5.493   3.809  12.517  0.00  0.00    +0.000 C 
ATOM     12  C   UNL     1       5.472   3.299  13.945  0.00  0.00    +0.000 C 
ATOM     13  C   UNL     1       5.530   4.402  15.001  0.00  0.00    +0.000 C 
ENDBRANCH   4   7
BRANCH   1  15
ATOM     14  O   UNL     1       3.091   4.571  20.002  0.00  0.00    +0.000 OA
ATOM     15  S   UNL     1       3.142   5.330  18.765  0.00  0.00    +0.000 S 
ATOM     16  O   UNL     1       2.549   4.807  17.553  0.00  0.00    +0.000 OA
BRANCH  15  17
ATOM     17  C   UNL     1       2.425   6.927  19.067  0.00  0.00    +0.000 A 
ATOM     18  C   UNL     1       2.223   7.797  17.990  0.00  0.00    +0.000 A 
ATOM     19  C   UNL     1       1.597   9.026  18.207  0.00  0.00    +0.000 A 
ATOM     20  C   UNL     1       1.179   9.366  19.491  0.00  0.00    +0.000 A 
ATOM     21  F   UNL     1       0.581  10.548  19.696  0.00  0.00    +0.000 F 
ATOM     22  C   UNL     1       1.358   8.496  20.561  0.00  0.00    +0.000 A 
ATOM     23  C   UNL     1       1.975   7.262  20.351  0.00  0.00    +0.000 A 
ENDBRANCH  15  17
ENDBRANCH   1  15
TORSDOF 3
ENDMDL
