MODEL 1
REMARK VINA RESULT:      -7.0      0.000      0.000
REMARK  Name = 
REMARK  7 active torsions:
REMARK  status: ('A' for Active; 'I' for Inactive)
REMARK    1  A    between atoms: C_1  and  C_2
REMARK    2  A    between atoms: C_2  and  C_3
REMARK    3  A    between atoms: C_2  and  C_4
REMARK    4  A    between atoms: C_2  and  S_5
REMARK    5  A    between atoms: S_5  and  C_8
REMARK    6  A    between atoms: C_11  and  N_12
REMARK    7  A    between atoms: C_15  and  N_16
REMARK                            x       y       z     vdW  Elec       q    Type
REMARK                         _______ _______ _______ _____ _____    ______ ____
ROOT
ATOM      1  C   UNL     1       3.180   5.651  19.330  0.00  0.00    +0.000 A 
ATOM      2  C   UNL     1       3.412   6.544  18.301  0.00  0.00    +0.000 A 
ATOM      3  C   UNL     1       2.737   7.767  18.346  0.00  0.00    +0.000 A 
ATOM      4  C   UNL     1       1.847   8.068  19.385  0.00  0.00    +0.000 A 
ATOM      5  C   UNL     1       1.720   7.074  20.365  0.00  0.00    +0.000 A 
ATOM      6  N   UNL     1       2.359   5.884  20.376  0.00  0.00    +0.000 NA
ENDROOT
BRANCH   4   7
ATOM      7  N   UNL     1       1.083   9.220  19.423  0.00  0.00    +0.000 N 
ATOM      8  C   UNL     1       0.968   9.992  20.667  0.00  0.00    +0.000 C 
ATOM      9  C   UNL     1      -0.489  10.413  20.847  0.00  0.00    +0.000 C 
ATOM     10  C   UNL     1      -1.044  11.131  19.610  0.00  0.00    +0.000 C 
ATOM     11  C   UNL     1      -0.758  10.354  18.321  0.00  0.00    +0.000 C 
ATOM     12  C   UNL     1       0.707   9.933  18.202  0.00  0.00    +0.000 C 
BRANCH  10  13
ATOM     13  N   UNL     1      -0.610  12.524  19.527  0.00  0.00    +0.000 N 
ATOM     14  C   UNL     1      -0.464  13.266  18.388  0.00  0.00    +0.000 A 
ATOM     15  C   UNL     1      -0.057  14.516  18.795  0.00  0.00    +0.000 A 
ATOM     16  C   UNL     1       0.023  14.428  20.194  0.00  0.00    +0.000 A 
ATOM     17  N   UNL     1      -0.305  13.216  20.643  0.00  0.00    +0.000 NA
ENDBRANCH  10  13
ENDBRANCH   4   7
BRANCH   1  18
ATOM     18  S   UNL     1       3.987   4.062  19.380  0.00  0.00    +0.000 S 
ATOM     19  O   UNL     1       3.406   3.336  20.497  0.00  0.00    +0.000 OA
ATOM     20  O   UNL     1       5.421   4.288  19.349  0.00  0.00    +0.000 OA
BRANCH  18  22
ATOM     21  C   UNL     1       4.391   3.623  16.689  0.00  0.00    +0.000 C 
ATOM     22  C   UNL     1       3.479   3.204  17.850  0.00  0.00    +0.000 C 
ATOM     23  C   UNL     1       2.033   3.624  17.536  0.00  0.00    +0.000 C 
ATOM     24  C   UNL     1       3.506   1.676  18.016  0.00  0.00    +0.000 C 
ENDBRANCH  18  22
ENDBRANCH   1  18
TORSDOF 4
ENDMDL
MODEL 2
REMARK VINA RESULT:      -6.9      1.885      2.551
REMARK  Name = 
REMARK  7 active torsions:
REMARK  status: ('A' for Active; 'I' for Inactive)
REMARK    1  A    between atoms: C_1  and  C_2
REMARK    2  A    between atoms: C_2  and  C_3
REMARK    3  A    between atoms: C_2  and  C_4
REMARK    4  A    between atoms: C_2  and  S_5
REMARK    5  A    between atoms: S_5  and  C_8
REMARK    6  A    between atoms: C_11  and  N_12
REMARK    7  A    between atoms: C_15  and  N_16
REMARK                            x       y       z     vdW  Elec       q    Type
REMARK                         _______ _______ _______ _____ _____    ______ ____
ROOT
ATOM      1  C   UNL     1       2.880   6.875  18.681  0.00  0.00    +0.000 A 
ATOM      2  C   UNL     1       2.684   7.813  17.686  0.00  0.00    +0.000 A 
ATOM      3  C   UNL     1       1.919   8.939  18.003  0.00  0.00    +0.000 A 
ATOM      4  C   UNL     1       1.357   9.100  19.276  0.00  0.00    +0.000 A 
ATOM      5  C   UNL     1       1.648   8.077  20.188  0.00  0.00    +0.000 A 
ATOM      6  N   UNL     1       2.393   6.978  19.936  0.00  0.00    +0.000 NA
ENDROOT
BRANCH   4   7
ATOM      7  N   UNL     1       0.514  10.145  19.608  0.00  0.00    +0.000 N 
ATOM      8  C   UNL     1      -0.715  10.378  18.839  0.00  0.00    +0.000 C 
ATOM      9  C   UNL     1      -0.857  11.879  18.591  0.00  0.00    +0.000 C 
ATOM     10  C   UNL     1      -0.765  12.694  19.887  0.00  0.00    +0.000 C 
ATOM     11  C   UNL     1       0.454  12.298  20.727  0.00  0.00    +0.000 C 
ATOM     12  C   UNL     1       0.566  10.786  20.923  0.00  0.00    +0.000 C 
BRANCH  10  13
ATOM     13  N   UNL     1      -2.005  12.663  20.660  0.00  0.00    +0.000 N 
ATOM     14  C   UNL     1      -2.116  12.629  22.022  0.00  0.00    +0.000 A 
ATOM     15  C   UNL     1      -3.465  12.628  22.296  0.00  0.00    +0.000 A 
ATOM     16  C   UNL     1      -4.085  12.654  21.037  0.00  0.00    +0.000 A 
ATOM     17  N   UNL     1      -3.201  12.668  20.039  0.00  0.00    +0.000 NA
ENDBRANCH  10  13
ENDBRANCH   4   7
BRANCH   1  18
ATOM     18  S   UNL     1       3.840   5.401  18.394  0.00  0.00    +0.000 S 
ATOM     19  O   UNL     1       4.729   5.255  19.534  0.00  0.00    +0.000 OA
ATOM     20  O   UNL     1       4.406   5.491  17.059  0.00  0.00    +0.000 OA
BRANCH  18  22
ATOM     21  C   UNL     1       3.270   2.766  17.815  0.00  0.00    +0.000 C 
ATOM     22  C   UNL     1       2.649   4.018  18.451  0.00  0.00    +0.000 C 
ATOM     23  C   UNL     1       1.409   4.435  17.642  0.00  0.00    +0.000 C 
ATOM     24  C   UNL     1       2.199   3.710  19.887  0.00  0.00    +0.000 C 
ENDBRANCH  18  22
ENDBRANCH   1  18
TORSDOF 4
ENDMDL
MODEL 3
REMARK VINA RESULT:      -6.9      1.074      1.348
REMARK  Name = 
REMARK  7 active torsions:
REMARK  status: ('A' for Active; 'I' for Inactive)
REMARK    1  A    between atoms: C_1  and  C_2
REMARK    2  A    between atoms: C_2  and  C_3
REMARK    3  A    between atoms: C_2  and  C_4
REMARK    4  A    between atoms: C_2  and  S_5
REMARK    5  A    between atoms: S_5  and  C_8
REMARK    6  A    between atoms: C_11  and  N_12
REMARK    7  A    between atoms: C_15  and  N_16
REMARK                            x       y       z     vdW  Elec       q    Type
REMARK                         _______ _______ _______ _____ _____    ______ ____
ROOT
ATOM      1  C   UNL     1       3.510   5.568  18.672  0.00  0.00    +0.000 A 
ATOM      2  C   UNL     1       3.437   6.531  17.683  0.00  0.00    +0.000 A 
ATOM      3  C   UNL     1       2.749   7.710  17.982  0.00  0.00    +0.000 A 
ATOM      4  C   UNL     1       2.143   7.901  19.231  0.00  0.00    +0.000 A 
ATOM      5  C   UNL     1       2.309   6.847  20.139  0.00  0.00    +0.000 A 
ATOM      6  N   UNL     1       2.975   5.695  19.905  0.00  0.00    +0.000 NA
ENDROOT
BRANCH   4   7
ATOM      7  N   UNL     1       1.371   9.006  19.540  0.00  0.00    +0.000 N 
ATOM      8  C   UNL     1       1.125   9.368  20.942  0.00  0.00    +0.000 C 
ATOM      9  C   UNL     1      -0.346   9.750  21.096  0.00  0.00    +0.000 C 
ATOM     10  C   UNL     1      -0.778  10.821  20.086  0.00  0.00    +0.000 C 
ATOM     11  C   UNL     1      -0.357  10.464  18.657  0.00  0.00    +0.000 C 
ATOM     12  C   UNL     1       1.116  10.064  18.562  0.00  0.00    +0.000 C 
BRANCH  10  13
ATOM     13  N   UNL     1      -0.348  12.163  20.473  0.00  0.00    +0.000 N 
ATOM     14  C   UNL     1      -0.254  13.256  19.656  0.00  0.00    +0.000 A 
ATOM     15  C   UNL     1       0.172  14.294  20.454  0.00  0.00    +0.000 A 
ATOM     16  C   UNL     1       0.315  13.728  21.731  0.00  0.00    +0.000 A 
ATOM     17  N   UNL     1       0.008  12.431  21.745  0.00  0.00    +0.000 NA
ENDBRANCH  10  13
ENDBRANCH   4   7
BRANCH   1  18
ATOM     18  S   UNL     1       4.362   4.025  18.406  0.00  0.00    +0.000 S 
ATOM     19  O   UNL     1       5.389   3.936  19.430  0.00  0.00    +0.000 OA
ATOM     20  O   UNL     1       4.747   3.964  17.007  0.00  0.00    +0.000 OA
BRANCH  18  22
ATOM     21  C   UNL     1       3.651   1.366  18.241  0.00  0.00    +0.000 C 
ATOM     22  C   UNL     1       3.133   2.719  18.751  0.00  0.00    +0.000 C 
ATOM     23  C   UNL     1       1.841   3.082  18.000  0.00  0.00    +0.000 C 
ATOM     24  C   UNL     1       2.804   2.624  20.249  0.00  0.00    +0.000 C 
ENDBRANCH  18  22
ENDBRANCH   1  18
TORSDOF 4
ENDMDL
MODEL 4
REMARK VINA RESULT:      -6.9      1.104      1.692
REMARK  Name = 
REMARK  7 active torsions:
REMARK  status: ('A' for Active; 'I' for Inactive)
REMARK    1  A    between atoms: C_1  and  C_2
REMARK    2  A    between atoms: C_2  and  C_3
REMARK    3  A    between atoms: C_2  and  C_4
REMARK    4  A    between atoms: C_2  and  S_5
REMARK    5  A    between atoms: S_5  and  C_8
REMARK    6  A    between atoms: C_11  and  N_12
REMARK    7  A    between atoms: C_15  and  N_16
REMARK                            x       y       z     vdW  Elec       q    Type
REMARK                         _______ _______ _______ _____ _____    ______ ____
ROOT
ATOM      1  C   UNL     1       3.522   5.546  18.660  0.00  0.00    +0.000 A 
ATOM      2  C   UNL     1       3.505   6.517  17.677  0.00  0.00    +0.000 A 
ATOM      3  C   UNL     1       2.813   7.700  17.953  0.00  0.00    +0.000 A 
ATOM      4  C   UNL     1       2.149   7.886  19.172  0.00  0.00    +0.000 A 
ATOM      5  C   UNL     1       2.261   6.823  20.078  0.00  0.00    +0.000 A 
ATOM      6  N   UNL     1       2.929   5.667  19.866  0.00  0.00    +0.000 NA
ENDROOT
BRANCH   4   7
ATOM      7  N   UNL     1       1.371   8.995  19.453  0.00  0.00    +0.000 N 
ATOM      8  C   UNL     1       1.066   9.351  20.844  0.00  0.00    +0.000 C 
ATOM      9  C   UNL     1      -0.408   9.742  20.936  0.00  0.00    +0.000 C 
ATOM     10  C   UNL     1      -0.787  10.822  19.914  0.00  0.00    +0.000 C 
ATOM     11  C   UNL     1      -0.306  10.469  18.503  0.00  0.00    +0.000 C 
ATOM     12  C   UNL     1       1.166  10.059  18.470  0.00  0.00    +0.000 C 
BRANCH  10  13
ATOM     13  N   UNL     1      -0.366  12.159  20.327  0.00  0.00    +0.000 N 
ATOM     14  C   UNL     1      -0.163  12.589  21.608  0.00  0.00    +0.000 A 
ATOM     15  C   UNL     1       0.241  13.901  21.512  0.00  0.00    +0.000 A 
ATOM     16  C   UNL     1       0.243  14.174  20.135  0.00  0.00    +0.000 A 
ATOM     17  N   UNL     1      -0.133  13.119  19.411  0.00  0.00    +0.000 NA
ENDBRANCH  10  13
ENDBRANCH   4   7
BRANCH   1  18
ATOM     18  S   UNL     1       4.374   3.998  18.422  0.00  0.00    +0.000 S 
ATOM     19  O   UNL     1       5.409   3.933  19.439  0.00  0.00    +0.000 OA
ATOM     20  O   UNL     1       4.747   3.905  17.021  0.00  0.00    +0.000 OA
BRANCH  18  22
ATOM     21  C   UNL     1       2.974   2.579  20.327  0.00  0.00    +0.000 C 
ATOM     22  C   UNL     1       3.150   2.699  18.807  0.00  0.00    +0.000 C 
ATOM     23  C   UNL     1       3.690   1.369  18.254  0.00  0.00    +0.000 C 
ATOM     24  C   UNL     1       1.793   2.975  18.141  0.00  0.00    +0.000 C 
ENDBRANCH  18  22
ENDBRANCH   1  18
TORSDOF 4
ENDMDL
MODEL 5
REMARK VINA RESULT:      -6.9      0.372      1.172
REMARK  Name = 
REMARK  7 active torsions:
REMARK  status: ('A' for Active; 'I' for Inactive)
REMARK    1  A    between atoms: C_1  and  C_2
REMARK    2  A    between atoms: C_2  and  C_3
REMARK    3  A    between atoms: C_2  and  C_4
REMARK    4  A    between atoms: C_2  and  S_5
REMARK    5  A    between atoms: S_5  and  C_8
REMARK    6  A    between atoms: C_11  and  N_12
REMARK    7  A    between atoms: C_15  and  N_16
REMARK                            x       y       z     vdW  Elec       q    Type
REMARK                         _______ _______ _______ _____ _____    ______ ____
ROOT
ATOM      1  C   UNL     1       3.175   5.636  19.340  0.00  0.00    +0.000 A 
ATOM      2  C   UNL     1       3.409   6.532  18.314  0.00  0.00    +0.000 A 
ATOM      3  C   UNL     1       2.737   7.757  18.363  0.00  0.00    +0.000 A 
ATOM      4  C   UNL     1       1.848   8.056  19.403  0.00  0.00    +0.000 A 
ATOM      5  C   UNL     1       1.719   7.059  20.380  0.00  0.00    +0.000 A 
ATOM      6  N   UNL     1       2.355   5.868  20.387  0.00  0.00    +0.000 NA
ENDROOT
BRANCH   4   7
ATOM      7  N   UNL     1       1.087   9.210  19.445  0.00  0.00    +0.000 N 
ATOM      8  C   UNL     1       0.959   9.968  20.697  0.00  0.00    +0.000 C 
ATOM      9  C   UNL     1      -0.499  10.391  20.864  0.00  0.00    +0.000 C 
ATOM     10  C   UNL     1      -1.037  11.125  19.628  0.00  0.00    +0.000 C 
ATOM     11  C   UNL     1      -0.737  10.363  18.334  0.00  0.00    +0.000 C 
ATOM     12  C   UNL     1       0.728   9.939  18.228  0.00  0.00    +0.000 C 
BRANCH  10  13
ATOM     13  N   UNL     1      -0.598  12.518  19.568  0.00  0.00    +0.000 N 
ATOM     14  C   UNL     1      -0.188  13.289  20.619  0.00  0.00    +0.000 A 
ATOM     15  C   UNL     1       0.145  14.515  20.088  0.00  0.00    +0.000 A 
ATOM     16  C   UNL     1      -0.105  14.388  18.712  0.00  0.00    +0.000 A 
ATOM     17  N   UNL     1      -0.565  13.177  18.393  0.00  0.00    +0.000 NA
ENDBRANCH  10  13
ENDBRANCH   4   7
BRANCH   1  18
ATOM     18  S   UNL     1       3.977   4.045  19.384  0.00  0.00    +0.000 S 
ATOM     19  O   UNL     1       3.412   3.326  20.513  0.00  0.00    +0.000 OA
ATOM     20  O   UNL     1       5.412   4.267  19.330  0.00  0.00    +0.000 OA
BRANCH  18  22
ATOM     21  C   UNL     1       3.535   1.662  18.069  0.00  0.00    +0.000 C 
ATOM     22  C   UNL     1       3.444   3.181  17.866  0.00  0.00    +0.000 C 
ATOM     23  C   UNL     1       4.394   3.599  16.731  0.00  0.00    +0.000 C 
ATOM     24  C   UNL     1       2.015   3.572  17.458  0.00  0.00    +0.000 C 
ENDBRANCH  18  22
ENDBRANCH   1  18
TORSDOF 4
ENDMDL
MODEL 6
REMARK VINA RESULT:      -6.9      1.436      2.174
REMARK  Name = 
REMARK  7 active torsions:
REMARK  status: ('A' for Active; 'I' for Inactive)
REMARK    1  A    between atoms: C_1  and  C_2
REMARK    2  A    between atoms: C_2  and  C_3
REMARK    3  A    between atoms: C_2  and  C_4
REMARK    4  A    between atoms: C_2  and  S_5
REMARK    5  A    between atoms: S_5  and  C_8
REMARK    6  A    between atoms: C_11  and  N_12
REMARK    7  A    between atoms: C_15  and  N_16
REMARK                            x       y       z     vdW  Elec       q    Type
REMARK                         _______ _______ _______ _____ _____    ______ ____
ROOT
ATOM      1  C   UNL     1       3.546   5.585  18.619  0.00  0.00    +0.000 A 
ATOM      2  C   UNL     1       3.598   6.558  17.639  0.00  0.00    +0.000 A 
ATOM      3  C   UNL     1       2.923   7.757  17.886  0.00  0.00    +0.000 A 
ATOM      4  C   UNL     1       2.208   7.957  19.073  0.00  0.00    +0.000 A 
ATOM      5  C   UNL     1       2.253   6.890  19.981  0.00  0.00    +0.000 A 
ATOM      6  N   UNL     1       2.901   5.719  19.797  0.00  0.00    +0.000 NA
ENDROOT
BRANCH   4   7
ATOM      7  N   UNL     1       1.445   9.084  19.322  0.00  0.00    +0.000 N 
ATOM      8  C   UNL     1       1.118  10.012  18.232  0.00  0.00    +0.000 C 
ATOM      9  C   UNL     1       1.293  11.442  18.739  0.00  0.00    +0.000 C 
ATOM     10  C   UNL     1       0.514  11.698  20.036  0.00  0.00    +0.000 C 
ATOM     11  C   UNL     1       0.774  10.611  21.084  0.00  0.00    +0.000 C 
ATOM     12  C   UNL     1       0.613   9.200  20.520  0.00  0.00    +0.000 C 
BRANCH  10  13
ATOM     13  N   UNL     1      -0.913  11.912  19.801  0.00  0.00    +0.000 N 
ATOM     14  C   UNL     1      -1.599  11.641  18.650  0.00  0.00    +0.000 A 
ATOM     15  C   UNL     1      -2.909  11.985  18.896  0.00  0.00    +0.000 A 
ATOM     16  C   UNL     1      -2.912  12.461  20.217  0.00  0.00    +0.000 A 
ATOM     17  N   UNL     1      -1.699  12.426  20.768  0.00  0.00    +0.000 NA
ENDBRANCH  10  13
ENDBRANCH   4   7
BRANCH   1  18
ATOM     18  S   UNL     1       4.370   4.017  18.416  0.00  0.00    +0.000 S 
ATOM     19  O   UNL     1       5.386   3.945  19.452  0.00  0.00    +0.000 OA
ATOM     20  O   UNL     1       4.765   3.898  17.024  0.00  0.00    +0.000 OA
BRANCH  18  22
ATOM     21  C   UNL     1       2.944   2.619  20.317  0.00  0.00    +0.000 C 
ATOM     22  C   UNL     1       3.113   2.748  18.796  0.00  0.00    +0.000 C 
ATOM     23  C   UNL     1       3.613   1.409  18.228  0.00  0.00    +0.000 C 
ATOM     24  C   UNL     1       1.761   3.068  18.141  0.00  0.00    +0.000 C 
ENDBRANCH  18  22
ENDBRANCH   1  18
TORSDOF 4
ENDMDL
MODEL 7
REMARK VINA RESULT:      -6.9      1.167      1.763
REMARK  Name = 
REMARK  7 active torsions:
REMARK  status: ('A' for Active; 'I' for Inactive)
REMARK    1  A    between atoms: C_1  and  C_2
REMARK    2  A    between atoms: C_2  and  C_3
REMARK    3  A    between atoms: C_2  and  C_4
REMARK    4  A    between atoms: C_2  and  S_5
REMARK    5  A    between atoms: S_5  and  C_8
REMARK    6  A    between atoms: C_11  and  N_12
REMARK    7  A    between atoms: C_15  and  N_16
REMARK                            x       y       z     vdW  Elec       q    Type
REMARK                         _______ _______ _______ _____ _____    ______ ____
ROOT
ATOM      1  C   UNL     1       2.981   4.950  19.880  0.00  0.00    +0.000 A 
ATOM      2  C   UNL     1       1.972   5.151  20.802  0.00  0.00    +0.000 A 
ATOM      3  C   UNL     1       1.370   6.412  20.833  0.00  0.00    +0.000 A 
ATOM      4  C   UNL     1       1.786   7.437  19.974  0.00  0.00    +0.000 A 
ATOM      5  C   UNL     1       2.810   7.087  19.083  0.00  0.00    +0.000 A 
ATOM      6  N   UNL     1       3.414   5.881  19.003  0.00  0.00    +0.000 NA
ENDROOT
BRANCH   4   7
ATOM      7  N   UNL     1       1.290   8.727  20.032  0.00  0.00    +0.000 N 
ATOM      8  C   UNL     1       1.125   9.399  21.327  0.00  0.00    +0.000 C 
ATOM      9  C   UNL     1      -0.218  10.126  21.332  0.00  0.00    +0.000 C 
ATOM     10  C   UNL     1      -0.382  11.052  20.120  0.00  0.00    +0.000 C 
ATOM     11  C   UNL     1      -0.046  10.340  18.806  0.00  0.00    +0.000 C 
ATOM     12  C   UNL     1       1.293   9.605  18.862  0.00  0.00    +0.000 C 
BRANCH  10  13
ATOM     13  N   UNL     1       0.345  12.310  20.271  0.00  0.00    +0.000 N 
ATOM     14  C   UNL     1       0.711  13.166  19.269  0.00  0.00    +0.000 A 
ATOM     15  C   UNL     1       1.354  14.218  19.880  0.00  0.00    +0.000 A 
ATOM     16  C   UNL     1       1.335  13.903  21.248  0.00  0.00    +0.000 A 
ATOM     17  N   UNL     1       0.729  12.740  21.489  0.00  0.00    +0.000 NA
ENDBRANCH  10  13
ENDBRANCH   4   7
BRANCH   1  18
ATOM     18  S   UNL     1       3.820   3.383  19.747  0.00  0.00    +0.000 S 
ATOM     19  O   UNL     1       3.558   2.665  20.982  0.00  0.00    +0.000 OA
ATOM     20  O   UNL     1       5.194   3.644  19.354  0.00  0.00    +0.000 OA
BRANCH  18  22
ATOM     21  C   UNL     1       1.532   2.151  18.824  0.00  0.00    +0.000 C 
ATOM     22  C   UNL     1       2.971   2.483  18.403  0.00  0.00    +0.000 C 
ATOM     23  C   UNL     1       3.741   1.174  18.158  0.00  0.00    +0.000 C 
ATOM     24  C   UNL     1       2.964   3.285  17.093  0.00  0.00    +0.000 C 
ENDBRANCH  18  22
ENDBRANCH   1  18
TORSDOF 4
ENDMDL
MODEL 8
REMARK VINA RESULT:      -6.8      1.484      2.192
REMARK  Name = 
REMARK  7 active torsions:
REMARK  status: ('A' for Active; 'I' for Inactive)
REMARK    1  A    between atoms: C_1  and  C_2
REMARK    2  A    between atoms: C_2  and  C_3
REMARK    3  A    between atoms: C_2  and  C_4
REMARK    4  A    between atoms: C_2  and  S_5
REMARK    5  A    between atoms: S_5  and  C_8
REMARK    6  A    between atoms: C_11  and  N_12
REMARK    7  A    between atoms: C_15  and  N_16
REMARK                            x       y       z     vdW  Elec       q    Type
REMARK                         _______ _______ _______ _____ _____    ______ ____
ROOT
ATOM      1  C   UNL     1       3.543   5.623  18.652  0.00  0.00    +0.000 A 
ATOM      2  C   UNL     1       3.538   6.571  17.647  0.00  0.00    +0.000 A 
ATOM      3  C   UNL     1       2.852   7.764  17.890  0.00  0.00    +0.000 A 
ATOM      4  C   UNL     1       2.181   7.982  19.100  0.00  0.00    +0.000 A 
ATOM      5  C   UNL     1       2.282   6.940  20.032  0.00  0.00    +0.000 A 
ATOM      6  N   UNL     1       2.943   5.776  19.852  0.00  0.00    +0.000 NA
ENDROOT
BRANCH   4   7
ATOM      7  N   UNL     1       1.408   9.102  19.350  0.00  0.00    +0.000 N 
ATOM      8  C   UNL     1       1.070  10.026  18.261  0.00  0.00    +0.000 C 
ATOM      9  C   UNL     1       1.232  11.458  18.768  0.00  0.00    +0.000 C 
ATOM     10  C   UNL     1       0.453  11.706  20.067  0.00  0.00    +0.000 C 
ATOM     11  C   UNL     1       0.726  10.623  21.114  0.00  0.00    +0.000 C 
ATOM     12  C   UNL     1       0.578   9.210  20.550  0.00  0.00    +0.000 C 
BRANCH  10  13
ATOM     13  N   UNL     1      -0.976  11.908  19.835  0.00  0.00    +0.000 N 
ATOM     14  C   UNL     1      -1.873  12.458  20.707  0.00  0.00    +0.000 A 
ATOM     15  C   UNL     1      -3.086  12.460  20.057  0.00  0.00    +0.000 A 
ATOM     16  C   UNL     1      -2.822  11.884  18.805  0.00  0.00    +0.000 A 
ATOM     17  N   UNL     1      -1.541  11.539  18.669  0.00  0.00    +0.000 NA
ENDBRANCH  10  13
ENDBRANCH   4   7
BRANCH   1  18
ATOM     18  S   UNL     1       4.388   4.065  18.457  0.00  0.00    +0.000 S 
ATOM     19  O   UNL     1       5.357   3.980  19.535  0.00  0.00    +0.000 OA
ATOM     20  O   UNL     1       4.845   3.975  17.081  0.00  0.00    +0.000 OA
BRANCH  18  22
ATOM     21  C   UNL     1       1.793   3.196  18.115  0.00  0.00    +0.000 C 
ATOM     22  C   UNL     1       3.125   2.780  18.756  0.00  0.00    +0.000 C 
ATOM     23  C   UNL     1       2.937   2.655  20.278  0.00  0.00    +0.000 C 
ATOM     24  C   UNL     1       3.564   1.410  18.216  0.00  0.00    +0.000 C 
ENDBRANCH  18  22
ENDBRANCH   1  18
TORSDOF 4
ENDMDL
MODEL 9
REMARK VINA RESULT:      -6.8      1.306      2.033
REMARK  Name = 
REMARK  7 active torsions:
REMARK  status: ('A' for Active; 'I' for Inactive)
REMARK    1  A    between atoms: C_1  and  C_2
REMARK    2  A    between atoms: C_2  and  C_3
REMARK    3  A    between atoms: C_2  and  C_4
REMARK    4  A    between atoms: C_2  and  S_5
REMARK    5  A    between atoms: S_5  and  C_8
REMARK    6  A    between atoms: C_11  and  N_12
REMARK    7  A    between atoms: C_15  and  N_16
REMARK                            x       y       z     vdW  Elec       q    Type
REMARK                         _______ _______ _______ _____ _____    ______ ____
ROOT
ATOM      1  C   UNL     1       3.064   5.125  19.671  0.00  0.00    +0.000 A 
ATOM      2  C   UNL     1       3.436   6.033  18.698  0.00  0.00    +0.000 A 
ATOM      3  C   UNL     1       2.856   7.303  18.746  0.00  0.00    +0.000 A 
ATOM      4  C   UNL     1       1.920   7.638  19.734  0.00  0.00    +0.000 A 
ATOM      5  C   UNL     1       1.648   6.624  20.662  0.00  0.00    +0.000 A 
ATOM      6  N   UNL     1       2.191   5.387  20.668  0.00  0.00    +0.000 NA
ENDROOT
BRANCH   4   7
ATOM      7  N   UNL     1       1.247   8.845  19.766  0.00  0.00    +0.000 N 
ATOM      8  C   UNL     1       0.972   9.573  18.521  0.00  0.00    +0.000 C 
ATOM      9  C   UNL     1       1.259  11.056  18.749  0.00  0.00    +0.000 C 
ATOM     10  C   UNL     1       0.522  11.610  19.975  0.00  0.00    +0.000 C 
ATOM     11  C   UNL     1       0.718  10.723  21.209  0.00  0.00    +0.000 C 
ATOM     12  C   UNL     1       0.445   9.247  20.922  0.00  0.00    +0.000 C 
BRANCH  10  13
ATOM     13  N   UNL     1      -0.888  11.883  19.706  0.00  0.00    +0.000 N 
ATOM     14  C   UNL     1      -1.546  11.681  18.525  0.00  0.00    +0.000 A 
ATOM     15  C   UNL     1      -2.851  12.061  18.745  0.00  0.00    +0.000 A 
ATOM     16  C   UNL     1      -2.880  12.484  20.083  0.00  0.00    +0.000 A 
ATOM     17  N   UNL     1      -1.687  12.386  20.669  0.00  0.00    +0.000 NA
ENDBRANCH  10  13
ENDBRANCH   4   7
BRANCH   1  18
ATOM     18  S   UNL     1       3.739   3.476  19.712  0.00  0.00    +0.000 S 
ATOM     19  O   UNL     1       3.317   2.885  20.970  0.00  0.00    +0.000 OA
ATOM     20  O   UNL     1       5.157   3.568  19.410  0.00  0.00    +0.000 OA
BRANCH  18  22
ATOM     21  C   UNL     1       1.418   2.357  18.731  0.00  0.00    +0.000 C 
ATOM     22  C   UNL     1       2.896   2.566  18.372  0.00  0.00    +0.000 C 
ATOM     23  C   UNL     1       3.582   1.196  18.234  0.00  0.00    +0.000 C 
ATOM     24  C   UNL     1       3.012   3.295  17.024  0.00  0.00    +0.000 C 
ENDBRANCH  18  22
ENDBRANCH   1  18
TORSDOF 4
ENDMDL
