MODEL 1
REMARK VINA RESULT:      -7.9      0.000      0.000
REMARK  Name = 
REMARK  8 active torsions:
REMARK  status: ('A' for Active; 'I' for Inactive)
REMARK    1  A    between atoms: C_1  and  C_2
REMARK    2  A    between atoms: C_2  and  C_3
REMARK    3  A    between atoms: C_2  and  C_4
REMARK    4  A    between atoms: C_2  and  N_6
REMARK    5  A    between atoms: C_4  and  O_5
REMARK    6  A    between atoms: C_9  and  C_10
REMARK    7  A    between atoms: C_19  and  N_20
REMARK    8  A    between atoms: C_21  and  C_22
REMARK                            x       y       z     vdW  Elec       q    Type
REMARK                         _______ _______ _______ _____ _____    ______ ____
ROOT
ATOM      1  N   UNL     1       5.860   6.052  15.971  0.00  0.00    +0.000 N 
ATOM      2  C   UNL     1       4.971   5.734  16.985  0.00  0.00    +0.000 A 
ATOM      3  N   UNL     1       4.094   6.699  17.276  0.00  0.00    +0.000 NA
ATOM      4  C   UNL     1       3.184   6.520  18.275  0.00  0.00    +0.000 A 
ATOM      5  C   UNL     1       3.132   5.284  18.947  0.00  0.00    +0.000 A 
ATOM      6  C   UNL     1       2.294   4.678  19.955  0.00  0.00    +0.000 A 
ATOM      7  C   UNL     1       2.770   3.464  20.417  0.00  0.00    +0.000 A 
ATOM      8  S   UNL     1       4.135   2.968  19.515  0.00  0.00    +0.000 S 
ATOM      9  C   UNL     1       4.123   4.392  18.576  0.00  0.00    +0.000 A 
ATOM     10  N   UNL     1       5.035   4.563  17.613  0.00  0.00    +0.000 NA
ATOM     11  H   UNL     1       5.490   6.881  15.517  0.00  0.00    +0.000 HD
ENDROOT
BRANCH   4  12
ATOM     12  C   UNL     1       2.361   7.690  18.621  0.00  0.00    +0.000 A 
ATOM     13  C   UNL     1       1.938   8.597  17.636  0.00  0.00    +0.000 A 
ATOM     14  C   UNL     1       1.162   9.716  17.961  0.00  0.00    +0.000 A 
ATOM     15  C   UNL     1       0.769   9.942  19.281  0.00  0.00    +0.000 A 
ATOM     16 CL   UNL     1      -0.209  11.325  19.614  0.00  0.00    +0.000 Cl
ATOM     17  C   UNL     1       1.182   9.062  20.280  0.00  0.00    +0.000 A 
ATOM     18 CL   UNL     1       0.695   9.226  21.929  0.00  0.00    +0.000 Cl
ATOM     19  C   UNL     1       2.004   7.978  19.952  0.00  0.00    +0.000 A 
ENDBRANCH   4  12
BRANCH   7  20
ATOM     20  C   UNL     1       2.202   2.668  21.497  0.00  0.00    +0.000 C 
ATOM     21  N   UNL     1       0.844   2.541  21.552  0.00  0.00    +0.000 N 
ATOM     22  O   UNL     1       2.874   2.106  22.364  0.00  0.00    +0.000 OA
ATOM     23  H   UNL     1       0.233   2.959  20.866  0.00  0.00    +0.000 HD
ATOM     24  H   UNL     1       0.460   1.970  22.291  0.00  0.00    +0.000 HD
ENDBRANCH   7  20
BRANCH   1  26
ATOM     25  C   UNL     1       7.422   5.740  14.138  0.00  0.00    +0.000 C 
ATOM     26  C   UNL     1       6.401   5.028  15.059  0.00  0.00    +0.000 C 
ATOM     27  C   UNL     1       5.285   4.470  14.160  0.00  0.00    +0.000 C 
BRANCH  26  28
ATOM     28  C   UNL     1       7.160   3.900  15.813  0.00  0.00    +0.000 C 
BRANCH  28  29
ATOM     29  O   UNL     1       8.009   4.410  16.844  0.00  0.00    +0.000 OA
ATOM     30  H   UNL     1       8.723   3.759  16.966  0.00  0.00    +0.000 HD
ENDBRANCH  28  29
ENDBRANCH  26  28
ENDBRANCH   1  26
BRANCH   6  31
ATOM     31  N   UNL     1       1.157   5.219  20.447  0.00  0.00    +0.000 N 
ATOM     32  H   UNL     1       0.412   5.589  19.863  0.00  0.00    +0.000 HD
ATOM     33  H   UNL     1       0.825   4.952  21.382  0.00  0.00    +0.000 HD
ENDBRANCH   6  31
TORSDOF 6
ENDMDL
MODEL 2
REMARK VINA RESULT:      -7.5      0.806      1.151
REMARK  Name = 
REMARK  8 active torsions:
REMARK  status: ('A' for Active; 'I' for Inactive)
REMARK    1  A    between atoms: C_1  and  C_2
REMARK    2  A    between atoms: C_2  and  C_3
REMARK    3  A    between atoms: C_2  and  C_4
REMARK    4  A    between atoms: C_2  and  N_6
REMARK    5  A    between atoms: C_4  and  O_5
REMARK    6  A    between atoms: C_9  and  C_10
REMARK    7  A    between atoms: C_19  and  N_20
REMARK    8  A    between atoms: C_21  and  C_22
REMARK                            x       y       z     vdW  Elec       q    Type
REMARK                         _______ _______ _______ _____ _____    ______ ____
ROOT
ATOM      1  N   UNL     1       5.927   6.110  15.998  0.00  0.00    +0.000 N 
ATOM      2  C   UNL     1       5.027   5.784  16.999  0.00  0.00    +0.000 A 
ATOM      3  N   UNL     1       4.136   6.741  17.278  0.00  0.00    +0.000 NA
ATOM      4  C   UNL     1       3.213   6.552  18.263  0.00  0.00    +0.000 A 
ATOM      5  C   UNL     1       3.164   5.316  18.935  0.00  0.00    +0.000 A 
ATOM      6  C   UNL     1       2.318   4.702  19.930  0.00  0.00    +0.000 A 
ATOM      7  C   UNL     1       2.799   3.492  20.399  0.00  0.00    +0.000 A 
ATOM      8  S   UNL     1       4.181   3.009  19.517  0.00  0.00    +0.000 S 
ATOM      9  C   UNL     1       4.169   4.434  18.577  0.00  0.00    +0.000 A 
ATOM     10  N   UNL     1       5.093   4.614  17.627  0.00  0.00    +0.000 NA
ATOM     11  H   UNL     1       5.555   6.937  15.539  0.00  0.00    +0.000 HD
ENDROOT
BRANCH   4  12
ATOM     12  C   UNL     1       2.375   7.715  18.598  0.00  0.00    +0.000 A 
ATOM     13  C   UNL     1       1.945   8.610  17.604  0.00  0.00    +0.000 A 
ATOM     14  C   UNL     1       1.154   9.721  17.918  0.00  0.00    +0.000 A 
ATOM     15  C   UNL     1       0.752   9.951  19.235  0.00  0.00    +0.000 A 
ATOM     16 CL   UNL     1      -0.245  11.324  19.554  0.00  0.00    +0.000 Cl
ATOM     17  C   UNL     1       1.172   9.083  20.242  0.00  0.00    +0.000 A 
ATOM     18 CL   UNL     1       0.676   9.252  21.888  0.00  0.00    +0.000 Cl
ATOM     19  C   UNL     1       2.008   8.008  19.926  0.00  0.00    +0.000 A 
ENDBRANCH   4  12
BRANCH   7  20
ATOM     20  C   UNL     1       2.224   2.691  21.471  0.00  0.00    +0.000 C 
ATOM     21  N   UNL     1       0.866   2.562  21.515  0.00  0.00    +0.000 N 
ATOM     22  O   UNL     1       2.889   2.125  22.340  0.00  0.00    +0.000 OA
ATOM     23  H   UNL     1       0.259   2.984  20.827  0.00  0.00    +0.000 HD
ATOM     24  H   UNL     1       0.475   1.988  22.249  0.00  0.00    +0.000 HD
ENDBRANCH   7  20
BRANCH   1  26
ATOM     25  C   UNL     1       7.245   4.071  15.978  0.00  0.00    +0.000 C 
ATOM     26  C   UNL     1       6.490   5.092  15.093  0.00  0.00    +0.000 C 
ATOM     27  C   UNL     1       7.522   5.731  14.148  0.00  0.00    +0.000 C 
BRANCH  26  28
ATOM     28  C   UNL     1       5.391   4.315  14.314  0.00  0.00    +0.000 C 
BRANCH  28  29
ATOM     29  O   UNL     1       5.942   3.385  13.379  0.00  0.00    +0.000 OA
ATOM     30  H   UNL     1       5.991   3.844  12.522  0.00  0.00    +0.000 HD
ENDBRANCH  28  29
ENDBRANCH  26  28
ENDBRANCH   1  26
BRANCH   6  31
ATOM     31  N   UNL     1       1.168   5.232  20.407  0.00  0.00    +0.000 N 
ATOM     32  H   UNL     1       0.271   4.759  20.360  0.00  0.00    +0.000 HD
ATOM     33  H   UNL     1       1.200   5.940  21.150  0.00  0.00    +0.000 HD
ENDBRANCH   6  31
TORSDOF 6
ENDMDL
MODEL 3
REMARK VINA RESULT:      -7.4      3.756      6.384
REMARK  Name = 
REMARK  8 active torsions:
REMARK  status: ('A' for Active; 'I' for Inactive)
REMARK    1  A    between atoms: C_1  and  C_2
REMARK    2  A    between atoms: C_2  and  C_3
REMARK    3  A    between atoms: C_2  and  C_4
REMARK    4  A    between atoms: C_2  and  N_6
REMARK    5  A    between atoms: C_4  and  O_5
REMARK    6  A    between atoms: C_9  and  C_10
REMARK    7  A    between atoms: C_19  and  N_20
REMARK    8  A    between atoms: C_21  and  C_22
REMARK                            x       y       z     vdW  Elec       q    Type
REMARK                         _______ _______ _______ _____ _____    ______ ____
ROOT
ATOM      1  N   UNL     1       1.668   9.356  17.953  0.00  0.00    +0.000 N 
ATOM      2  C   UNL     1       2.217   8.140  18.325  0.00  0.00    +0.000 A 
ATOM      3  N   UNL     1       3.278   7.765  17.603  0.00  0.00    +0.000 NA
ATOM      4  C   UNL     1       3.891   6.574  17.854  0.00  0.00    +0.000 A 
ATOM      5  C   UNL     1       3.440   5.777  18.922  0.00  0.00    +0.000 A 
ATOM      6  C   UNL     1       3.855   4.547  19.554  0.00  0.00    +0.000 A 
ATOM      7  C   UNL     1       2.955   4.074  20.493  0.00  0.00    +0.000 A 
ATOM      8  S   UNL     1       1.693   5.200  20.741  0.00  0.00    +0.000 S 
ATOM      9  C   UNL     1       2.310   6.262  19.557  0.00  0.00    +0.000 A 
ATOM     10  N   UNL     1       1.686   7.419  19.308  0.00  0.00    +0.000 NA
ATOM     11  H   UNL     1       2.349   9.803  17.347  0.00  0.00    +0.000 HD
ENDROOT
BRANCH   4  12
ATOM     12  C   UNL     1       4.954   6.182  16.914  0.00  0.00    +0.000 A 
ATOM     13  C   UNL     1       6.276   6.621  17.089  0.00  0.00    +0.000 A 
ATOM     14  C   UNL     1       7.290   6.257  16.193  0.00  0.00    +0.000 A 
ATOM     15  C   UNL     1       7.007   5.423  15.110  0.00  0.00    +0.000 A 
ATOM     16 CL   UNL     1       8.303   4.989  14.057  0.00  0.00    +0.000 Cl
ATOM     17  C   UNL     1       5.700   4.980  14.909  0.00  0.00    +0.000 A 
ATOM     18 CL   UNL     1       5.268   3.897  13.634  0.00  0.00    +0.000 Cl
ATOM     19  C   UNL     1       4.686   5.395  15.777  0.00  0.00    +0.000 A 
ENDBRANCH   4  12
BRANCH   7  20
ATOM     20  C   UNL     1       3.046   2.813  21.218  0.00  0.00    +0.000 C 
ATOM     21  N   UNL     1       1.970   2.425  21.962  0.00  0.00    +0.000 N 
ATOM     22  O   UNL     1       4.036   2.080  21.201  0.00  0.00    +0.000 OA
ATOM     23  H   UNL     1       1.120   2.967  22.009  0.00  0.00    +0.000 HD
ATOM     24  H   UNL     1       2.032   1.540  22.444  0.00  0.00    +0.000 HD
ENDBRANCH   7  20
BRANCH   1  26
ATOM     25  C   UNL     1      -0.483  10.310  18.551  0.00  0.00    +0.000 C 
ATOM     26  C   UNL     1       1.017  10.249  18.928  0.00  0.00    +0.000 C 
ATOM     27  C   UNL     1       1.580  11.676  18.803  0.00  0.00    +0.000 C 
BRANCH  26  28
ATOM     28  C   UNL     1       1.112   9.711  20.384  0.00  0.00    +0.000 C 
BRANCH  28  29
ATOM     29  O   UNL     1      -0.142   9.227  20.868  0.00  0.00    +0.000 OA
ATOM     30  H   UNL     1      -0.803   9.421  20.179  0.00  0.00    +0.000 HD
ENDBRANCH  28  29
ENDBRANCH  26  28
ENDBRANCH   1  26
BRANCH   6  31
ATOM     31  N   UNL     1       4.993   3.874  19.271  0.00  0.00    +0.000 N 
ATOM     32  H   UNL     1       5.438   3.227  19.916  0.00  0.00    +0.000 HD
ATOM     33  H   UNL     1       5.251   3.691  18.293  0.00  0.00    +0.000 HD
ENDBRANCH   6  31
TORSDOF 6
ENDMDL
MODEL 4
REMARK VINA RESULT:      -7.2      0.892      1.262
REMARK  Name = 
REMARK  8 active torsions:
REMARK  status: ('A' for Active; 'I' for Inactive)
REMARK    1  A    between atoms: C_1  and  C_2
REMARK    2  A    between atoms: C_2  and  C_3
REMARK    3  A    between atoms: C_2  and  C_4
REMARK    4  A    between atoms: C_2  and  N_6
REMARK    5  A    between atoms: C_4  and  O_5
REMARK    6  A    between atoms: C_9  and  C_10
REMARK    7  A    between atoms: C_19  and  N_20
REMARK    8  A    between atoms: C_21  and  C_22
REMARK                            x       y       z     vdW  Elec       q    Type
REMARK                         _______ _______ _______ _____ _____    ______ ____
ROOT
ATOM      1  N   UNL     1       5.830   6.156  16.092  0.00  0.00    +0.000 N 
ATOM      2  C   UNL     1       4.949   5.809  17.102  0.00  0.00    +0.000 A 
ATOM      3  N   UNL     1       4.045   6.748  17.397  0.00  0.00    +0.000 NA
ATOM      4  C   UNL     1       3.138   6.538  18.393  0.00  0.00    +0.000 A 
ATOM      5  C   UNL     1       3.119   5.298  19.058  0.00  0.00    +0.000 A 
ATOM      6  C   UNL     1       2.296   4.664  20.061  0.00  0.00    +0.000 A 
ATOM      7  C   UNL     1       2.804   3.461  20.517  0.00  0.00    +0.000 A 
ATOM      8  S   UNL     1       4.184   3.007  19.616  0.00  0.00    +0.000 S 
ATOM      9  C   UNL     1       4.134   4.435  18.684  0.00  0.00    +0.000 A 
ATOM     10  N   UNL     1       5.043   4.637  17.723  0.00  0.00    +0.000 NA
ATOM     11  H   UNL     1       5.439   6.977  15.641  0.00  0.00    +0.000 HD
ENDROOT
BRANCH   4  12
ATOM     12  C   UNL     1       2.283   7.684  18.743  0.00  0.00    +0.000 A 
ATOM     13  C   UNL     1       1.812   8.567  17.758  0.00  0.00    +0.000 A 
ATOM     14  C   UNL     1       1.005   9.663  18.087  0.00  0.00    +0.000 A 
ATOM     15  C   UNL     1       0.629   9.888  19.413  0.00  0.00    +0.000 A 
ATOM     16 CL   UNL     1      -0.388  11.241  19.751  0.00  0.00    +0.000 Cl
ATOM     17  C   UNL     1       1.090   9.031  20.411  0.00  0.00    +0.000 A 
ATOM     18 CL   UNL     1       0.628   9.195  22.068  0.00  0.00    +0.000 Cl
ATOM     19  C   UNL     1       1.941   7.973  20.079  0.00  0.00    +0.000 A 
ENDBRANCH   4  12
BRANCH   7  20
ATOM     20  C   UNL     1       2.256   2.644  21.592  0.00  0.00    +0.000 C 
ATOM     21  N   UNL     1       3.029   1.632  22.083  0.00  0.00    +0.000 N 
ATOM     22  O   UNL     1       1.138   2.811  22.082  0.00  0.00    +0.000 OA
ATOM     23  H   UNL     1       3.961   1.447  21.742  0.00  0.00    +0.000 HD
ATOM     24  H   UNL     1       2.651   1.084  22.843  0.00  0.00    +0.000 HD
ENDBRANCH   7  20
BRANCH   1  26
ATOM     25  C   UNL     1       5.234   4.241  14.722  0.00  0.00    +0.000 C 
ATOM     26  C   UNL     1       6.400   5.152  15.174  0.00  0.00    +0.000 C 
ATOM     27  C   UNL     1       7.414   4.265  15.917  0.00  0.00    +0.000 C 
BRANCH  26  28
ATOM     28  C   UNL     1       7.014   5.795  13.898  0.00  0.00    +0.000 C 
BRANCH  28  29
ATOM     29  O   UNL     1       8.436   5.654  13.848  0.00  0.00    +0.000 OA
ATOM     30  H   UNL     1       8.793   6.513  13.561  0.00  0.00    +0.000 HD
ENDBRANCH  28  29
ENDBRANCH  26  28
ENDBRANCH   1  26
BRANCH   6  31
ATOM     31  N   UNL     1       1.143   5.171  20.554  0.00  0.00    +0.000 N 
ATOM     32  H   UNL     1       0.962   5.292  21.545  0.00  0.00    +0.000 HD
ATOM     33  H   UNL     1       0.565   5.790  19.972  0.00  0.00    +0.000 HD
ENDBRANCH   6  31
TORSDOF 6
ENDMDL
MODEL 5
REMARK VINA RESULT:      -7.2      3.902      6.336
REMARK  Name = 
REMARK  8 active torsions:
REMARK  status: ('A' for Active; 'I' for Inactive)
REMARK    1  A    between atoms: C_1  and  C_2
REMARK    2  A    between atoms: C_2  and  C_3
REMARK    3  A    between atoms: C_2  and  C_4
REMARK    4  A    between atoms: C_2  and  N_6
REMARK    5  A    between atoms: C_4  and  O_5
REMARK    6  A    between atoms: C_9  and  C_10
REMARK    7  A    between atoms: C_19  and  N_20
REMARK    8  A    between atoms: C_21  and  C_22
REMARK                            x       y       z     vdW  Elec       q    Type
REMARK                         _______ _______ _______ _____ _____    ______ ____
ROOT
ATOM      1  N   UNL     1       1.700   9.339  17.844  0.00  0.00    +0.000 N 
ATOM      2  C   UNL     1       2.238   8.125  18.237  0.00  0.00    +0.000 A 
ATOM      3  N   UNL     1       3.299   7.731  17.526  0.00  0.00    +0.000 NA
ATOM      4  C   UNL     1       3.902   6.540  17.797  0.00  0.00    +0.000 A 
ATOM      5  C   UNL     1       3.441   5.763  18.876  0.00  0.00    +0.000 A 
ATOM      6  C   UNL     1       3.843   4.539  19.528  0.00  0.00    +0.000 A 
ATOM      7  C   UNL     1       2.936   4.088  20.471  0.00  0.00    +0.000 A 
ATOM      8  S   UNL     1       1.681   5.227  20.696  0.00  0.00    +0.000 S 
ATOM      9  C   UNL     1       2.312   6.266  19.498  0.00  0.00    +0.000 A 
ATOM     10  N   UNL     1       1.697   7.423  19.229  0.00  0.00    +0.000 NA
ATOM     11  H   UNL     1       2.388   9.771  17.234  0.00  0.00    +0.000 HD
ENDROOT
BRANCH   4  12
ATOM     12  C   UNL     1       4.966   6.125  16.868  0.00  0.00    +0.000 A 
ATOM     13  C   UNL     1       6.298   6.523  17.065  0.00  0.00    +0.000 A 
ATOM     14  C   UNL     1       7.312   6.138  16.179  0.00  0.00    +0.000 A 
ATOM     15  C   UNL     1       7.020   5.322  15.085  0.00  0.00    +0.000 A 
ATOM     16 CL   UNL     1       8.318   4.859  14.045  0.00  0.00    +0.000 Cl
ATOM     17  C   UNL     1       5.704   4.919  14.862  0.00  0.00    +0.000 A 
ATOM     18 CL   UNL     1       5.257   3.861  13.572  0.00  0.00    +0.000 Cl
ATOM     19  C   UNL     1       4.690   5.356  15.720  0.00  0.00    +0.000 A 
ENDBRANCH   4  12
BRANCH   7  20
ATOM     20  C   UNL     1       3.014   2.838  21.215  0.00  0.00    +0.000 C 
ATOM     21  N   UNL     1       1.926   2.461  21.948  0.00  0.00    +0.000 N 
ATOM     22  O   UNL     1       4.003   2.103  21.224  0.00  0.00    +0.000 OA
ATOM     23  H   UNL     1       1.076   3.005  21.974  0.00  0.00    +0.000 HD
ATOM     24  H   UNL     1       1.979   1.583  22.444  0.00  0.00    +0.000 HD
ENDBRANCH   7  20
BRANCH   1  26
ATOM     25  C   UNL     1       1.264   9.650  20.212  0.00  0.00    +0.000 C 
ATOM     26  C   UNL     1       1.052  10.253  18.802  0.00  0.00    +0.000 C 
ATOM     27  C   UNL     1      -0.464  10.306  18.548  0.00  0.00    +0.000 C 
BRANCH  26  28
ATOM     28  C   UNL     1       1.692  11.670  18.798  0.00  0.00    +0.000 C 
BRANCH  28  29
ATOM     29  O   UNL     1       2.332  11.975  17.557  0.00  0.00    +0.000 OA
ATOM     30  H   UNL     1       3.075  11.352  17.464  0.00  0.00    +0.000 HD
ENDBRANCH  28  29
ENDBRANCH  26  28
ENDBRANCH   1  26
BRANCH   6  31
ATOM     31  N   UNL     1       4.977   3.853  19.261  0.00  0.00    +0.000 N 
ATOM     32  H   UNL     1       5.779   4.256  18.786  0.00  0.00    +0.000 HD
ATOM     33  H   UNL     1       5.231   3.038  19.834  0.00  0.00    +0.000 HD
ENDBRANCH   6  31
TORSDOF 6
ENDMDL
MODEL 6
REMARK VINA RESULT:      -7.1      4.053      6.457
REMARK  Name = 
REMARK  8 active torsions:
REMARK  status: ('A' for Active; 'I' for Inactive)
REMARK    1  A    between atoms: C_1  and  C_2
REMARK    2  A    between atoms: C_2  and  C_3
REMARK    3  A    between atoms: C_2  and  C_4
REMARK    4  A    between atoms: C_2  and  N_6
REMARK    5  A    between atoms: C_4  and  O_5
REMARK    6  A    between atoms: C_9  and  C_10
REMARK    7  A    between atoms: C_19  and  N_20
REMARK    8  A    between atoms: C_21  and  C_22
REMARK                            x       y       z     vdW  Elec       q    Type
REMARK                         _______ _______ _______ _____ _____    ______ ____
ROOT
ATOM      1  N   UNL     1       1.626   9.330  17.918  0.00  0.00    +0.000 N 
ATOM      2  C   UNL     1       2.183   8.121  18.299  0.00  0.00    +0.000 A 
ATOM      3  N   UNL     1       3.251   7.751  17.585  0.00  0.00    +0.000 NA
ATOM      4  C   UNL     1       3.873   6.567  17.845  0.00  0.00    +0.000 A 
ATOM      5  C   UNL     1       3.423   5.771  18.915  0.00  0.00    +0.000 A 
ATOM      6  C   UNL     1       3.844   4.548  19.555  0.00  0.00    +0.000 A 
ATOM      7  C   UNL     1       2.943   4.073  20.492  0.00  0.00    +0.000 A 
ATOM      8  S   UNL     1       1.671   5.189  20.728  0.00  0.00    +0.000 S 
ATOM      9  C   UNL     1       2.285   6.251  19.541  0.00  0.00    +0.000 A 
ATOM     10  N   UNL     1       1.653   7.400  19.283  0.00  0.00    +0.000 NA
ATOM     11  H   UNL     1       2.307   9.780  17.313  0.00  0.00    +0.000 HD
ENDROOT
BRANCH   4  12
ATOM     12  C   UNL     1       4.943   6.178  16.912  0.00  0.00    +0.000 A 
ATOM     13  C   UNL     1       6.263   6.621  17.097  0.00  0.00    +0.000 A 
ATOM     14  C   UNL     1       7.284   6.261  16.208  0.00  0.00    +0.000 A 
ATOM     15  C   UNL     1       7.011   5.426  15.123  0.00  0.00    +0.000 A 
ATOM     16 CL   UNL     1       8.317   4.997  14.079  0.00  0.00    +0.000 Cl
ATOM     17  C   UNL     1       5.708   4.979  14.912  0.00  0.00    +0.000 A 
ATOM     18 CL   UNL     1       5.288   3.896  13.634  0.00  0.00    +0.000 Cl
ATOM     19  C   UNL     1       4.686   5.391  15.773  0.00  0.00    +0.000 A 
ENDBRANCH   4  12
BRANCH   7  20
ATOM     20  C   UNL     1       3.041   2.816  21.224  0.00  0.00    +0.000 C 
ATOM     21  N   UNL     1       1.969   2.430  21.976  0.00  0.00    +0.000 N 
ATOM     22  O   UNL     1       4.032   2.085  21.206  0.00  0.00    +0.000 OA
ATOM     23  H   UNL     1       1.118   2.971  22.025  0.00  0.00    +0.000 HD
ATOM     24  H   UNL     1       2.036   1.548  22.463  0.00  0.00    +0.000 HD
ENDBRANCH   7  20
BRANCH   1  26
ATOM     25  C   UNL     1       1.637  11.611  18.751  0.00  0.00    +0.000 C 
ATOM     26  C   UNL     1       0.963  10.224  18.885  0.00  0.00    +0.000 C 
ATOM     27  C   UNL     1       1.208   9.731  20.322  0.00  0.00    +0.000 C 
BRANCH  26  28
ATOM     28  C   UNL     1      -0.551  10.408  18.583  0.00  0.00    +0.000 C 
BRANCH  28  29
ATOM     29  O   UNL     1      -0.830  11.656  17.943  0.00  0.00    +0.000 OA
ATOM     30  H   UNL     1      -0.266  11.698  17.151  0.00  0.00    +0.000 HD
ENDBRANCH  28  29
ENDBRANCH  26  28
ENDBRANCH   1  26
BRANCH   6  31
ATOM     31  N   UNL     1       4.989   3.882  19.282  0.00  0.00    +0.000 N 
ATOM     32  H   UNL     1       5.014   2.948  18.884  0.00  0.00    +0.000 HD
ATOM     33  H   UNL     1       5.857   4.405  19.109  0.00  0.00    +0.000 HD
ENDBRANCH   6  31
TORSDOF 6
ENDMDL
MODEL 7
REMARK VINA RESULT:      -6.6      9.074     10.301
REMARK  Name = 
REMARK  8 active torsions:
REMARK  status: ('A' for Active; 'I' for Inactive)
REMARK    1  A    between atoms: C_1  and  C_2
REMARK    2  A    between atoms: C_2  and  C_3
REMARK    3  A    between atoms: C_2  and  C_4
REMARK    4  A    between atoms: C_2  and  N_6
REMARK    5  A    between atoms: C_4  and  O_5
REMARK    6  A    between atoms: C_9  and  C_10
REMARK    7  A    between atoms: C_19  and  N_20
REMARK    8  A    between atoms: C_21  and  C_22
REMARK                            x       y       z     vdW  Elec       q    Type
REMARK                         _______ _______ _______ _____ _____    ______ ____
ROOT
ATOM      1  N   UNL     1      -1.657  11.331  17.386  0.00  0.00    +0.000 N 
ATOM      2  C   UNL     1      -1.399  12.115  18.499  0.00  0.00    +0.000 A 
ATOM      3  N   UNL     1      -0.353  12.937  18.368  0.00  0.00    +0.000 NA
ATOM      4  C   UNL     1       0.021  13.740  19.403  0.00  0.00    +0.000 A 
ATOM      5  C   UNL     1      -0.746  13.746  20.584  0.00  0.00    +0.000 A 
ATOM      6  C   UNL     1      -0.747  14.486  21.824  0.00  0.00    +0.000 A 
ATOM      7  C   UNL     1      -1.630  13.989  22.766  0.00  0.00    +0.000 A 
ATOM      8  S   UNL     1      -2.583  12.736  22.100  0.00  0.00    +0.000 S 
ATOM      9  C   UNL     1      -1.772  12.818  20.600  0.00  0.00    +0.000 A 
ATOM     10  N   UNL     1      -2.137  12.009  19.600  0.00  0.00    +0.000 NA
ATOM     11  H   UNL     1      -1.116  11.730  16.625  0.00  0.00    +0.000 HD
ENDROOT
BRANCH   4  12
ATOM     12  C   UNL     1       1.269  14.498  19.218  0.00  0.00    +0.000 A 
ATOM     13  C   UNL     1       2.430  14.172  19.939  0.00  0.00    +0.000 A 
ATOM     14  C   UNL     1       3.618  14.895  19.773  0.00  0.00    +0.000 A 
ATOM     15  C   UNL     1       3.679  15.950  18.860  0.00  0.00    +0.000 A 
ATOM     16 CL   UNL     1       5.179  16.785  18.681  0.00  0.00    +0.000 Cl
ATOM     17  C   UNL     1       2.538  16.299  18.138  0.00  0.00    +0.000 A 
ATOM     18 CL   UNL     1       2.536  17.547  16.944  0.00  0.00    +0.000 Cl
ATOM     19  C   UNL     1       1.343  15.607  18.353  0.00  0.00    +0.000 A 
ENDBRANCH   4  12
BRANCH   7  20
ATOM     20  C   UNL     1      -1.782  14.456  24.138  0.00  0.00    +0.000 C 
ATOM     21  N   UNL     1      -3.019  14.372  24.708  0.00  0.00    +0.000 N 
ATOM     22  O   UNL     1      -0.862  14.922  24.812  0.00  0.00    +0.000 OA
ATOM     23  H   UNL     1      -3.815  13.986  24.222  0.00  0.00    +0.000 HD
ATOM     24  H   UNL     1      -3.112  14.678  25.666  0.00  0.00    +0.000 HD
ENDBRANCH   7  20
BRANCH   1  26
ATOM     25  C   UNL     1      -3.211   9.475  17.578  0.00  0.00    +0.000 C 
ATOM     26  C   UNL     1      -3.024  10.910  17.029  0.00  0.00    +0.000 C 
ATOM     27  C   UNL     1      -3.179  10.841  15.500  0.00  0.00    +0.000 C 
BRANCH  26  28
ATOM     28  C   UNL     1      -4.113  11.807  17.684  0.00  0.00    +0.000 C 
BRANCH  28  29
ATOM     29  O   UNL     1      -4.933  12.463  16.714  0.00  0.00    +0.000 OA
ATOM     30  H   UNL     1      -5.717  11.901  16.582  0.00  0.00    +0.000 HD
ENDBRANCH  28  29
ENDBRANCH  26  28
ENDBRANCH   1  26
BRANCH   6  31
ATOM     31  N   UNL     1       0.038  15.554  22.092  0.00  0.00    +0.000 N 
ATOM     32  H   UNL     1      -0.315  16.432  22.460  0.00  0.00    +0.000 HD
ATOM     33  H   UNL     1       1.037  15.419  22.294  0.00  0.00    +0.000 HD
ENDBRANCH   6  31
TORSDOF 6
ENDMDL
MODEL 8
REMARK VINA RESULT:      -6.6      7.317     11.330
REMARK  Name = 
REMARK  8 active torsions:
REMARK  status: ('A' for Active; 'I' for Inactive)
REMARK    1  A    between atoms: C_1  and  C_2
REMARK    2  A    between atoms: C_2  and  C_3
REMARK    3  A    between atoms: C_2  and  C_4
REMARK    4  A    between atoms: C_2  and  N_6
REMARK    5  A    between atoms: C_4  and  O_5
REMARK    6  A    between atoms: C_9  and  C_10
REMARK    7  A    between atoms: C_19  and  N_20
REMARK    8  A    between atoms: C_21  and  C_22
REMARK                            x       y       z     vdW  Elec       q    Type
REMARK                         _______ _______ _______ _____ _____    ______ ____
ROOT
ATOM      1  N   UNL     1      -3.616  12.338  23.350  0.00  0.00    +0.000 N 
ATOM      2  C   UNL     1      -2.375  12.673  22.836  0.00  0.00    +0.000 A 
ATOM      3  N   UNL     1      -1.729  11.666  22.241  0.00  0.00    +0.000 NA
ATOM      4  C   UNL     1      -0.485  11.861  21.719  0.00  0.00    +0.000 A 
ATOM      5  C   UNL     1       0.082  13.149  21.750  0.00  0.00    +0.000 A 
ATOM      6  C   UNL     1       1.281  13.774  21.246  0.00  0.00    +0.000 A 
ATOM      7  C   UNL     1       1.465  15.069  21.698  0.00  0.00    +0.000 A 
ATOM      8  S   UNL     1       0.107  15.596  22.592  0.00  0.00    +0.000 S 
ATOM      9  C   UNL     1      -0.674  14.087  22.432  0.00  0.00    +0.000 A 
ATOM     10  N   UNL     1      -1.886  13.903  22.967  0.00  0.00    +0.000 NA
ATOM     11  H   UNL     1      -3.855  11.435  22.951  0.00  0.00    +0.000 HD
ENDROOT
BRANCH   4  12
ATOM     12  C   UNL     1       0.205  10.661  21.219  0.00  0.00    +0.000 A 
ATOM     13  C   UNL     1       0.647   9.659  22.099  0.00  0.00    +0.000 A 
ATOM     14  C   UNL     1       1.311   8.519  21.629  0.00  0.00    +0.000 A 
ATOM     15  C   UNL     1       1.528   8.342  20.262  0.00  0.00    +0.000 A 
ATOM     16 CL   UNL     1       2.329   6.904  19.744  0.00  0.00    +0.000 Cl
ATOM     17  C   UNL     1       1.107   9.326  19.368  0.00  0.00    +0.000 A 
ATOM     18 CL   UNL     1       1.276   9.167  17.657  0.00  0.00    +0.000 Cl
ATOM     19  C   UNL     1       0.495  10.487  19.852  0.00  0.00    +0.000 A 
ENDBRANCH   4  12
BRANCH   7  20
ATOM     20  C   UNL     1       2.624  15.916  21.446  0.00  0.00    +0.000 C 
ATOM     21  N   UNL     1       3.263  16.461  22.522  0.00  0.00    +0.000 N 
ATOM     22  O   UNL     1       3.060  16.169  20.321  0.00  0.00    +0.000 OA
ATOM     23  H   UNL     1       2.972  16.283  23.472  0.00  0.00    +0.000 HD
ATOM     24  H   UNL     1       4.079  17.029  22.340  0.00  0.00    +0.000 HD
ENDBRANCH   7  20
BRANCH   1  26
ATOM     25  C   UNL     1      -5.902  12.602  24.124  0.00  0.00    +0.000 C 
ATOM     26  C   UNL     1      -4.724  13.308  23.409  0.00  0.00    +0.000 C 
ATOM     27  C   UNL     1      -5.197  13.666  21.990  0.00  0.00    +0.000 C 
BRANCH  26  28
ATOM     28  C   UNL     1      -4.364  14.573  24.239  0.00  0.00    +0.000 C 
BRANCH  28  29
ATOM     29  O   UNL     1      -3.654  14.253  25.437  0.00  0.00    +0.000 OA
ATOM     30  H   UNL     1      -3.138  15.043  25.677  0.00  0.00    +0.000 HD
ENDBRANCH  28  29
ENDBRANCH  26  28
ENDBRANCH   1  26
BRANCH   6  31
ATOM     31  N   UNL     1       2.179  13.183  20.426  0.00  0.00    +0.000 N 
ATOM     32  H   UNL     1       2.523  12.237  20.559  0.00  0.00    +0.000 HD
ATOM     33  H   UNL     1       2.272  13.500  19.453  0.00  0.00    +0.000 HD
ENDBRANCH   6  31
TORSDOF 6
ENDMDL
MODEL 9
REMARK VINA RESULT:      -6.5      6.207     10.070
REMARK  Name = 
REMARK  8 active torsions:
REMARK  status: ('A' for Active; 'I' for Inactive)
REMARK    1  A    between atoms: C_1  and  C_2
REMARK    2  A    between atoms: C_2  and  C_3
REMARK    3  A    between atoms: C_2  and  C_4
REMARK    4  A    between atoms: C_2  and  N_6
REMARK    5  A    between atoms: C_4  and  O_5
REMARK    6  A    between atoms: C_9  and  C_10
REMARK    7  A    between atoms: C_19  and  N_20
REMARK    8  A    between atoms: C_21  and  C_22
REMARK                            x       y       z     vdW  Elec       q    Type
REMARK                         _______ _______ _______ _____ _____    ______ ____
ROOT
ATOM      1  N   UNL     1      -1.370  11.936  22.602  0.00  0.00    +0.000 N 
ATOM      2  C   UNL     1      -0.432  12.122  21.601  0.00  0.00    +0.000 A 
ATOM      3  N   UNL     1      -0.050  11.001  20.981  0.00  0.00    +0.000 NA
ATOM      4  C   UNL     1       0.889  11.048  19.995  0.00  0.00    +0.000 A 
ATOM      5  C   UNL     1       1.400  12.295  19.588  0.00  0.00    +0.000 A 
ATOM      6  C   UNL     1       2.298  12.771  18.563  0.00  0.00    +0.000 A 
ATOM      7  C   UNL     1       2.620  14.111  18.684  0.00  0.00    +0.000 A 
ATOM      8  S   UNL     1       1.707  14.841  19.931  0.00  0.00    +0.000 S 
ATOM      9  C   UNL     1       0.952  13.367  20.341  0.00  0.00    +0.000 A 
ATOM     10  N   UNL     1       0.047  13.332  21.325  0.00  0.00    +0.000 NA
ATOM     11  H   UNL     1      -1.728  10.993  22.485  0.00  0.00    +0.000 HD
ENDROOT
BRANCH   4  12
ATOM     12  C   UNL     1       1.352   9.751  19.478  0.00  0.00    +0.000 A 
ATOM     13  C   UNL     1       1.712   9.593  18.129  0.00  0.00    +0.000 A 
ATOM     14  C   UNL     1       2.146   8.359  17.630  0.00  0.00    +0.000 A 
ATOM     15  C   UNL     1       2.253   7.255  18.477  0.00  0.00    +0.000 A 
ATOM     16 CL   UNL     1       2.819   5.767  17.808  0.00  0.00    +0.000 Cl
ATOM     17  C   UNL     1       1.894   7.382  19.818  0.00  0.00    +0.000 A 
ATOM     18 CL   UNL     1       2.052   6.089  20.953  0.00  0.00    +0.000 Cl
ATOM     19  C   UNL     1       1.409   8.604  20.294  0.00  0.00    +0.000 A 
ENDBRANCH   4  12
BRANCH   7  20
ATOM     20  C   UNL     1       3.575  14.848  17.865  0.00  0.00    +0.000 C 
ATOM     21  N   UNL     1       4.883  14.461  17.906  0.00  0.00    +0.000 N 
ATOM     22  O   UNL     1       3.271  15.798  17.142  0.00  0.00    +0.000 OA
ATOM     23  H   UNL     1       5.200  13.682  18.463  0.00  0.00    +0.000 HD
ATOM     24  H   UNL     1       5.535  14.963  17.320  0.00  0.00    +0.000 HD
ENDBRANCH   7  20
BRANCH   1  26
ATOM     25  C   UNL     1      -3.443  12.272  23.820  0.00  0.00    +0.000 C 
ATOM     26  C   UNL     1      -2.385  12.956  22.921  0.00  0.00    +0.000 C 
ATOM     27  C   UNL     1      -3.101  13.416  21.639  0.00  0.00    +0.000 C 
BRANCH  26  28
ATOM     28  C   UNL     1      -1.796  14.153  23.720  0.00  0.00    +0.000 C 
BRANCH  28  29
ATOM     29  O   UNL     1      -1.558  15.294  22.892  0.00  0.00    +0.000 OA
ATOM     30  H   UNL     1      -2.262  15.305  22.220  0.00  0.00    +0.000 HD
ENDBRANCH  28  29
ENDBRANCH  26  28
ENDBRANCH   1  26
BRANCH   6  31
ATOM     31  N   UNL     1       2.818  12.011  17.572  0.00  0.00    +0.000 N 
ATOM     32  H   UNL     1       3.478  11.256  17.731  0.00  0.00    +0.000 HD
ATOM     33  H   UNL     1       2.308  11.905  16.686  0.00  0.00    +0.000 HD
ENDBRANCH   6  31
TORSDOF 6
ENDMDL
