MODEL 1
REMARK VINA RESULT:      -8.0      0.000      0.000
REMARK  Name = 
REMARK  5 active torsions:
REMARK  status: ('A' for Active; 'I' for Inactive)
REMARK    1  A    between atoms: C_1  and  C_2
REMARK    2  A    between atoms: N_5  and  C_6
REMARK    3  A    between atoms: C_10  and  C_11
REMARK    4  A    between atoms: N_13  and  C_14
REMARK    5  A    between atoms: N_22  and  C_23
REMARK                            x       y       z     vdW  Elec       q    Type
REMARK                         _______ _______ _______ _____ _____    ______ ____
ROOT
ATOM      1  C   UNL     1       3.603   1.850  17.905  0.00  0.00    +0.000 C 
ATOM      2  C   UNL     1       3.424   3.351  17.689  0.00  0.00    +0.000 C 
ATOM      3  C   UNL     1       4.622   3.923  16.912  0.00  0.00    +0.000 C 
ATOM      4  O   UNL     1       5.490   3.213  16.400  0.00  0.00    +0.000 OA
ATOM      5  N   UNL     1       4.560   5.305  16.713  0.00  0.00    +0.000 N 
ATOM      6  C   UNL     1       5.348   5.884  15.643  0.00  0.00    +0.000 C 
ATOM      7  C   UNL     1       3.737   6.120  17.550  0.00  0.00    +0.000 A 
ATOM      8  C   UNL     1       3.667   7.506  17.358  0.00  0.00    +0.000 A 
ATOM      9  C   UNL     1       2.890   8.315  18.192  0.00  0.00    +0.000 A 
ATOM     10  C   UNL     1       2.138   7.743  19.217  0.00  0.00    +0.000 A 
ATOM     11  C   UNL     1       2.228   6.363  19.445  0.00  0.00    +0.000 A 
ATOM     12  C   UNL     1       3.031   5.531  18.635  0.00  0.00    +0.000 A 
ATOM     13  N   UNL     1       3.196   4.138  18.919  0.00  0.00    +0.000 N 
ENDROOT
BRANCH  10  14
ATOM     14  C   UNL     1       1.273   8.584  20.098  0.00  0.00    +0.000 C 
ATOM     15  O   UNL     1       0.971   8.199  21.220  0.00  0.00    +0.000 OA
ATOM     16  N   UNL     1       0.867   9.786  19.556  0.00  0.00    +0.000 N 
ATOM     17  H   UNL     1       1.138  10.011  18.607  0.00  0.00    +0.000 HD
BRANCH  16  18
ATOM     18  C   UNL     1       0.213  10.838  20.329  0.00  0.00    +0.000 C 
ATOM     19  C   UNL     1       1.076  12.103  20.377  0.00  0.00    +0.000 C 
ATOM     20  C   UNL     1       1.197  12.756  19.001  0.00  0.00    +0.000 C 
ATOM     21  C   UNL     1      -0.174  13.107  18.433  0.00  0.00    +0.000 C 
ATOM     22  C   UNL     1      -1.121  11.909  18.412  0.00  0.00    +0.000 C 
ATOM     23  C   UNL     1      -1.171  11.167  19.753  0.00  0.00    +0.000 C 
ENDBRANCH  16  18
ENDBRANCH  10  14
BRANCH  13  24
ATOM     24  C   UNL     1       2.575   3.535  20.108  0.00  0.00    +0.000 C 
ATOM     25  C   UNL     1       1.378   4.132  20.804  0.00  0.00    +0.000 C 
ATOM     26  C   UNL     1       1.203   2.912  19.964  0.00  0.00    +0.000 C 
ENDBRANCH  13  24
TORSDOF 3
ENDMDL
MODEL 2
REMARK VINA RESULT:      -7.8      2.206      8.372
REMARK  Name = 
REMARK  5 active torsions:
REMARK  status: ('A' for Active; 'I' for Inactive)
REMARK    1  A    between atoms: C_1  and  C_2
REMARK    2  A    between atoms: N_5  and  C_6
REMARK    3  A    between atoms: C_10  and  C_11
REMARK    4  A    between atoms: N_13  and  C_14
REMARK    5  A    between atoms: N_22  and  C_23
REMARK                            x       y       z     vdW  Elec       q    Type
REMARK                         _______ _______ _______ _____ _____    ______ ____
ROOT
ATOM      1  C   UNL     1      -1.374  13.621  20.369  0.00  0.00    +0.000 C 
ATOM      2  C   UNL     1      -0.903  12.175  20.502  0.00  0.00    +0.000 C 
ATOM      3  C   UNL     1      -0.750  11.798  21.985  0.00  0.00    +0.000 C 
ATOM      4  O   UNL     1      -1.134  12.524  22.904  0.00  0.00    +0.000 OA
ATOM      5  N   UNL     1      -0.274  10.501  22.194  0.00  0.00    +0.000 N 
ATOM      6  C   UNL     1      -0.513   9.877  23.480  0.00  0.00    +0.000 C 
ATOM      7  C   UNL     1       0.432   9.814  21.159  0.00  0.00    +0.000 A 
ATOM      8  C   UNL     1       0.913   8.513  21.357  0.00  0.00    +0.000 A 
ATOM      9  C   UNL     1       1.631   7.846  20.361  0.00  0.00    +0.000 A 
ATOM     10  C   UNL     1       1.854   8.460  19.130  0.00  0.00    +0.000 A 
ATOM     11  C   UNL     1       1.412   9.775  18.930  0.00  0.00    +0.000 A 
ATOM     12  C   UNL     1       0.712  10.479  19.933  0.00  0.00    +0.000 A 
ATOM     13  N   UNL     1       0.338  11.851  19.767  0.00  0.00    +0.000 N 
ENDROOT
BRANCH  10  14
ATOM     14  C   UNL     1       2.588   7.752  18.039  0.00  0.00    +0.000 C 
ATOM     15  O   UNL     1       2.957   8.361  17.043  0.00  0.00    +0.000 OA
ATOM     16  N   UNL     1       2.810   6.407  18.250  0.00  0.00    +0.000 N 
ATOM     17  H   UNL     1       2.443   5.976  19.089  0.00  0.00    +0.000 HD
BRANCH  16  18
ATOM     18  C   UNL     1       3.696   5.597  17.418  0.00  0.00    +0.000 C 
ATOM     19  C   UNL     1       5.148   5.701  17.898  0.00  0.00    +0.000 C 
ATOM     20  C   UNL     1       5.336   5.061  19.272  0.00  0.00    +0.000 C 
ATOM     21  C   UNL     1       4.918   3.594  19.261  0.00  0.00    +0.000 C 
ATOM     22  C   UNL     1       3.499   3.397  18.732  0.00  0.00    +0.000 C 
ATOM     23  C   UNL     1       3.251   4.128  17.407  0.00  0.00    +0.000 C 
ENDBRANCH  16  18
ENDBRANCH  10  14
BRANCH  13  24
ATOM     24  C   UNL     1       0.727  12.594  18.558  0.00  0.00    +0.000 C 
ATOM     25  C   UNL     1       1.130  14.047  18.580  0.00  0.00    +0.000 C 
ATOM     26  C   UNL     1       2.177  13.000  18.400  0.00  0.00    +0.000 C 
ENDBRANCH  13  24
TORSDOF 3
ENDMDL
MODEL 3
REMARK VINA RESULT:      -7.7      2.097      8.363
REMARK  Name = 
REMARK  5 active torsions:
REMARK  status: ('A' for Active; 'I' for Inactive)
REMARK    1  A    between atoms: C_1  and  C_2
REMARK    2  A    between atoms: N_5  and  C_6
REMARK    3  A    between atoms: C_10  and  C_11
REMARK    4  A    between atoms: N_13  and  C_14
REMARK    5  A    between atoms: N_22  and  C_23
REMARK                            x       y       z     vdW  Elec       q    Type
REMARK                         _______ _______ _______ _____ _____    ______ ____
ROOT
ATOM      1  C   UNL     1      -1.062  13.529  19.821  0.00  0.00    +0.000 C 
ATOM      2  C   UNL     1      -0.712  12.076  20.131  0.00  0.00    +0.000 C 
ATOM      3  C   UNL     1      -0.720  11.838  21.651  0.00  0.00    +0.000 C 
ATOM      4  O   UNL     1      -1.130  12.675  22.458  0.00  0.00    +0.000 OA
ATOM      5  N   UNL     1      -0.362  10.540  22.024  0.00  0.00    +0.000 N 
ATOM      6  C   UNL     1      -0.761  10.063  23.333  0.00  0.00    +0.000 C 
ATOM      7  C   UNL     1       0.380   9.710  21.128  0.00  0.00    +0.000 A 
ATOM      8  C   UNL     1       0.744   8.406  21.491  0.00  0.00    +0.000 A 
ATOM      9  C   UNL     1       1.497   7.599  20.635  0.00  0.00    +0.000 A 
ATOM     10  C   UNL     1       1.874   8.073  19.379  0.00  0.00    +0.000 A 
ATOM     11  C   UNL     1       1.550   9.387  19.017  0.00  0.00    +0.000 A 
ATOM     12  C   UNL     1       0.817  10.231  19.879  0.00  0.00    +0.000 A 
ATOM     13  N   UNL     1       0.562  11.601  19.552  0.00  0.00    +0.000 N 
ENDROOT
BRANCH  10  14
ATOM     14  C   UNL     1       2.648   7.214  18.433  0.00  0.00    +0.000 C 
ATOM     15  O   UNL     1       3.237   7.713  17.483  0.00  0.00    +0.000 OA
ATOM     16  N   UNL     1       2.645   5.864  18.720  0.00  0.00    +0.000 N 
ATOM     17  H   UNL     1       2.105   5.533  19.509  0.00  0.00    +0.000 HD
BRANCH  16  18
ATOM     18  C   UNL     1       3.516   4.898  18.057  0.00  0.00    +0.000 C 
ATOM     19  C   UNL     1       4.391   4.158  19.074  0.00  0.00    +0.000 C 
ATOM     20  C   UNL     1       3.559   3.256  19.984  0.00  0.00    +0.000 C 
ATOM     21  C   UNL     1       2.763   2.237  19.174  0.00  0.00    +0.000 C 
ATOM     22  C   UNL     1       1.910   2.893  18.090  0.00  0.00    +0.000 C 
ATOM     23  C   UNL     1       2.699   3.892  17.235  0.00  0.00    +0.000 C 
ENDBRANCH  16  18
ENDBRANCH  10  14
BRANCH  13  24
ATOM     24  C   UNL     1       1.111  12.195  18.323  0.00  0.00    +0.000 C 
ATOM     25  C   UNL     1       1.532  13.639  18.223  0.00  0.00    +0.000 C 
ATOM     26  C   UNL     1       2.576  12.576  18.302  0.00  0.00    +0.000 C 
ENDBRANCH  13  24
TORSDOF 3
ENDMDL
MODEL 4
REMARK VINA RESULT:      -7.3      1.764      2.538
REMARK  Name = 
REMARK  5 active torsions:
REMARK  status: ('A' for Active; 'I' for Inactive)
REMARK    1  A    between atoms: C_1  and  C_2
REMARK    2  A    between atoms: N_5  and  C_6
REMARK    3  A    between atoms: C_10  and  C_11
REMARK    4  A    between atoms: N_13  and  C_14
REMARK    5  A    between atoms: N_22  and  C_23
REMARK                            x       y       z     vdW  Elec       q    Type
REMARK                         _______ _______ _______ _____ _____    ______ ____
ROOT
ATOM      1  C   UNL     1       2.077   1.518  18.702  0.00  0.00    +0.000 C 
ATOM      2  C   UNL     1       2.516   2.837  18.074  0.00  0.00    +0.000 C 
ATOM      3  C   UNL     1       3.955   2.721  17.542  0.00  0.00    +0.000 C 
ATOM      4  O   UNL     1       4.565   1.651  17.488  0.00  0.00    +0.000 OA
ATOM      5  N   UNL     1       4.453   3.905  16.991  0.00  0.00    +0.000 N 
ATOM      6  C   UNL     1       5.570   3.822  16.072  0.00  0.00    +0.000 C 
ATOM      7  C   UNL     1       3.867   5.163  17.332  0.00  0.00    +0.000 A 
ATOM      8  C   UNL     1       4.358   6.356  16.785  0.00  0.00    +0.000 A 
ATOM      9  C   UNL     1       3.813   7.594  17.137  0.00  0.00    +0.000 A 
ATOM     10  C   UNL     1       2.738   7.657  18.023  0.00  0.00    +0.000 A 
ATOM     11  C   UNL     1       2.261   6.476  18.608  0.00  0.00    +0.000 A 
ATOM     12  C   UNL     1       2.817   5.218  18.290  0.00  0.00    +0.000 A 
ATOM     13  N   UNL     1       2.395   4.020  18.951  0.00  0.00    +0.000 N 
ENDROOT
BRANCH  10  14
ATOM     14  C   UNL     1       2.117   8.965  18.386  0.00  0.00    +0.000 C 
ATOM     15  O   UNL     1       2.183   9.918  17.619  0.00  0.00    +0.000 OA
ATOM     16  N   UNL     1       1.481   9.001  19.610  0.00  0.00    +0.000 N 
ATOM     17  H   UNL     1       1.500   8.175  20.195  0.00  0.00    +0.000 HD
BRANCH  16  18
ATOM     18  C   UNL     1       0.628  10.104  20.043  0.00  0.00    +0.000 C 
ATOM     19  C   UNL     1      -0.799   9.620  20.320  0.00  0.00    +0.000 C 
ATOM     20  C   UNL     1      -0.855   8.688  21.529  0.00  0.00    +0.000 C 
ATOM     21  C   UNL     1      -0.308   9.370  22.779  0.00  0.00    +0.000 C 
ATOM     22  C   UNL     1       1.093   9.940  22.565  0.00  0.00    +0.000 C 
ATOM     23  C   UNL     1       1.202  10.788  21.291  0.00  0.00    +0.000 C 
ENDBRANCH  16  18
ENDBRANCH  10  14
BRANCH  13  24
ATOM     24  C   UNL     1       1.399   4.071  20.032  0.00  0.00    +0.000 C 
ATOM     25  C   UNL     1       1.217   2.960  21.035  0.00  0.00    +0.000 C 
ATOM     26  C   UNL     1       1.892   4.222  21.456  0.00  0.00    +0.000 C 
ENDBRANCH  13  24
TORSDOF 3
ENDMDL
MODEL 5
REMARK VINA RESULT:      -7.3      2.968      8.533
REMARK  Name = 
REMARK  5 active torsions:
REMARK  status: ('A' for Active; 'I' for Inactive)
REMARK    1  A    between atoms: C_1  and  C_2
REMARK    2  A    between atoms: N_5  and  C_6
REMARK    3  A    between atoms: C_10  and  C_11
REMARK    4  A    between atoms: N_13  and  C_14
REMARK    5  A    between atoms: N_22  and  C_23
REMARK                            x       y       z     vdW  Elec       q    Type
REMARK                         _______ _______ _______ _____ _____    ______ ____
ROOT
ATOM      1  C   UNL     1      -3.071  13.887  21.438  0.00  0.00    +0.000 C 
ATOM      2  C   UNL     1      -2.679  13.024  20.241  0.00  0.00    +0.000 C 
ATOM      3  C   UNL     1      -3.936  12.490  19.535  0.00  0.00    +0.000 C 
ATOM      4  O   UNL     1      -5.075  12.870  19.814  0.00  0.00    +0.000 OA
ATOM      5  N   UNL     1      -3.664  11.648  18.452  0.00  0.00    +0.000 N 
ATOM      6  C   UNL     1      -4.695  11.455  17.452  0.00  0.00    +0.000 C 
ATOM      7  C   UNL     1      -2.396  10.999  18.343  0.00  0.00    +0.000 A 
ATOM      8  C   UNL     1      -2.112  10.154  17.262  0.00  0.00    +0.000 A 
ATOM      9  C   UNL     1      -0.887   9.489  17.164  0.00  0.00    +0.000 A 
ATOM     10  C   UNL     1       0.094   9.685  18.135  0.00  0.00    +0.000 A 
ATOM     11  C   UNL     1      -0.189  10.497  19.241  0.00  0.00    +0.000 A 
ATOM     12  C   UNL     1      -1.431  11.153  19.377  0.00  0.00    +0.000 A 
ATOM     13  N   UNL     1      -1.758  11.910  20.547  0.00  0.00    +0.000 N 
ENDROOT
BRANCH  10  14
ATOM     14  C   UNL     1       1.424   9.013  18.031  0.00  0.00    +0.000 C 
ATOM     15  O   UNL     1       2.366   9.581  17.493  0.00  0.00    +0.000 OA
ATOM     16  N   UNL     1       1.493   7.748  18.580  0.00  0.00    +0.000 N 
ATOM     17  H   UNL     1       0.657   7.342  18.978  0.00  0.00    +0.000 HD
BRANCH  16  18
ATOM     18  C   UNL     1       2.746   7.025  18.779  0.00  0.00    +0.000 C 
ATOM     19  C   UNL     1       2.779   6.352  20.156  0.00  0.00    +0.000 C 
ATOM     20  C   UNL     1       1.748   5.229  20.260  0.00  0.00    +0.000 C 
ATOM     21  C   UNL     1       1.971   4.173  19.181  0.00  0.00    +0.000 C 
ATOM     22  C   UNL     1       2.016   4.774  17.778  0.00  0.00    +0.000 C 
ATOM     23  C   UNL     1       2.960   5.979  17.677  0.00  0.00    +0.000 C 
ENDBRANCH  16  18
ENDBRANCH  10  14
BRANCH  13  24
ATOM     24  C   UNL     1      -0.824  11.980  21.681  0.00  0.00    +0.000 C 
ATOM     25  C   UNL     1      -1.277  12.096  23.115  0.00  0.00    +0.000 C 
ATOM     26  C   UNL     1      -0.743  10.794  22.619  0.00  0.00    +0.000 C 
ENDBRANCH  13  24
TORSDOF 3
ENDMDL
MODEL 6
REMARK VINA RESULT:      -7.3      2.490      8.623
REMARK  Name = 
REMARK  5 active torsions:
REMARK  status: ('A' for Active; 'I' for Inactive)
REMARK    1  A    between atoms: C_1  and  C_2
REMARK    2  A    between atoms: N_5  and  C_6
REMARK    3  A    between atoms: C_10  and  C_11
REMARK    4  A    between atoms: N_13  and  C_14
REMARK    5  A    between atoms: N_22  and  C_23
REMARK                            x       y       z     vdW  Elec       q    Type
REMARK                         _______ _______ _______ _____ _____    ______ ____
ROOT
ATOM      1  C   UNL     1      -0.449  14.337  19.506  0.00  0.00    +0.000 C 
ATOM      2  C   UNL     1      -0.530  12.913  20.050  0.00  0.00    +0.000 C 
ATOM      3  C   UNL     1      -1.008  12.928  21.512  0.00  0.00    +0.000 C 
ATOM      4  O   UNL     1      -1.428  13.944  22.070  0.00  0.00    +0.000 OA
ATOM      5  N   UNL     1      -1.064  11.662  22.103  0.00  0.00    +0.000 N 
ATOM      6  C   UNL     1      -1.903  11.483  23.271  0.00  0.00    +0.000 C 
ATOM      7  C   UNL     1      -0.307  10.578  21.561  0.00  0.00    +0.000 A 
ATOM      8  C   UNL     1      -0.356   9.305  22.145  0.00  0.00    +0.000 A 
ATOM      9  C   UNL     1       0.405   8.247  21.642  0.00  0.00    +0.000 A 
ATOM     10  C   UNL     1       1.208   8.436  20.518  0.00  0.00    +0.000 A 
ATOM     11  C   UNL     1       1.296   9.712  19.946  0.00  0.00    +0.000 A 
ATOM     12  C   UNL     1       0.561  10.804  20.457  0.00  0.00    +0.000 A 
ATOM     13  N   UNL     1       0.716  12.127  19.933  0.00  0.00    +0.000 N 
ENDROOT
BRANCH  10  14
ATOM     14  C   UNL     1       2.002   7.310  19.941  0.00  0.00    +0.000 C 
ATOM     15  O   UNL     1       2.686   7.482  18.940  0.00  0.00    +0.000 OA
ATOM     16  N   UNL     1       1.904   6.110  20.615  0.00  0.00    +0.000 N 
ATOM     17  H   UNL     1       1.290   6.048  21.417  0.00  0.00    +0.000 HD
BRANCH  16  18
ATOM     18  C   UNL     1       2.767   4.964  20.347  0.00  0.00    +0.000 C 
ATOM     19  C   UNL     1       2.334   3.745  21.169  0.00  0.00    +0.000 C 
ATOM     20  C   UNL     1       0.970   3.220  20.724  0.00  0.00    +0.000 C 
ATOM     21  C   UNL     1       0.976   2.849  19.244  0.00  0.00    +0.000 C 
ATOM     22  C   UNL     1       1.461   3.995  18.358  0.00  0.00    +0.000 C 
ATOM     23  C   UNL     1       2.774   4.615  18.853  0.00  0.00    +0.000 C 
ENDBRANCH  16  18
ENDBRANCH  10  14
BRANCH  13  24
ATOM     24  C   UNL     1       1.699  12.405  18.876  0.00  0.00    +0.000 C 
ATOM     25  C   UNL     1       1.764  13.718  18.137  0.00  0.00    +0.000 C 
ATOM     26  C   UNL     1       2.801  13.403  19.163  0.00  0.00    +0.000 C 
ENDBRANCH  13  24
TORSDOF 3
ENDMDL
MODEL 7
REMARK VINA RESULT:      -7.1      2.896      8.511
REMARK  Name = 
REMARK  5 active torsions:
REMARK  status: ('A' for Active; 'I' for Inactive)
REMARK    1  A    between atoms: C_1  and  C_2
REMARK    2  A    between atoms: N_5  and  C_6
REMARK    3  A    between atoms: C_10  and  C_11
REMARK    4  A    between atoms: N_13  and  C_14
REMARK    5  A    between atoms: N_22  and  C_23
REMARK                            x       y       z     vdW  Elec       q    Type
REMARK                         _______ _______ _______ _____ _____    ______ ____
ROOT
ATOM      1  C   UNL     1      -5.139  11.619  18.385  0.00  0.00    +0.000 C 
ATOM      2  C   UNL     1      -3.777  11.390  19.033  0.00  0.00    +0.000 C 
ATOM      3  C   UNL     1      -3.351  12.632  19.832  0.00  0.00    +0.000 C 
ATOM      4  O   UNL     1      -4.105  13.585  20.043  0.00  0.00    +0.000 OA
ATOM      5  N   UNL     1      -2.088  12.523  20.421  0.00  0.00    +0.000 N 
ATOM      6  C   UNL     1      -1.769  13.389  21.538  0.00  0.00    +0.000 C 
ATOM      7  C   UNL     1      -1.140  11.575  19.926  0.00  0.00    +0.000 A 
ATOM      8  C   UNL     1       0.129  11.456  20.509  0.00  0.00    +0.000 A 
ATOM      9  C   UNL     1       1.074  10.555  20.011  0.00  0.00    +0.000 A 
ATOM     10  C   UNL     1       0.752   9.728  18.935  0.00  0.00    +0.000 A 
ATOM     11  C   UNL     1      -0.499   9.863  18.317  0.00  0.00    +0.000 A 
ATOM     12  C   UNL     1      -1.457  10.788  18.784  0.00  0.00    +0.000 A 
ATOM     13  N   UNL     1      -2.699  10.992  18.103  0.00  0.00    +0.000 N 
ENDROOT
BRANCH  10  14
ATOM     14  C   UNL     1       1.734   8.733  18.409  0.00  0.00    +0.000 C 
ATOM     15  O   UNL     1       2.349   8.955  17.374  0.00  0.00    +0.000 OA
ATOM     16  N   UNL     1       1.884   7.591  19.168  0.00  0.00    +0.000 N 
ATOM     17  H   UNL     1       1.312   7.474  19.995  0.00  0.00    +0.000 HD
BRANCH  16  18
ATOM     18  C   UNL     1       2.945   6.612  18.949  0.00  0.00    +0.000 C 
ATOM     19  C   UNL     1       3.120   5.708  20.174  0.00  0.00    +0.000 C 
ATOM     20  C   UNL     1       1.905   4.808  20.391  0.00  0.00    +0.000 C 
ATOM     21  C   UNL     1       1.633   3.942  19.165  0.00  0.00    +0.000 C 
ATOM     22  C   UNL     1       1.509   4.766  17.886  0.00  0.00    +0.000 C 
ATOM     23  C   UNL     1       2.662   5.761  17.704  0.00  0.00    +0.000 C 
ENDBRANCH  16  18
ENDBRANCH  10  14
BRANCH  13  24
ATOM     24  C   UNL     1      -2.995  10.279  16.851  0.00  0.00    +0.000 C 
ATOM     25  C   UNL     1      -4.091  10.699  15.903  0.00  0.00    +0.000 C 
ATOM     26  C   UNL     1      -2.668  10.964  15.540  0.00  0.00    +0.000 C 
ENDBRANCH  13  24
TORSDOF 3
ENDMDL
MODEL 8
REMARK VINA RESULT:      -7.1      2.425      8.696
REMARK  Name = 
REMARK  5 active torsions:
REMARK  status: ('A' for Active; 'I' for Inactive)
REMARK    1  A    between atoms: C_1  and  C_2
REMARK    2  A    between atoms: N_5  and  C_6
REMARK    3  A    between atoms: C_10  and  C_11
REMARK    4  A    between atoms: N_13  and  C_14
REMARK    5  A    between atoms: N_22  and  C_23
REMARK                            x       y       z     vdW  Elec       q    Type
REMARK                         _______ _______ _______ _____ _____    ______ ____
ROOT
ATOM      1  C   UNL     1      -0.073  15.286  19.039  0.00  0.00    +0.000 C 
ATOM      2  C   UNL     1      -0.168  13.805  19.393  0.00  0.00    +0.000 C 
ATOM      3  C   UNL     1      -0.561  13.633  20.870  0.00  0.00    +0.000 C 
ATOM      4  O   UNL     1      -0.914  14.575  21.583  0.00  0.00    +0.000 OA
ATOM      5  N   UNL     1      -0.623  12.302  21.289  0.00  0.00    +0.000 N 
ATOM      6  C   UNL     1      -1.398  11.986  22.472  0.00  0.00    +0.000 C 
ATOM      7  C   UNL     1       0.065  11.282  20.562  0.00  0.00    +0.000 A 
ATOM      8  C   UNL     1       0.009   9.944  20.973  0.00  0.00    +0.000 A 
ATOM      9  C   UNL     1       0.705   8.945  20.287  0.00  0.00    +0.000 A 
ATOM     10  C   UNL     1       1.447   9.265  19.151  0.00  0.00    +0.000 A 
ATOM     11  C   UNL     1       1.544  10.604  18.750  0.00  0.00    +0.000 A 
ATOM     12  C   UNL     1       0.875  11.633  19.446  0.00  0.00    +0.000 A 
ATOM     13  N   UNL     1       1.042  13.011  19.095  0.00  0.00    +0.000 N 
ENDROOT
BRANCH  10  14
ATOM     14  C   UNL     1       2.169   8.208  18.382  0.00  0.00    +0.000 C 
ATOM     15  O   UNL     1       2.633   8.453  17.276  0.00  0.00    +0.000 OA
ATOM     16  N   UNL     1       2.268   6.982  19.008  0.00  0.00    +0.000 N 
ATOM     17  H   UNL     1       1.828   6.857  19.910  0.00  0.00    +0.000 HD
BRANCH  16  18
ATOM     18  C   UNL     1       3.121   5.899  18.526  0.00  0.00    +0.000 C 
ATOM     19  C   UNL     1       3.836   5.204  19.690  0.00  0.00    +0.000 C 
ATOM     20  C   UNL     1       2.855   4.454  20.590  0.00  0.00    +0.000 C 
ATOM     21  C   UNL     1       2.063   3.417  19.800  0.00  0.00    +0.000 C 
ATOM     22  C   UNL     1       1.368   4.020  18.581  0.00  0.00    +0.000 C 
ATOM     23  C   UNL     1       2.309   4.874  17.722  0.00  0.00    +0.000 C 
ENDBRANCH  16  18
ENDBRANCH  10  14
BRANCH  13  24
ATOM     24  C   UNL     1       1.971  13.405  18.025  0.00  0.00    +0.000 C 
ATOM     25  C   UNL     1       2.577  14.783  17.927  0.00  0.00    +0.000 C 
ATOM     26  C   UNL     1       3.423  13.642  18.385  0.00  0.00    +0.000 C 
ENDBRANCH  13  24
TORSDOF 3
ENDMDL
MODEL 9
REMARK VINA RESULT:      -7.1      4.656      7.572
REMARK  Name = 
REMARK  5 active torsions:
REMARK  status: ('A' for Active; 'I' for Inactive)
REMARK    1  A    between atoms: C_1  and  C_2
REMARK    2  A    between atoms: N_5  and  C_6
REMARK    3  A    between atoms: C_10  and  C_11
REMARK    4  A    between atoms: N_13  and  C_14
REMARK    5  A    between atoms: N_22  and  C_23
REMARK                            x       y       z     vdW  Elec       q    Type
REMARK                         _______ _______ _______ _____ _____    ______ ____
ROOT
ATOM      1  C   UNL     1       1.136   9.522  17.805  0.00  0.00    +0.000 C 
ATOM      2  C   UNL     1       0.682  10.139  19.125  0.00  0.00    +0.000 C 
ATOM      3  C   UNL     1       1.035   9.208  20.298  0.00  0.00    +0.000 C 
ATOM      4  O   UNL     1       1.742   8.206  20.169  0.00  0.00    +0.000 OA
ATOM      5  N   UNL     1       0.610   9.678  21.543  0.00  0.00    +0.000 N 
ATOM      6  C   UNL     1       1.253   9.159  22.733  0.00  0.00    +0.000 C 
ATOM      7  C   UNL     1      -0.436  10.647  21.631  0.00  0.00    +0.000 A 
ATOM      8  C   UNL     1      -0.870  11.126  22.874  0.00  0.00    +0.000 A 
ATOM      9  C   UNL     1      -1.914  12.051  22.971  0.00  0.00    +0.000 A 
ATOM     10  C   UNL     1      -2.524  12.540  21.816  0.00  0.00    +0.000 A 
ATOM     11  C   UNL     1      -2.127  12.042  20.568  0.00  0.00    +0.000 A 
ATOM     12  C   UNL     1      -1.096  11.085  20.448  0.00  0.00    +0.000 A 
ATOM     13  N   UNL     1      -0.748  10.508  19.185  0.00  0.00    +0.000 N 
ENDROOT
BRANCH  10  14
ATOM     14  C   UNL     1      -3.617  13.554  21.894  0.00  0.00    +0.000 C 
ATOM     15  O   UNL     1      -3.373  14.704  22.236  0.00  0.00    +0.000 OA
ATOM     16  N   UNL     1      -4.874  13.098  21.555  0.00  0.00    +0.000 N 
ATOM     17  H   UNL     1      -4.992  12.122  21.314  0.00  0.00    +0.000 HD
BRANCH  16  18
ATOM     18  C   UNL     1      -6.022  13.978  21.351  0.00  0.00    +0.000 C 
ATOM     19  C   UNL     1      -6.008  14.583  19.944  0.00  0.00    +0.000 C 
ATOM     20  C   UNL     1      -6.234  13.520  18.870  0.00  0.00    +0.000 C 
ATOM     21  C   UNL     1      -7.554  12.788  19.086  0.00  0.00    +0.000 C 
ATOM     22  C   UNL     1      -7.675  12.208  20.493  0.00  0.00    +0.000 C 
ATOM     23  C   UNL     1      -7.340  13.228  21.588  0.00  0.00    +0.000 C 
ENDBRANCH  16  18
ENDBRANCH  10  14
BRANCH  13  24
ATOM     24  C   UNL     1      -1.500  10.853  17.970  0.00  0.00    +0.000 C 
ATOM     25  C   UNL     1      -1.833   9.849  16.895  0.00  0.00    +0.000 C 
ATOM     26  C   UNL     1      -2.908  10.316  17.819  0.00  0.00    +0.000 C 
ENDBRANCH  13  24
TORSDOF 3
ENDMDL
