MODEL 1
REMARK VINA RESULT:      -8.6      0.000      0.000
REMARK  Name = 
REMARK  9 active torsions:
REMARK  status: ('A' for Active; 'I' for Inactive)
REMARK    1  A    between atoms: C_1  and  C_2
REMARK    2  A    between atoms: C_5  and  C_6
REMARK    3  A    between atoms: C_6  and  C_8
REMARK    4  A    between atoms: C_8  and  O_9
REMARK    5  A    between atoms: O_9  and  C_10
REMARK    6  A    between atoms: C_10  and  C_12
REMARK    7  A    between atoms: C_15  and  N_16
REMARK    8  A    between atoms: C_20  and  C_21
REMARK    9  A    between atoms: C_28  and  C_29
REMARK                            x       y       z     vdW  Elec       q    Type
REMARK                         _______ _______ _______ _____ _____    ______ ____
ROOT
ATOM      1  C   UNL     1       8.498   9.474  18.270  0.00  0.00    +0.000 A 
ATOM      2  C   UNL     1       9.452   9.783  19.244  0.00  0.00    +0.000 A 
ATOM      3  C   UNL     1       9.907  11.098  19.402  0.00  0.00    +0.000 A 
ATOM      4  C   UNL     1       9.399  12.145  18.613  0.00  0.00    +0.000 A 
ATOM      5  C   UNL     1       8.401  11.815  17.678  0.00  0.00    +0.000 A 
ATOM      6  C   UNL     1       7.961  10.497  17.494  0.00  0.00    +0.000 A 
ENDROOT
BRANCH   4   7
ATOM      7  N   UNL     1       9.990  13.462  18.606  0.00  0.00    +0.000 N 
ATOM      8  C   UNL     1       9.396  14.518  19.295  0.00  0.00    +0.000 C 
ATOM      9  O   UNL     1       8.198  14.758  19.383  0.00  0.00    +0.000 OA
ATOM     10  C   UNL     1      10.400  15.411  19.986  0.00  0.00    +0.000 C 
ATOM     11  C   UNL     1      11.441  15.923  19.007  0.00  0.00    +0.000 C 
ATOM     12  C   UNL     1      10.850  16.952  18.044  0.00  0.00    +0.000 C 
ATOM     13  C   UNL     1      12.064  14.749  18.274  0.00  0.00    +0.000 C 
ATOM     14  C   UNL     1      11.055  13.748  17.749  0.00  0.00    +0.000 C 
ATOM     15  O   UNL     1      11.250  13.225  16.651  0.00  0.00    +0.000 OA
ENDBRANCH   4   7
BRANCH   1  16
ATOM     16  C   UNL     1       8.070   8.067  18.131  0.00  0.00    +0.000 C 
ATOM     17  O   UNL     1       8.417   7.192  18.913  0.00  0.00    +0.000 OA
BRANCH  16  18
ATOM     18  O   UNL     1       7.287   7.890  17.039  0.00  0.00    +0.000 OA
BRANCH  18  19
ATOM     19  C   UNL     1       6.809   6.547  16.892  0.00  0.00    +0.000 C 
BRANCH  19  20
ATOM     20  C   UNL     1       5.394   6.458  16.313  0.00  0.00    +0.000 C 
ATOM     21  O   UNL     1       5.113   6.909  15.202  0.00  0.00    +0.000 OA
BRANCH  20  26
ATOM     22  C   UNL     1       1.225   3.872  19.473  0.00  0.00    +0.000 C 
ATOM     23  C   UNL     1       2.300   4.532  18.651  0.00  0.00    +0.000 A 
ATOM     24  C   UNL     1       2.443   5.927  18.685  0.00  0.00    +0.000 A 
ATOM     25  C   UNL     1       3.437   6.573  17.940  0.00  0.00    +0.000 A 
ATOM     26  C   UNL     1       4.312   5.831  17.143  0.00  0.00    +0.000 A 
ATOM     27  C   UNL     1       4.168   4.435  17.102  0.00  0.00    +0.000 A 
ATOM     28  C   UNL     1       3.172   3.776  17.844  0.00  0.00    +0.000 A 
ATOM     29  C   UNL     1       3.060   2.278  17.757  0.00  0.00    +0.000 C 
ENDBRANCH  20  26
ENDBRANCH  19  20
ENDBRANCH  18  19
ENDBRANCH  16  18
ENDBRANCH   1  16
TORSDOF 6
ENDMDL
MODEL 2
REMARK VINA RESULT:      -8.5      7.034     11.049
REMARK  Name = 
REMARK  9 active torsions:
REMARK  status: ('A' for Active; 'I' for Inactive)
REMARK    1  A    between atoms: C_1  and  C_2
REMARK    2  A    between atoms: C_5  and  C_6
REMARK    3  A    between atoms: C_6  and  C_8
REMARK    4  A    between atoms: C_8  and  O_9
REMARK    5  A    between atoms: O_9  and  C_10
REMARK    6  A    between atoms: C_10  and  C_12
REMARK    7  A    between atoms: C_15  and  N_16
REMARK    8  A    between atoms: C_20  and  C_21
REMARK    9  A    between atoms: C_28  and  C_29
REMARK                            x       y       z     vdW  Elec       q    Type
REMARK                         _______ _______ _______ _____ _____    ______ ____
ROOT
ATOM      1  C   UNL     1       1.308   9.241  19.324  0.00  0.00    +0.000 A 
ATOM      2  C   UNL     1       1.421   8.370  20.412  0.00  0.00    +0.000 A 
ATOM      3  C   UNL     1       1.997   7.104  20.252  0.00  0.00    +0.000 A 
ATOM      4  C   UNL     1       2.503   6.684  19.009  0.00  0.00    +0.000 A 
ATOM      5  C   UNL     1       2.426   7.602  17.945  0.00  0.00    +0.000 A 
ATOM      6  C   UNL     1       1.826   8.860  18.090  0.00  0.00    +0.000 A 
ENDROOT
BRANCH   4   7
ATOM      7  N   UNL     1       2.910   5.322  18.761  0.00  0.00    +0.000 N 
ATOM      8  C   UNL     1       1.972   4.291  18.712  0.00  0.00    +0.000 C 
ATOM      9  O   UNL     1       0.991   4.155  19.433  0.00  0.00    +0.000 OA
ATOM     10  C   UNL     1       2.261   3.281  17.626  0.00  0.00    +0.000 C 
ATOM     11  C   UNL     1       3.668   2.726  17.756  0.00  0.00    +0.000 C 
ATOM     12  C   UNL     1       3.797   1.800  18.966  0.00  0.00    +0.000 C 
ATOM     13  C   UNL     1       4.660   3.873  17.809  0.00  0.00    +0.000 C 
ATOM     14  C   UNL     1       4.264   4.984  18.761  0.00  0.00    +0.000 C 
ATOM     15  O   UNL     1       5.140   5.538  19.427  0.00  0.00    +0.000 OA
ENDBRANCH   4   7
BRANCH   1  16
ATOM     16  C   UNL     1       0.672  10.556  19.544  0.00  0.00    +0.000 C 
ATOM     17  O   UNL     1      -0.265  10.957  18.867  0.00  0.00    +0.000 OA
BRANCH  16  18
ATOM     18  O   UNL     1       1.272  11.237  20.551  0.00  0.00    +0.000 OA
BRANCH  18  19
ATOM     19  C   UNL     1       0.428  12.228  21.150  0.00  0.00    +0.000 C 
BRANCH  19  20
ATOM     20  C   UNL     1      -0.529  11.663  22.205  0.00  0.00    +0.000 C 
ATOM     21  O   UNL     1      -0.168  10.828  23.034  0.00  0.00    +0.000 OA
BRANCH  20  26
ATOM     22  C   UNL     1      -6.100  13.394  22.354  0.00  0.00    +0.000 C 
ATOM     23  C   UNL     1      -4.665  12.941  22.323  0.00  0.00    +0.000 A 
ATOM     24  C   UNL     1      -3.953  12.969  21.114  0.00  0.00    +0.000 A 
ATOM     25  C   UNL     1      -2.614  12.563  21.051  0.00  0.00    +0.000 A 
ATOM     26  C   UNL     1      -1.959  12.120  22.202  0.00  0.00    +0.000 A 
ATOM     27  C   UNL     1      -2.669  12.086  23.412  0.00  0.00    +0.000 A 
ATOM     28  C   UNL     1      -4.015  12.489  23.487  0.00  0.00    +0.000 A 
ATOM     29  C   UNL     1      -4.729  12.425  24.810  0.00  0.00    +0.000 C 
ENDBRANCH  20  26
ENDBRANCH  19  20
ENDBRANCH  18  19
ENDBRANCH  16  18
ENDBRANCH   1  16
TORSDOF 6
ENDMDL
MODEL 3
REMARK VINA RESULT:      -8.4      3.126     10.666
REMARK  Name = 
REMARK  9 active torsions:
REMARK  status: ('A' for Active; 'I' for Inactive)
REMARK    1  A    between atoms: C_1  and  C_2
REMARK    2  A    between atoms: C_5  and  C_6
REMARK    3  A    between atoms: C_6  and  C_8
REMARK    4  A    between atoms: C_8  and  O_9
REMARK    5  A    between atoms: O_9  and  C_10
REMARK    6  A    between atoms: C_10  and  C_12
REMARK    7  A    between atoms: C_15  and  N_16
REMARK    8  A    between atoms: C_20  and  C_21
REMARK    9  A    between atoms: C_28  and  C_29
REMARK                            x       y       z     vdW  Elec       q    Type
REMARK                         _______ _______ _______ _____ _____    ______ ____
ROOT
ATOM      1  C   UNL     1       6.616   6.513  17.956  0.00  0.00    +0.000 A 
ATOM      2  C   UNL     1       5.319   6.661  17.457  0.00  0.00    +0.000 A 
ATOM      3  C   UNL     1       4.246   5.988  18.055  0.00  0.00    +0.000 A 
ATOM      4  C   UNL     1       4.435   5.173  19.184  0.00  0.00    +0.000 A 
ATOM      5  C   UNL     1       5.741   5.084  19.698  0.00  0.00    +0.000 A 
ATOM      6  C   UNL     1       6.825   5.733  19.089  0.00  0.00    +0.000 A 
ENDROOT
BRANCH   4   7
ATOM      7  N   UNL     1       3.398   4.307  19.694  0.00  0.00    +0.000 N 
ATOM      8  C   UNL     1       2.258   4.834  20.300  0.00  0.00    +0.000 C 
ATOM      9  O   UNL     1       2.205   5.796  21.057  0.00  0.00    +0.000 OA
ATOM     10  C   UNL     1       0.995   4.091  19.931  0.00  0.00    +0.000 C 
ATOM     11  C   UNL     1       1.128   2.607  20.226  0.00  0.00    +0.000 C 
ATOM     12  C   UNL     1       1.121   2.330  21.729  0.00  0.00    +0.000 C 
ATOM     13  C   UNL     1       2.379   2.069  19.554  0.00  0.00    +0.000 C 
ATOM     14  C   UNL     1       3.608   2.929  19.766  0.00  0.00    +0.000 C 
ATOM     15  O   UNL     1       4.697   2.379  19.939  0.00  0.00    +0.000 OA
ENDBRANCH   4   7
BRANCH   1  16
ATOM     16  C   UNL     1       7.714   7.228  17.274  0.00  0.00    +0.000 C 
ATOM     17  O   UNL     1       7.958   7.081  16.084  0.00  0.00    +0.000 OA
BRANCH  16  18
ATOM     18  O   UNL     1       8.400   8.022  18.133  0.00  0.00    +0.000 OA
BRANCH  18  19
ATOM     19  C   UNL     1       8.264   9.420  17.848  0.00  0.00    +0.000 C 
BRANCH  19  20
ATOM     20  C   UNL     1       9.032  10.322  18.818  0.00  0.00    +0.000 C 
ATOM     21  O   UNL     1       9.144  10.050  20.014  0.00  0.00    +0.000 OA
BRANCH  20  26
ATOM     22  C   UNL     1      11.241  15.347  16.836  0.00  0.00    +0.000 C 
ATOM     23  C   UNL     1      10.661  14.054  17.345  0.00  0.00    +0.000 A 
ATOM     24  C   UNL     1      11.393  12.864  17.210  0.00  0.00    +0.000 A 
ATOM     25  C   UNL     1      10.888  11.645  17.680  0.00  0.00    +0.000 A 
ATOM     26  C   UNL     1       9.636  11.594  18.299  0.00  0.00    +0.000 A 
ATOM     27  C   UNL     1       8.900  12.781  18.431  0.00  0.00    +0.000 A 
ATOM     28  C   UNL     1       9.395  14.011  17.960  0.00  0.00    +0.000 A 
ATOM     29  C   UNL     1       8.560  15.252  18.123  0.00  0.00    +0.000 C 
ENDBRANCH  20  26
ENDBRANCH  19  20
ENDBRANCH  18  19
ENDBRANCH  16  18
ENDBRANCH   1  16
TORSDOF 6
ENDMDL
MODEL 4
REMARK VINA RESULT:      -8.3      1.360      2.425
REMARK  Name = 
REMARK  9 active torsions:
REMARK  status: ('A' for Active; 'I' for Inactive)
REMARK    1  A    between atoms: C_1  and  C_2
REMARK    2  A    between atoms: C_5  and  C_6
REMARK    3  A    between atoms: C_6  and  C_8
REMARK    4  A    between atoms: C_8  and  O_9
REMARK    5  A    between atoms: O_9  and  C_10
REMARK    6  A    between atoms: C_10  and  C_12
REMARK    7  A    between atoms: C_15  and  N_16
REMARK    8  A    between atoms: C_20  and  C_21
REMARK    9  A    between atoms: C_28  and  C_29
REMARK                            x       y       z     vdW  Elec       q    Type
REMARK                         _______ _______ _______ _____ _____    ______ ____
ROOT
ATOM      1  C   UNL     1       8.540   9.796  18.290  0.00  0.00    +0.000 A 
ATOM      2  C   UNL     1       8.272  10.943  17.537  0.00  0.00    +0.000 A 
ATOM      3  C   UNL     1       8.799  12.183  17.917  0.00  0.00    +0.000 A 
ATOM      4  C   UNL     1       9.635  12.307  19.041  0.00  0.00    +0.000 A 
ATOM      5  C   UNL     1       9.933  11.128  19.749  0.00  0.00    +0.000 A 
ATOM      6  C   UNL     1       9.386   9.888  19.392  0.00  0.00    +0.000 A 
ENDROOT
BRANCH   4   7
ATOM      7  N   UNL     1      10.023  13.590  19.578  0.00  0.00    +0.000 N 
ATOM      8  C   UNL     1       9.282  14.197  20.590  0.00  0.00    +0.000 C 
ATOM      9  O   UNL     1       8.062  14.216  20.698  0.00  0.00    +0.000 OA
ATOM     10  C   UNL     1      10.145  14.878  21.627  0.00  0.00    +0.000 C 
ATOM     11  C   UNL     1      11.095  15.870  20.982  0.00  0.00    +0.000 C 
ATOM     12  C   UNL     1      10.354  17.102  20.463  0.00  0.00    +0.000 C 
ATOM     13  C   UNL     1      11.882  15.176  19.885  0.00  0.00    +0.000 C 
ATOM     14  C   UNL     1      11.030  14.332  18.959  0.00  0.00    +0.000 C 
ATOM     15  O   UNL     1      11.297  14.314  17.756  0.00  0.00    +0.000 OA
ENDBRANCH   4   7
BRANCH   1  16
ATOM     16  C   UNL     1       7.939   8.518  17.857  0.00  0.00    +0.000 C 
ATOM     17  O   UNL     1       7.148   8.444  16.927  0.00  0.00    +0.000 OA
BRANCH  16  18
ATOM     18  O   UNL     1       8.359   7.485  18.627  0.00  0.00    +0.000 OA
BRANCH  18  19
ATOM     19  C   UNL     1       7.859   6.213  18.195  0.00  0.00    +0.000 C 
BRANCH  19  20
ATOM     20  C   UNL     1       6.984   5.511  19.239  0.00  0.00    +0.000 C 
ATOM     21  O   UNL     1       7.415   5.202  20.350  0.00  0.00    +0.000 OA
BRANCH  20  26
ATOM     22  C   UNL     1       1.452   4.307  17.829  0.00  0.00    +0.000 C 
ATOM     23  C   UNL     1       2.876   4.627  18.197  0.00  0.00    +0.000 A 
ATOM     24  C   UNL     1       3.757   3.587  18.533  0.00  0.00    +0.000 A 
ATOM     25  C   UNL     1       5.090   3.848  18.872  0.00  0.00    +0.000 A 
ATOM     26  C   UNL     1       5.571   5.159  18.879  0.00  0.00    +0.000 A 
ATOM     27  C   UNL     1       4.691   6.202  18.548  0.00  0.00    +0.000 A 
ATOM     28  C   UNL     1       3.349   5.953  18.208  0.00  0.00    +0.000 A 
ATOM     29  C   UNL     1       2.449   7.110  17.868  0.00  0.00    +0.000 C 
ENDBRANCH  20  26
ENDBRANCH  19  20
ENDBRANCH  18  19
ENDBRANCH  16  18
ENDBRANCH   1  16
TORSDOF 6
ENDMDL
MODEL 5
REMARK VINA RESULT:      -8.3      5.441      8.051
REMARK  Name = 
REMARK  9 active torsions:
REMARK  status: ('A' for Active; 'I' for Inactive)
REMARK    1  A    between atoms: C_1  and  C_2
REMARK    2  A    between atoms: C_5  and  C_6
REMARK    3  A    between atoms: C_6  and  C_8
REMARK    4  A    between atoms: C_8  and  O_9
REMARK    5  A    between atoms: O_9  and  C_10
REMARK    6  A    between atoms: C_10  and  C_12
REMARK    7  A    between atoms: C_15  and  N_16
REMARK    8  A    between atoms: C_20  and  C_21
REMARK    9  A    between atoms: C_28  and  C_29
REMARK                            x       y       z     vdW  Elec       q    Type
REMARK                         _______ _______ _______ _____ _____    ______ ____
ROOT
ATOM      1  C   UNL     1       1.720   6.844  20.202  0.00  0.00    +0.000 A 
ATOM      2  C   UNL     1       2.102   7.508  19.033  0.00  0.00    +0.000 A 
ATOM      3  C   UNL     1       1.783   8.858  18.845  0.00  0.00    +0.000 A 
ATOM      4  C   UNL     1       1.100   9.591  19.832  0.00  0.00    +0.000 A 
ATOM      5  C   UNL     1       0.775   8.912  21.021  0.00  0.00    +0.000 A 
ATOM      6  C   UNL     1       1.066   7.553  21.206  0.00  0.00    +0.000 A 
ENDROOT
BRANCH   4   7
ATOM      7  N   UNL     1       0.576  10.913  19.588  0.00  0.00    +0.000 N 
ATOM      8  C   UNL     1       1.199  12.041  20.121  0.00  0.00    +0.000 C 
ATOM      9  O   UNL     1       1.698  12.148  21.235  0.00  0.00    +0.000 OA
ATOM     10  C   UNL     1       1.226  13.209  19.163  0.00  0.00    +0.000 C 
ATOM     11  C   UNL     1      -0.170  13.545  18.670  0.00  0.00    +0.000 C 
ATOM     12  C   UNL     1      -1.019  14.177  19.772  0.00  0.00    +0.000 C 
ATOM     13  C   UNL     1      -0.817  12.296  18.100  0.00  0.00    +0.000 C 
ATOM     14  C   UNL     1      -0.671  11.072  18.981  0.00  0.00    +0.000 C 
ATOM     15  O   UNL     1      -1.616  10.286  19.071  0.00  0.00    +0.000 OA
ENDBRANCH   4   7
BRANCH   1  16
ATOM     16  C   UNL     1       2.063   5.414  20.339  0.00  0.00    +0.000 C 
ATOM     17  O   UNL     1       2.530   4.944  21.367  0.00  0.00    +0.000 OA
BRANCH  16  18
ATOM     18  O   UNL     1       1.816   4.731  19.194  0.00  0.00    +0.000 OA
BRANCH  18  19
ATOM     19  C   UNL     1       2.769   3.693  18.933  0.00  0.00    +0.000 C 
BRANCH  19  20
ATOM     20  C   UNL     1       3.550   3.889  17.630  0.00  0.00    +0.000 C 
ATOM     21  O   UNL     1       3.333   3.205  16.629  0.00  0.00    +0.000 OA
BRANCH  20  26
ATOM     22  C   UNL     1       7.838   7.847  17.596  0.00  0.00    +0.000 C 
ATOM     23  C   UNL     1       6.733   6.825  17.615  0.00  0.00    +0.000 A 
ATOM     24  C   UNL     1       5.685   6.918  16.687  0.00  0.00    +0.000 A 
ATOM     25  C   UNL     1       4.645   5.979  16.671  0.00  0.00    +0.000 A 
ATOM     26  C   UNL     1       4.636   4.925  17.586  0.00  0.00    +0.000 A 
ATOM     27  C   UNL     1       5.680   4.832  18.520  0.00  0.00    +0.000 A 
ATOM     28  C   UNL     1       6.728   5.769  18.547  0.00  0.00    +0.000 A 
ATOM     29  C   UNL     1       7.818   5.624  19.574  0.00  0.00    +0.000 C 
ENDBRANCH  20  26
ENDBRANCH  19  20
ENDBRANCH  18  19
ENDBRANCH  16  18
ENDBRANCH   1  16
TORSDOF 6
ENDMDL
MODEL 6
REMARK VINA RESULT:      -8.3      1.322      1.798
REMARK  Name = 
REMARK  9 active torsions:
REMARK  status: ('A' for Active; 'I' for Inactive)
REMARK    1  A    between atoms: C_1  and  C_2
REMARK    2  A    between atoms: C_5  and  C_6
REMARK    3  A    between atoms: C_6  and  C_8
REMARK    4  A    between atoms: C_8  and  O_9
REMARK    5  A    between atoms: O_9  and  C_10
REMARK    6  A    between atoms: C_10  and  C_12
REMARK    7  A    between atoms: C_15  and  N_16
REMARK    8  A    between atoms: C_20  and  C_21
REMARK    9  A    between atoms: C_28  and  C_29
REMARK                            x       y       z     vdW  Elec       q    Type
REMARK                         _______ _______ _______ _____ _____    ______ ____
ROOT
ATOM      1  C   UNL     1       8.343   9.311  18.131  0.00  0.00    +0.000 A 
ATOM      2  C   UNL     1       9.174   9.406  19.250  0.00  0.00    +0.000 A 
ATOM      3  C   UNL     1       9.718  10.640  19.630  0.00  0.00    +0.000 A 
ATOM      4  C   UNL     1       9.422  11.816  18.920  0.00  0.00    +0.000 A 
ATOM      5  C   UNL     1       8.539  11.701  17.831  0.00  0.00    +0.000 A 
ATOM      6  C   UNL     1       8.013  10.466  17.427  0.00  0.00    +0.000 A 
ENDROOT
BRANCH   4   7
ATOM      7  N   UNL     1      10.123  13.057  19.154  0.00  0.00    +0.000 N 
ATOM      8  C   UNL     1       9.538  14.082  19.895  0.00  0.00    +0.000 C 
ATOM      9  O   UNL     1       8.365  14.435  19.864  0.00  0.00    +0.000 OA
ATOM     10  C   UNL     1      10.515  14.779  20.812  0.00  0.00    +0.000 C 
ATOM     11  C   UNL     1      11.721  15.288  20.043  0.00  0.00    +0.000 C 
ATOM     12  C   UNL     1      11.359  16.478  19.154  0.00  0.00    +0.000 C 
ATOM     13  C   UNL     1      12.330  14.148  19.247  0.00  0.00    +0.000 C 
ATOM     14  C   UNL     1      11.315  13.325  18.479  0.00  0.00    +0.000 C 
ATOM     15  O   UNL     1      11.610  12.915  17.354  0.00  0.00    +0.000 OA
ENDBRANCH   4   7
BRANCH   1  16
ATOM     16  C   UNL     1       7.814   7.982  17.763  0.00  0.00    +0.000 C 
ATOM     17  O   UNL     1       6.951   7.829  16.910  0.00  0.00    +0.000 OA
BRANCH  16  18
ATOM     18  O   UNL     1       8.387   6.997  18.498  0.00  0.00    +0.000 OA
BRANCH  18  19
ATOM     19  C   UNL     1       7.440   6.066  19.037  0.00  0.00    +0.000 C 
BRANCH  19  20
ATOM     20  C   UNL     1       7.084   4.926  18.077  0.00  0.00    +0.000 C 
ATOM     21  O   UNL     1       7.915   4.430  17.316  0.00  0.00    +0.000 OA
BRANCH  20  26
ATOM     22  C   UNL     1       1.606   2.918  18.099  0.00  0.00    +0.000 C 
ATOM     23  C   UNL     1       3.022   3.429  18.101  0.00  0.00    +0.000 A 
ATOM     24  C   UNL     1       3.554   4.004  16.936  0.00  0.00    +0.000 A 
ATOM     25  C   UNL     1       4.864   4.497  16.905  0.00  0.00    +0.000 A 
ATOM     26  C   UNL     1       5.670   4.425  18.043  0.00  0.00    +0.000 A 
ATOM     27  C   UNL     1       5.143   3.846  19.208  0.00  0.00    +0.000 A 
ATOM     28  C   UNL     1       3.829   3.345  19.251  0.00  0.00    +0.000 A 
ATOM     29  C   UNL     1       3.318   2.728  20.525  0.00  0.00    +0.000 C 
ENDBRANCH  20  26
ENDBRANCH  19  20
ENDBRANCH  18  19
ENDBRANCH  16  18
ENDBRANCH   1  16
TORSDOF 6
ENDMDL
MODEL 7
REMARK VINA RESULT:      -8.2      7.003     10.719
REMARK  Name = 
REMARK  9 active torsions:
REMARK  status: ('A' for Active; 'I' for Inactive)
REMARK    1  A    between atoms: C_1  and  C_2
REMARK    2  A    between atoms: C_5  and  C_6
REMARK    3  A    between atoms: C_6  and  C_8
REMARK    4  A    between atoms: C_8  and  O_9
REMARK    5  A    between atoms: O_9  and  C_10
REMARK    6  A    between atoms: C_10  and  C_12
REMARK    7  A    between atoms: C_15  and  N_16
REMARK    8  A    between atoms: C_20  and  C_21
REMARK    9  A    between atoms: C_28  and  C_29
REMARK                            x       y       z     vdW  Elec       q    Type
REMARK                         _______ _______ _______ _____ _____    ______ ____
ROOT
ATOM      1  C   UNL     1       1.791   8.927  19.190  0.00  0.00    +0.000 A 
ATOM      2  C   UNL     1       1.606   8.137  20.328  0.00  0.00    +0.000 A 
ATOM      3  C   UNL     1       1.940   6.777  20.313  0.00  0.00    +0.000 A 
ATOM      4  C   UNL     1       2.497   6.176  19.171  0.00  0.00    +0.000 A 
ATOM      5  C   UNL     1       2.723   7.006  18.057  0.00  0.00    +0.000 A 
ATOM      6  C   UNL     1       2.366   8.362  18.055  0.00  0.00    +0.000 A 
ENDROOT
BRANCH   4   7
ATOM      7  N   UNL     1       2.659   4.747  19.051  0.00  0.00    +0.000 N 
ATOM      8  C   UNL     1       3.827   4.119  19.480  0.00  0.00    +0.000 C 
ATOM      9  O   UNL     1       4.973   4.532  19.354  0.00  0.00    +0.000 OA
ATOM     10  C   UNL     1       3.569   2.798  20.167  0.00  0.00    +0.000 C 
ATOM     11  C   UNL     1       2.751   1.873  19.285  0.00  0.00    +0.000 C 
ATOM     12  C   UNL     1       3.568   1.355  18.102  0.00  0.00    +0.000 C 
ATOM     13  C   UNL     1       1.490   2.589  18.835  0.00  0.00    +0.000 C 
ATOM     14  C   UNL     1       1.732   3.996  18.326  0.00  0.00    +0.000 C 
ATOM     15  O   UNL     1       1.083   4.398  17.359  0.00  0.00    +0.000 OA
ENDBRANCH   4   7
BRANCH   1  16
ATOM     16  C   UNL     1       1.400  10.350  19.254  0.00  0.00    +0.000 C 
ATOM     17  O   UNL     1       1.800  11.180  18.449  0.00  0.00    +0.000 OA
BRANCH  16  18
ATOM     18  O   UNL     1       0.585  10.595  20.309  0.00  0.00    +0.000 OA
BRANCH  18  19
ATOM     19  C   UNL     1      -0.041  11.883  20.258  0.00  0.00    +0.000 C 
BRANCH  19  20
ATOM     20  C   UNL     1      -1.564  11.821  20.113  0.00  0.00    +0.000 C 
ATOM     21  O   UNL     1      -2.321  12.094  21.045  0.00  0.00    +0.000 OA
BRANCH  20  26
ATOM     22  C   UNL     1      -3.977  10.184  15.058  0.00  0.00    +0.000 C 
ATOM     23  C   UNL     1      -3.364  10.606  16.366  0.00  0.00    +0.000 A 
ATOM     24  C   UNL     1      -2.088  10.140  16.719  0.00  0.00    +0.000 A 
ATOM     25  C   UNL     1      -1.485  10.520  17.924  0.00  0.00    +0.000 A 
ATOM     26  C   UNL     1      -2.148  11.379  18.803  0.00  0.00    +0.000 A 
ATOM     27  C   UNL     1      -3.427  11.844  18.456  0.00  0.00    +0.000 A 
ATOM     28  C   UNL     1      -4.044  11.467  17.249  0.00  0.00    +0.000 A 
ATOM     29  C   UNL     1      -5.419  11.990  16.931  0.00  0.00    +0.000 C 
ENDBRANCH  20  26
ENDBRANCH  19  20
ENDBRANCH  18  19
ENDBRANCH  16  18
ENDBRANCH   1  16
TORSDOF 6
ENDMDL
MODEL 8
REMARK VINA RESULT:      -8.2      7.149     10.575
REMARK  Name = 
REMARK  9 active torsions:
REMARK  status: ('A' for Active; 'I' for Inactive)
REMARK    1  A    between atoms: C_1  and  C_2
REMARK    2  A    between atoms: C_5  and  C_6
REMARK    3  A    between atoms: C_6  and  C_8
REMARK    4  A    between atoms: C_8  and  O_9
REMARK    5  A    between atoms: O_9  and  C_10
REMARK    6  A    between atoms: C_10  and  C_12
REMARK    7  A    between atoms: C_15  and  N_16
REMARK    8  A    between atoms: C_20  and  C_21
REMARK    9  A    between atoms: C_28  and  C_29
REMARK                            x       y       z     vdW  Elec       q    Type
REMARK                         _______ _______ _______ _____ _____    ______ ____
ROOT
ATOM      1  C   UNL     1       1.351   9.164  20.448  0.00  0.00    +0.000 A 
ATOM      2  C   UNL     1       1.445   8.076  21.321  0.00  0.00    +0.000 A 
ATOM      3  C   UNL     1       1.875   6.827  20.857  0.00  0.00    +0.000 A 
ATOM      4  C   UNL     1       2.253   6.637  19.517  0.00  0.00    +0.000 A 
ATOM      5  C   UNL     1       2.201   7.761  18.673  0.00  0.00    +0.000 A 
ATOM      6  C   UNL     1       1.745   9.009  19.122  0.00  0.00    +0.000 A 
ENDROOT
BRANCH   4   7
ATOM      7  N   UNL     1       2.499   5.327  18.961  0.00  0.00    +0.000 N 
ATOM      8  C   UNL     1       1.550   4.312  19.070  0.00  0.00    +0.000 C 
ATOM      9  O   UNL     1       0.843   4.067  20.041  0.00  0.00    +0.000 OA
ATOM     10  C   UNL     1       1.435   3.474  17.818  0.00  0.00    +0.000 C 
ATOM     11  C   UNL     1       2.785   2.911  17.411  0.00  0.00    +0.000 C 
ATOM     12  C   UNL     1       3.250   1.817  18.372  0.00  0.00    +0.000 C 
ATOM     13  C   UNL     1       3.792   4.042  17.305  0.00  0.00    +0.000 C 
ATOM     14  C   UNL     1       3.768   4.998  18.480  0.00  0.00    +0.000 C 
ATOM     15  O   UNL     1       4.833   5.451  18.902  0.00  0.00    +0.000 OA
ENDBRANCH   4   7
BRANCH   1  16
ATOM     16  C   UNL     1       0.870  10.453  20.985  0.00  0.00    +0.000 C 
ATOM     17  O   UNL     1       0.537  10.597  22.153  0.00  0.00    +0.000 OA
BRANCH  16  18
ATOM     18  O   UNL     1       0.831  11.409  20.024  0.00  0.00    +0.000 OA
BRANCH  18  19
ATOM     19  C   UNL     1      -0.127  12.442  20.288  0.00  0.00    +0.000 C 
BRANCH  19  20
ATOM     20  C   UNL     1      -1.581  11.967  20.206  0.00  0.00    +0.000 C 
ATOM     21  O   UNL     1      -2.328  11.979  21.185  0.00  0.00    +0.000 OA
BRANCH  20  26
ATOM     22  C   UNL     1      -3.734  10.006  15.150  0.00  0.00    +0.000 C 
ATOM     23  C   UNL     1      -3.188  10.513  16.458  0.00  0.00    +0.000 A 
ATOM     24  C   UNL     1      -1.930  10.077  16.901  0.00  0.00    +0.000 A 
ATOM     25  C   UNL     1      -1.388  10.535  18.109  0.00  0.00    +0.000 A 
ATOM     26  C   UNL     1      -2.098  11.442  18.899  0.00  0.00    +0.000 A 
ATOM     27  C   UNL     1      -3.359  11.876  18.461  0.00  0.00    +0.000 A 
ATOM     28  C   UNL     1      -3.914  11.422  17.251  0.00  0.00    +0.000 A 
ATOM     29  C   UNL     1      -5.273  11.915  16.834  0.00  0.00    +0.000 C 
ENDBRANCH  20  26
ENDBRANCH  19  20
ENDBRANCH  18  19
ENDBRANCH  16  18
ENDBRANCH   1  16
TORSDOF 6
ENDMDL
MODEL 9
REMARK VINA RESULT:      -8.1      7.268     11.307
REMARK  Name = 
REMARK  9 active torsions:
REMARK  status: ('A' for Active; 'I' for Inactive)
REMARK    1  A    between atoms: C_1  and  C_2
REMARK    2  A    between atoms: C_5  and  C_6
REMARK    3  A    between atoms: C_6  and  C_8
REMARK    4  A    between atoms: C_8  and  O_9
REMARK    5  A    between atoms: O_9  and  C_10
REMARK    6  A    between atoms: C_10  and  C_12
REMARK    7  A    between atoms: C_15  and  N_16
REMARK    8  A    between atoms: C_20  and  C_21
REMARK    9  A    between atoms: C_28  and  C_29
REMARK                            x       y       z     vdW  Elec       q    Type
REMARK                         _______ _______ _______ _____ _____    ______ ____
ROOT
ATOM      1  C   UNL     1       1.315   9.357  19.451  0.00  0.00    +0.000 A 
ATOM      2  C   UNL     1       1.469   8.463  20.514  0.00  0.00    +0.000 A 
ATOM      3  C   UNL     1       2.010   7.189  20.300  0.00  0.00    +0.000 A 
ATOM      4  C   UNL     1       2.441   6.785  19.024  0.00  0.00    +0.000 A 
ATOM      5  C   UNL     1       2.325   7.724  17.983  0.00  0.00    +0.000 A 
ATOM      6  C   UNL     1       1.759   8.991  18.184  0.00  0.00    +0.000 A 
ENDROOT
BRANCH   4   7
ATOM      7  N   UNL     1       2.806   5.420  18.729  0.00  0.00    +0.000 N 
ATOM      8  C   UNL     1       1.864   4.394  18.799  0.00  0.00    +0.000 C 
ATOM      9  O   UNL     1       0.981   4.263  19.638  0.00  0.00    +0.000 OA
ATOM     10  C   UNL     1       2.010   3.381  17.688  0.00  0.00    +0.000 C 
ATOM     11  C   UNL     1       3.419   2.819  17.641  0.00  0.00    +0.000 C 
ATOM     12  C   UNL     1       3.695   1.894  18.826  0.00  0.00    +0.000 C 
ATOM     13  C   UNL     1       4.416   3.962  17.567  0.00  0.00    +0.000 C 
ATOM     14  C   UNL     1       4.148   5.075  18.559  0.00  0.00    +0.000 C 
ATOM     15  O   UNL     1       5.104   5.626  19.109  0.00  0.00    +0.000 OA
ENDBRANCH   4   7
BRANCH   1  16
ATOM     16  C   UNL     1       0.719  10.679  19.729  0.00  0.00    +0.000 C 
ATOM     17  O   UNL     1       1.356  11.720  19.648  0.00  0.00    +0.000 OA
BRANCH  16  18
ATOM     18  O   UNL     1      -0.582  10.571  20.097  0.00  0.00    +0.000 OA
BRANCH  18  19
ATOM     19  C   UNL     1      -1.159  11.813  20.520  0.00  0.00    +0.000 C 
BRANCH  19  20
ATOM     20  C   UNL     1      -1.381  11.904  22.033  0.00  0.00    +0.000 C 
ATOM     21  O   UNL     1      -0.488  11.645  22.841  0.00  0.00    +0.000 OA
BRANCH  20  26
ATOM     22  C   UNL     1      -6.702  13.449  23.862  0.00  0.00    +0.000 C 
ATOM     23  C   UNL     1      -5.330  13.057  23.382  0.00  0.00    +0.000 A 
ATOM     24  C   UNL     1      -4.375  12.602  24.305  0.00  0.00    +0.000 A 
ATOM     25  C   UNL     1      -3.092  12.222  23.892  0.00  0.00    +0.000 A 
ATOM     26  C   UNL     1      -2.739  12.288  22.543  0.00  0.00    +0.000 A 
ATOM     27  C   UNL     1      -3.690  12.748  21.618  0.00  0.00    +0.000 A 
ATOM     28  C   UNL     1      -4.981  13.135  22.020  0.00  0.00    +0.000 A 
ATOM     29  C   UNL     1      -5.957  13.627  20.987  0.00  0.00    +0.000 C 
ENDBRANCH  20  26
ENDBRANCH  19  20
ENDBRANCH  18  19
ENDBRANCH  16  18
ENDBRANCH   1  16
TORSDOF 6
ENDMDL
