MODEL 1
REMARK VINA RESULT:      -8.2      0.000      0.000
REMARK  Name = 
REMARK  4 active torsions:
REMARK  status: ('A' for Active; 'I' for Inactive)
REMARK    1  A    between atoms: N_1  and  C_2
REMARK    2  A    between atoms: C_4  and  S_5
REMARK    3  A    between atoms: S_5  and  C_6
REMARK    4  A    between atoms: C_6  and  C_7
REMARK                            x       y       z     vdW  Elec       q    Type
REMARK                         _______ _______ _______ _____ _____    ______ ____
ROOT
ATOM      1  C   UNL     1       8.827   9.332  17.712  0.00  0.00    +0.000 C 
ENDROOT
BRANCH   1   2
ATOM      2  C   UNL     1       8.022   8.084  18.034  0.00  0.00    +0.000 A 
ATOM      3  C   UNL     1       8.354   7.188  18.984  0.00  0.00    +0.000 A 
ATOM      4  C   UNL     1       7.515   5.970  19.197  0.00  0.00    +0.000 A 
ATOM      5  O   UNL     1       7.811   5.196  20.114  0.00  0.00    +0.000 OA
ATOM      6  N   UNL     1       6.435   5.859  18.331  0.00  0.00    +0.000 N 
ATOM      7  C   UNL     1       6.223   6.870  17.410  0.00  0.00    +0.000 A 
ATOM      8  N   UNL     1       6.934   7.911  17.228  0.00  0.00    +0.000 NA
ATOM      9  S   UNL     1       4.769   6.645  16.480  0.00  0.00    +0.000 S 
ATOM     10  C   UNL     1       4.374   5.226  17.436  0.00  0.00    +0.000 A 
ATOM     11  C   UNL     1       3.143   4.616  17.449  0.00  0.00    +0.000 A 
ATOM     12  C   UNL     1       2.933   3.640  18.406  0.00  0.00    +0.000 A 
ATOM     13  C   UNL     1       4.015   3.091  19.109  0.00  0.00    +0.000 A 
ATOM     14  C   UNL     1       5.253   3.751  19.125  0.00  0.00    +0.000 A 
ATOM     15  C   UNL     1       5.409   4.876  18.325  0.00  0.00    +0.000 A 
ENDBRANCH   1   2
BRANCH   1  16
ATOM     16  S   UNL     1       9.245  10.369  19.162  0.00  0.00    +0.000 S 
BRANCH  16  19
ATOM     17  C   UNL     1      11.258  13.037  17.043  0.00  0.00    +0.000 A 
ATOM     18  N   UNL     1      10.829  11.875  17.570  0.00  0.00    +0.000 NA
ATOM     19  C   UNL     1       9.790  11.891  18.423  0.00  0.00    +0.000 A 
ATOM     20  N   UNL     1       9.096  12.970  18.802  0.00  0.00    +0.000 NA
ATOM     21  C   UNL     1       9.544  14.109  18.257  0.00  0.00    +0.000 A 
ATOM     22  S   UNL     1       8.805  15.604  18.612  0.00  0.00    +0.000 S 
ATOM     23  C   UNL     1       9.905  16.456  17.616  0.00  0.00    +0.000 A 
ATOM     24  C   UNL     1      10.812  15.608  17.018  0.00  0.00    +0.000 A 
ATOM     25  C   UNL     1      10.610  14.234  17.384  0.00  0.00    +0.000 A 
BRANCH  17  26
ATOM     26  N   UNL     1      12.326  12.984  16.176  0.00  0.00    +0.000 N 
ATOM     27  H   UNL     1      13.251  13.014  16.578  0.00  0.00    +0.000 HD
ATOM     28  H   UNL     1      12.201  13.096  15.183  0.00  0.00    +0.000 HD
ENDBRANCH  17  26
ENDBRANCH  16  19
ENDBRANCH   1  16
TORSDOF 4
ENDMDL
MODEL 2
REMARK VINA RESULT:      -8.0      6.605      9.063
REMARK  Name = 
REMARK  4 active torsions:
REMARK  status: ('A' for Active; 'I' for Inactive)
REMARK    1  A    between atoms: N_1  and  C_2
REMARK    2  A    between atoms: C_4  and  S_5
REMARK    3  A    between atoms: S_5  and  C_6
REMARK    4  A    between atoms: C_6  and  C_7
REMARK                            x       y       z     vdW  Elec       q    Type
REMARK                         _______ _______ _______ _____ _____    ______ ____
ROOT
ATOM      1  C   UNL     1       2.508   5.278  20.368  0.00  0.00    +0.000 C 
ENDROOT
BRANCH   1   2
ATOM      2  C   UNL     1       2.066   6.682  19.989  0.00  0.00    +0.000 A 
ATOM      3  C   UNL     1       2.353   7.279  18.816  0.00  0.00    +0.000 A 
ATOM      4  C   UNL     1       1.902   8.680  18.554  0.00  0.00    +0.000 A 
ATOM      5  O   UNL     1       2.130   9.181  17.448  0.00  0.00    +0.000 OA
ATOM      6  N   UNL     1       1.222   9.270  19.612  0.00  0.00    +0.000 N 
ATOM      7  C   UNL     1       1.000   8.520  20.753  0.00  0.00    +0.000 A 
ATOM      8  N   UNL     1       1.380   7.325  20.978  0.00  0.00    +0.000 NA
ATOM      9  S   UNL     1       0.036   9.356  21.936  0.00  0.00    +0.000 S 
ATOM     10  C   UNL     1      -0.176  10.696  20.821  0.00  0.00    +0.000 A 
ATOM     11  C   UNL     1      -1.106  11.696  20.975  0.00  0.00    +0.000 A 
ATOM     12  C   UNL     1      -1.286  12.559  19.910  0.00  0.00    +0.000 A 
ATOM     13  C   UNL     1      -0.353  12.600  18.864  0.00  0.00    +0.000 A 
ATOM     14  C   UNL     1       0.558  11.547  18.691  0.00  0.00    +0.000 A 
ATOM     15  C   UNL     1       0.597  10.546  19.654  0.00  0.00    +0.000 A 
ENDBRANCH   1   2
BRANCH   1  16
ATOM     16  S   UNL     1       2.473   4.067  18.997  0.00  0.00    +0.000 S 
BRANCH  16  19
ATOM     17  C   UNL     1       6.315   4.776  18.365  0.00  0.00    +0.000 A 
ATOM     18  N   UNL     1       5.131   4.564  18.969  0.00  0.00    +0.000 NA
ATOM     19  C   UNL     1       4.051   4.301  18.213  0.00  0.00    +0.000 A 
ATOM     20  N   UNL     1       4.028   4.199  16.879  0.00  0.00    +0.000 NA
ATOM     21  C   UNL     1       5.221   4.410  16.308  0.00  0.00    +0.000 A 
ATOM     22  S   UNL     1       5.413   4.334  14.615  0.00  0.00    +0.000 S 
ATOM     23  C   UNL     1       7.078   4.712  14.723  0.00  0.00    +0.000 A 
ATOM     24  C   UNL     1       7.477   4.882  16.031  0.00  0.00    +0.000 A 
ATOM     25  C   UNL     1       6.401   4.707  16.967  0.00  0.00    +0.000 A 
BRANCH  17  26
ATOM     26  N   UNL     1       7.398   5.046  19.170  0.00  0.00    +0.000 N 
ATOM     27  H   UNL     1       8.028   4.284  19.371  0.00  0.00    +0.000 HD
ATOM     28  H   UNL     1       7.466   5.908  19.687  0.00  0.00    +0.000 HD
ENDBRANCH  17  26
ENDBRANCH  16  19
ENDBRANCH   1  16
TORSDOF 4
ENDMDL
MODEL 3
REMARK VINA RESULT:      -8.0      7.139     10.268
REMARK  Name = 
REMARK  4 active torsions:
REMARK  status: ('A' for Active; 'I' for Inactive)
REMARK    1  A    between atoms: N_1  and  C_2
REMARK    2  A    between atoms: C_4  and  S_5
REMARK    3  A    between atoms: S_5  and  C_6
REMARK    4  A    between atoms: C_6  and  C_7
REMARK                            x       y       z     vdW  Elec       q    Type
REMARK                         _______ _______ _______ _____ _____    ______ ____
ROOT
ATOM      1  C   UNL     1       2.175   7.773  19.605  0.00  0.00    +0.000 C 
ENDROOT
BRANCH   1   2
ATOM      2  C   UNL     1       1.298   8.708  20.420  0.00  0.00    +0.000 A 
ATOM      3  C   UNL     1       1.236   8.714  21.765  0.00  0.00    +0.000 A 
ATOM      4  C   UNL     1       0.310   9.650  22.473  0.00  0.00    +0.000 A 
ATOM      5  O   UNL     1       0.317   9.674  23.708  0.00  0.00    +0.000 OA
ATOM      6  N   UNL     1      -0.458  10.443  21.629  0.00  0.00    +0.000 N 
ATOM      7  C   UNL     1      -0.273  10.323  20.263  0.00  0.00    +0.000 A 
ATOM      8  N   UNL     1       0.517   9.529  19.657  0.00  0.00    +0.000 NA
ATOM      9  S   UNL     1      -1.219  11.462  19.349  0.00  0.00    +0.000 S 
ATOM     10  C   UNL     1      -1.781  12.197  20.842  0.00  0.00    +0.000 A 
ATOM     11  C   UNL     1      -2.414  13.415  20.919  0.00  0.00    +0.000 A 
ATOM     12  C   UNL     1      -2.607  13.946  22.181  0.00  0.00    +0.000 A 
ATOM     13  C   UNL     1      -2.451  13.144  23.320  0.00  0.00    +0.000 A 
ATOM     14  C   UNL     1      -1.761  11.925  23.235  0.00  0.00    +0.000 A 
ATOM     15  C   UNL     1      -1.363  11.481  21.980  0.00  0.00    +0.000 A 
ENDBRANCH   1   2
BRANCH   1  16
ATOM     16  S   UNL     1       2.061   6.009  20.079  0.00  0.00    +0.000 S 
BRANCH  16  19
ATOM     17  C   UNL     1       3.919   3.252  17.931  0.00  0.00    +0.000 A 
ATOM     18  N   UNL     1       3.137   3.856  18.845  0.00  0.00    +0.000 NA
ATOM     19  C   UNL     1       3.053   5.197  18.847  0.00  0.00    +0.000 A 
ATOM     20  N   UNL     1       3.665   6.028  17.994  0.00  0.00    +0.000 NA
ATOM     21  C   UNL     1       4.431   5.396  17.094  0.00  0.00    +0.000 A 
ATOM     22  S   UNL     1       5.306   6.267  15.918  0.00  0.00    +0.000 S 
ATOM     23  C   UNL     1       5.968   4.834  15.258  0.00  0.00    +0.000 A 
ATOM     24  C   UNL     1       5.518   3.713  15.921  0.00  0.00    +0.000 A 
ATOM     25  C   UNL     1       4.619   4.029  16.996  0.00  0.00    +0.000 A 
BRANCH  17  26
ATOM     26  N   UNL     1       3.983   1.877  17.961  0.00  0.00    +0.000 N 
ATOM     27  H   UNL     1       3.396   1.372  17.316  0.00  0.00    +0.000 HD
ATOM     28  H   UNL     1       4.450   1.390  18.709  0.00  0.00    +0.000 HD
ENDBRANCH  17  26
ENDBRANCH  16  19
ENDBRANCH   1  16
TORSDOF 4
ENDMDL
MODEL 4
REMARK VINA RESULT:      -7.8      6.740      9.645
REMARK  Name = 
REMARK  4 active torsions:
REMARK  status: ('A' for Active; 'I' for Inactive)
REMARK    1  A    between atoms: N_1  and  C_2
REMARK    2  A    between atoms: C_4  and  S_5
REMARK    3  A    between atoms: S_5  and  C_6
REMARK    4  A    between atoms: C_6  and  C_7
REMARK                            x       y       z     vdW  Elec       q    Type
REMARK                         _______ _______ _______ _____ _____    ______ ____
ROOT
ATOM      1  C   UNL     1       2.169   7.846  18.951  0.00  0.00    +0.000 C 
ENDROOT
BRANCH   1   2
ATOM      2  C   UNL     1       1.367   8.745  19.878  0.00  0.00    +0.000 A 
ATOM      3  C   UNL     1       1.449   8.719  21.222  0.00  0.00    +0.000 A 
ATOM      4  C   UNL     1       0.588   9.620  22.047  0.00  0.00    +0.000 A 
ATOM      5  O   UNL     1       0.727   9.614  23.275  0.00  0.00    +0.000 OA
ATOM      6  N   UNL     1      -0.278  10.417  21.311  0.00  0.00    +0.000 N 
ATOM      7  C   UNL     1      -0.238  10.333  19.930  0.00  0.00    +0.000 A 
ATOM      8  N   UNL     1       0.497   9.569  19.224  0.00  0.00    +0.000 NA
ATOM      9  S   UNL     1      -1.295  11.475  19.151  0.00  0.00    +0.000 S 
ATOM     10  C   UNL     1      -1.707  12.164  20.713  0.00  0.00    +0.000 A 
ATOM     11  C   UNL     1      -2.348  13.367  20.887  0.00  0.00    +0.000 A 
ATOM     12  C   UNL     1      -2.414  13.864  22.175  0.00  0.00    +0.000 A 
ATOM     13  C   UNL     1      -2.124  13.039  23.271  0.00  0.00    +0.000 A 
ATOM     14  C   UNL     1      -1.427  11.836  23.082  0.00  0.00    +0.000 A 
ATOM     15  C   UNL     1      -1.158  11.429  21.782  0.00  0.00    +0.000 A 
ENDBRANCH   1   2
BRANCH   1  16
ATOM     16  S   UNL     1       2.395   6.133  19.553  0.00  0.00    +0.000 S 
BRANCH  16  19
ATOM     17  C   UNL     1       6.232   5.294  19.060  0.00  0.00    +0.000 A 
ATOM     18  N   UNL     1       5.049   5.618  19.616  0.00  0.00    +0.000 NA
ATOM     19  C   UNL     1       3.953   5.660  18.840  0.00  0.00    +0.000 A 
ATOM     20  N   UNL     1       3.901   5.382  17.532  0.00  0.00    +0.000 NA
ATOM     21  C   UNL     1       5.092   5.059  17.009  0.00  0.00    +0.000 A 
ATOM     22  S   UNL     1       5.252   4.675  15.355  0.00  0.00    +0.000 S 
ATOM     23  C   UNL     1       6.938   4.431  15.510  0.00  0.00    +0.000 A 
ATOM     24  C   UNL     1       7.365   4.631  16.805  0.00  0.00    +0.000 A 
ATOM     25  C   UNL     1       6.294   4.997  17.691  0.00  0.00    +0.000 A 
BRANCH  17  26
ATOM     26  N   UNL     1       7.333   5.263  19.885  0.00  0.00    +0.000 N 
ATOM     27  H   UNL     1       8.115   4.696  19.593  0.00  0.00    +0.000 HD
ATOM     28  H   UNL     1       7.299   5.636  20.820  0.00  0.00    +0.000 HD
ENDBRANCH  17  26
ENDBRANCH  16  19
ENDBRANCH   1  16
TORSDOF 4
ENDMDL
MODEL 5
REMARK VINA RESULT:      -7.7      8.111     11.139
REMARK  Name = 
REMARK  4 active torsions:
REMARK  status: ('A' for Active; 'I' for Inactive)
REMARK    1  A    between atoms: N_1  and  C_2
REMARK    2  A    between atoms: C_4  and  S_5
REMARK    3  A    between atoms: S_5  and  C_6
REMARK    4  A    between atoms: C_6  and  C_7
REMARK                            x       y       z     vdW  Elec       q    Type
REMARK                         _______ _______ _______ _____ _____    ______ ____
ROOT
ATOM      1  C   UNL     1       0.785  10.021  19.243  0.00  0.00    +0.000 C 
ENDROOT
BRANCH   1   2
ATOM      2  C   UNL     1      -0.637  10.373  18.837  0.00  0.00    +0.000 A 
ATOM      3  C   UNL     1      -1.254   9.897  17.738  0.00  0.00    +0.000 A 
ATOM      4  C   UNL     1      -2.644  10.335  17.406  0.00  0.00    +0.000 A 
ATOM      5  O   UNL     1      -3.206   9.838  16.424  0.00  0.00    +0.000 OA
ATOM      6  N   UNL     1      -3.180  11.260  18.292  0.00  0.00    +0.000 N 
ATOM      7  C   UNL     1      -2.420  11.647  19.381  0.00  0.00    +0.000 A 
ATOM      8  N   UNL     1      -1.236  11.273  19.669  0.00  0.00    +0.000 NA
ATOM      9  S   UNL     1      -3.272  12.716  20.457  0.00  0.00    +0.000 S 
ATOM     10  C   UNL     1      -4.725  12.540  19.486  0.00  0.00    +0.000 A 
ATOM     11  C   UNL     1      -5.981  12.923  19.890  0.00  0.00    +0.000 A 
ATOM     12  C   UNL     1      -7.044  12.530  19.098  0.00  0.00    +0.000 A 
ATOM     13  C   UNL     1      -6.823  12.045  17.801  0.00  0.00    +0.000 A 
ATOM     14  C   UNL     1      -5.544  11.614  17.419  0.00  0.00    +0.000 A 
ATOM     15  C   UNL     1      -4.492  11.806  18.307  0.00  0.00    +0.000 A 
ENDBRANCH   1   2
BRANCH   1  16
ATOM     16  S   UNL     1       1.899   9.608  17.851  0.00  0.00    +0.000 S 
BRANCH  16  19
ATOM     17  C   UNL     1       2.636   6.244  19.802  0.00  0.00    +0.000 A 
ATOM     18  N   UNL     1       2.107   7.427  19.436  0.00  0.00    +0.000 NA
ATOM     19  C   UNL     1       2.556   8.024  18.319  0.00  0.00    +0.000 A 
ATOM     20  N   UNL     1       3.488   7.544  17.487  0.00  0.00    +0.000 NA
ATOM     21  C   UNL     1       3.992   6.365  17.876  0.00  0.00    +0.000 A 
ATOM     22  S   UNL     1       5.198   5.579  16.963  0.00  0.00    +0.000 S 
ATOM     23  C   UNL     1       5.279   4.277  18.071  0.00  0.00    +0.000 A 
ATOM     24  C   UNL     1       4.391   4.441  19.112  0.00  0.00    +0.000 A 
ATOM     25  C   UNL     1       3.632   5.656  19.009  0.00  0.00    +0.000 A 
BRANCH  17  26
ATOM     26  N   UNL     1       2.154   5.664  20.953  0.00  0.00    +0.000 N 
ATOM     27  H   UNL     1       1.413   4.986  20.855  0.00  0.00    +0.000 HD
ATOM     28  H   UNL     1       2.393   6.025  21.862  0.00  0.00    +0.000 HD
ENDBRANCH  17  26
ENDBRANCH  16  19
ENDBRANCH   1  16
TORSDOF 4
ENDMDL
MODEL 6
REMARK VINA RESULT:      -7.6      6.914      9.119
REMARK  Name = 
REMARK  4 active torsions:
REMARK  status: ('A' for Active; 'I' for Inactive)
REMARK    1  A    between atoms: N_1  and  C_2
REMARK    2  A    between atoms: C_4  and  S_5
REMARK    3  A    between atoms: S_5  and  C_6
REMARK    4  A    between atoms: C_6  and  C_7
REMARK                            x       y       z     vdW  Elec       q    Type
REMARK                         _______ _______ _______ _____ _____    ______ ____
ROOT
ATOM      1  C   UNL     1       1.872   9.602  18.167  0.00  0.00    +0.000 C 
ENDROOT
BRANCH   1   2
ATOM      2  C   UNL     1       2.414   8.187  18.283  0.00  0.00    +0.000 A 
ATOM      3  C   UNL     1       3.342   7.658  17.463  0.00  0.00    +0.000 A 
ATOM      4  C   UNL     1       3.781   6.240  17.638  0.00  0.00    +0.000 A 
ATOM      5  O   UNL     1       4.676   5.799  16.908  0.00  0.00    +0.000 OA
ATOM      6  N   UNL     1       3.135   5.562  18.664  0.00  0.00    +0.000 N 
ATOM      7  C   UNL     1       2.206   6.250  19.425  0.00  0.00    +0.000 A 
ATOM      8  N   UNL     1       1.832   7.459  19.280  0.00  0.00    +0.000 NA
ATOM      9  S   UNL     1       1.573   5.303  20.740  0.00  0.00    +0.000 S 
ATOM     10  C   UNL     1       2.673   3.996  20.332  0.00  0.00    +0.000 A 
ATOM     11  C   UNL     1       2.949   2.927  21.150  0.00  0.00    +0.000 A 
ATOM     12  C   UNL     1       3.987   2.096  20.774  0.00  0.00    +0.000 A 
ATOM     13  C   UNL     1       4.515   2.162  19.477  0.00  0.00    +0.000 A 
ATOM     14  C   UNL     1       4.264   3.282  18.670  0.00  0.00    +0.000 A 
ATOM     15  C   UNL     1       3.378   4.245  19.138  0.00  0.00    +0.000 A 
ENDBRANCH   1   2
BRANCH   1  16
ATOM     16  S   UNL     1       0.956  10.195  19.636  0.00  0.00    +0.000 S 
BRANCH  16  19
ATOM     17  C   UNL     1      -2.540  11.977  19.120  0.00  0.00    +0.000 A 
ATOM     18  N   UNL     1      -1.347  11.612  19.626  0.00  0.00    +0.000 NA
ATOM     19  C   UNL     1      -0.599  10.721  18.954  0.00  0.00    +0.000 A 
ATOM     20  N   UNL     1      -0.909  10.153  17.782  0.00  0.00    +0.000 NA
ATOM     21  C   UNL     1      -2.100  10.540  17.303  0.00  0.00    +0.000 A 
ATOM     22  S   UNL     1      -2.692   9.931  15.824  0.00  0.00    +0.000 S 
ATOM     23  C   UNL     1      -4.138  10.836  15.958  0.00  0.00    +0.000 A 
ATOM     24  C   UNL     1      -4.158  11.595  17.109  0.00  0.00    +0.000 A 
ATOM     25  C   UNL     1      -2.972  11.431  17.902  0.00  0.00    +0.000 A 
BRANCH  17  26
ATOM     26  N   UNL     1      -3.281  12.889  19.837  0.00  0.00    +0.000 N 
ATOM     27  H   UNL     1      -4.124  13.240  19.409  0.00  0.00    +0.000 HD
ATOM     28  H   UNL     1      -2.913  13.328  20.665  0.00  0.00    +0.000 HD
ENDBRANCH  17  26
ENDBRANCH  16  19
ENDBRANCH   1  16
TORSDOF 4
ENDMDL
MODEL 7
REMARK VINA RESULT:      -7.6      7.082     10.168
REMARK  Name = 
REMARK  4 active torsions:
REMARK  status: ('A' for Active; 'I' for Inactive)
REMARK    1  A    between atoms: N_1  and  C_2
REMARK    2  A    between atoms: C_4  and  S_5
REMARK    3  A    between atoms: S_5  and  C_6
REMARK    4  A    between atoms: C_6  and  C_7
REMARK                            x       y       z     vdW  Elec       q    Type
REMARK                         _______ _______ _______ _____ _____    ______ ____
ROOT
ATOM      1  C   UNL     1       2.093   8.477  18.709  0.00  0.00    +0.000 C 
ENDROOT
BRANCH   1   2
ATOM      2  C   UNL     1       1.046   9.481  19.162  0.00  0.00    +0.000 A 
ATOM      3  C   UNL     1       0.380  10.311  18.336  0.00  0.00    +0.000 A 
ATOM      4  C   UNL     1      -0.606  11.290  18.887  0.00  0.00    +0.000 A 
ATOM      5  O   UNL     1      -1.244  11.998  18.101  0.00  0.00    +0.000 OA
ATOM      6  N   UNL     1      -0.723  11.268  20.271  0.00  0.00    +0.000 N 
ATOM      7  C   UNL     1       0.028  10.349  20.982  0.00  0.00    +0.000 A 
ATOM      8  N   UNL     1       0.867   9.510  20.515  0.00  0.00    +0.000 NA
ATOM      9  S   UNL     1      -0.317  10.365  22.687  0.00  0.00    +0.000 S 
ATOM     10  C   UNL     1      -1.588  11.548  22.421  0.00  0.00    +0.000 A 
ATOM     11  C   UNL     1      -2.548  11.878  23.346  0.00  0.00    +0.000 A 
ATOM     12  C   UNL     1      -3.595  12.669  22.913  0.00  0.00    +0.000 A 
ATOM     13  C   UNL     1      -3.511  13.351  21.690  0.00  0.00    +0.000 A 
ATOM     14  C   UNL     1      -2.555  12.971  20.736  0.00  0.00    +0.000 A 
ATOM     15  C   UNL     1      -1.621  12.005  21.090  0.00  0.00    +0.000 A 
ENDBRANCH   1   2
BRANCH   1  16
ATOM     16  S   UNL     1       2.195   6.962  19.730  0.00  0.00    +0.000 S 
BRANCH  16  19
ATOM     17  C   UNL     1       4.822   4.146  18.817  0.00  0.00    +0.000 A 
ATOM     18  N   UNL     1       3.872   4.859  19.451  0.00  0.00    +0.000 NA
ATOM     19  C   UNL     1       3.414   5.986  18.880  0.00  0.00    +0.000 A 
ATOM     20  N   UNL     1       3.793   6.482  17.696  0.00  0.00    +0.000 NA
ATOM     21  C   UNL     1       4.735   5.748  17.089  0.00  0.00    +0.000 A 
ATOM     22  S   UNL     1       5.366   6.207  15.572  0.00  0.00    +0.000 S 
ATOM     23  C   UNL     1       6.426   4.864  15.536  0.00  0.00    +0.000 A 
ATOM     24  C   UNL     1       6.290   4.078  16.660  0.00  0.00    +0.000 A 
ATOM     25  C   UNL     1       5.303   4.584  17.574  0.00  0.00    +0.000 A 
BRANCH  17  26
ATOM     26  N   UNL     1       5.271   2.999  19.433  0.00  0.00    +0.000 N 
ATOM     27  H   UNL     1       6.224   2.994  19.763  0.00  0.00    +0.000 HD
ATOM     28  H   UNL     1       4.743   2.143  19.395  0.00  0.00    +0.000 HD
ENDBRANCH  17  26
ENDBRANCH  16  19
ENDBRANCH   1  16
TORSDOF 4
ENDMDL
MODEL 8
REMARK VINA RESULT:      -7.5      6.756      9.508
REMARK  Name = 
REMARK  4 active torsions:
REMARK  status: ('A' for Active; 'I' for Inactive)
REMARK    1  A    between atoms: N_1  and  C_2
REMARK    2  A    between atoms: C_4  and  S_5
REMARK    3  A    between atoms: S_5  and  C_6
REMARK    4  A    between atoms: C_6  and  C_7
REMARK                            x       y       z     vdW  Elec       q    Type
REMARK                         _______ _______ _______ _____ _____    ______ ____
ROOT
ATOM      1  C   UNL     1       2.341   6.259  20.556  0.00  0.00    +0.000 C 
ENDROOT
BRANCH   1   2
ATOM      2  C   UNL     1       1.669   7.618  20.442  0.00  0.00    +0.000 A 
ATOM      3  C   UNL     1       1.669   8.375  19.328  0.00  0.00    +0.000 A 
ATOM      4  C   UNL     1       1.011   9.717  19.329  0.00  0.00    +0.000 A 
ATOM      5  O   UNL     1       0.976  10.364  18.277  0.00  0.00    +0.000 OA
ATOM      6  N   UNL     1       0.461  10.084  20.551  0.00  0.00    +0.000 N 
ATOM      7  C   UNL     1       0.537   9.189  21.603  0.00  0.00    +0.000 A 
ATOM      8  N   UNL     1       1.095   8.043  21.605  0.00  0.00    +0.000 NA
ATOM      9  S   UNL     1      -0.298   9.743  23.026  0.00  0.00    +0.000 S 
ATOM     10  C   UNL     1      -0.867  11.153  22.146  0.00  0.00    +0.000 A 
ATOM     11  C   UNL     1      -1.870  11.986  22.578  0.00  0.00    +0.000 A 
ATOM     12  C   UNL     1      -2.340  12.925  21.679  0.00  0.00    +0.000 A 
ATOM     13  C   UNL     1      -1.619  13.214  20.512  0.00  0.00    +0.000 A 
ATOM     14  C   UNL     1      -0.630  12.329  20.058  0.00  0.00    +0.000 A 
ATOM     15  C   UNL     1      -0.299  11.244  20.860  0.00  0.00    +0.000 A 
ENDBRANCH   1   2
BRANCH   1  16
ATOM     16  S   UNL     1       2.133   5.177  19.095  0.00  0.00    +0.000 S 
BRANCH  16  19
ATOM     17  C   UNL     1       6.079   5.116  18.791  0.00  0.00    +0.000 A 
ATOM     18  N   UNL     1       4.830   5.181  19.290  0.00  0.00    +0.000 NA
ATOM     19  C   UNL     1       3.787   5.044  18.455  0.00  0.00    +0.000 A 
ATOM     20  N   UNL     1       3.853   4.818  17.138  0.00  0.00    +0.000 NA
ATOM     21  C   UNL     1       5.108   4.754  16.673  0.00  0.00    +0.000 A 
ATOM     22  S   UNL     1       5.420   4.481  15.018  0.00  0.00    +0.000 S 
ATOM     23  C   UNL     1       7.112   4.560  15.259  0.00  0.00    +0.000 A 
ATOM     24  C   UNL     1       7.428   4.782  16.582  0.00  0.00    +0.000 A 
ATOM     25  C   UNL     1       6.265   4.896  17.418  0.00  0.00    +0.000 A 
BRANCH  17  26
ATOM     26  N   UNL     1       7.124   5.263  19.675  0.00  0.00    +0.000 N 
ATOM     27  H   UNL     1       7.592   4.424  19.982  0.00  0.00    +0.000 HD
ATOM     28  H   UNL     1       7.299   6.140  20.138  0.00  0.00    +0.000 HD
ENDBRANCH  17  26
ENDBRANCH  16  19
ENDBRANCH   1  16
TORSDOF 4
ENDMDL
MODEL 9
REMARK VINA RESULT:      -7.4      6.907     10.115
REMARK  Name = 
REMARK  4 active torsions:
REMARK  status: ('A' for Active; 'I' for Inactive)
REMARK    1  A    between atoms: N_1  and  C_2
REMARK    2  A    between atoms: C_4  and  S_5
REMARK    3  A    between atoms: S_5  and  C_6
REMARK    4  A    between atoms: C_6  and  C_7
REMARK                            x       y       z     vdW  Elec       q    Type
REMARK                         _______ _______ _______ _____ _____    ______ ____
ROOT
ATOM      1  C   UNL     1       2.174   8.095  18.291  0.00  0.00    +0.000 C 
ENDROOT
BRANCH   1   2
ATOM      2  C   UNL     1       1.482   9.264  18.972  0.00  0.00    +0.000 A 
ATOM      3  C   UNL     1       1.383  10.501  18.448  0.00  0.00    +0.000 A 
ATOM      4  C   UNL     1       0.715  11.594  19.217  0.00  0.00    +0.000 A 
ATOM      5  O   UNL     1       0.588  12.703  18.687  0.00  0.00    +0.000 OA
ATOM      6  N   UNL     1       0.262  11.216  20.474  0.00  0.00    +0.000 N 
ATOM      7  C   UNL     1       0.433   9.901  20.868  0.00  0.00    +0.000 A 
ATOM      8  N   UNL     1       1.000   8.966  20.214  0.00  0.00    +0.000 NA
ATOM      9  S   UNL     1      -0.289   9.557  22.413  0.00  0.00    +0.000 S 
ATOM     10  C   UNL     1      -0.941  11.186  22.474  0.00  0.00    +0.000 A 
ATOM     11  C   UNL     1      -1.914  11.602  23.351  0.00  0.00    +0.000 A 
ATOM     12  C   UNL     1      -2.465  12.851  23.136  0.00  0.00    +0.000 A 
ATOM     13  C   UNL     1      -1.844  13.761  22.267  0.00  0.00    +0.000 A 
ATOM     14  C   UNL     1      -0.887  13.313  21.345  0.00  0.00    +0.000 A 
ATOM     15  C   UNL     1      -0.481  11.985  21.410  0.00  0.00    +0.000 A 
ENDBRANCH   1   2
BRANCH   1  16
ATOM     16  S   UNL     1       2.523   6.669  19.383  0.00  0.00    +0.000 S 
BRANCH  16  19
ATOM     17  C   UNL     1       4.132   3.427  17.781  0.00  0.00    +0.000 A 
ATOM     18  N   UNL     1       3.405   4.248  18.562  0.00  0.00    +0.000 NA
ATOM     19  C   UNL     1       3.442   5.571  18.329  0.00  0.00    +0.000 A 
ATOM     20  N   UNL     1       4.128   6.183  17.357  0.00  0.00    +0.000 NA
ATOM     21  C   UNL     1       4.837   5.339  16.595  0.00  0.00    +0.000 A 
ATOM     22  S   UNL     1       5.790   5.912  15.301  0.00  0.00    +0.000 S 
ATOM     23  C   UNL     1       6.323   4.333  14.912  0.00  0.00    +0.000 A 
ATOM     24  C   UNL     1       5.772   3.389  15.752  0.00  0.00    +0.000 A 
ATOM     25  C   UNL     1       4.901   3.965  16.738  0.00  0.00    +0.000 A 
BRANCH  17  26
ATOM     26  N   UNL     1       4.073   2.079  18.050  0.00  0.00    +0.000 N 
ATOM     27  H   UNL     1       3.190   1.708  18.368  0.00  0.00    +0.000 HD
ATOM     28  H   UNL     1       4.907   1.518  18.108  0.00  0.00    +0.000 HD
ENDBRANCH  17  26
ENDBRANCH  16  19
ENDBRANCH   1  16
TORSDOF 4
ENDMDL
