MODEL 1
REMARK VINA RESULT:      -8.6      0.000      0.000
REMARK  Name = 
REMARK  10 active torsions:
REMARK  status: ('A' for Active; 'I' for Inactive)
REMARK    1  A    between atoms: C_1  and  C_2
REMARK    2  A    between atoms: C_2  and  C_3
REMARK    3  A    between atoms: C_2  and  C_4
REMARK    4  A    between atoms: C_4  and  C_5
REMARK    5  A    between atoms: C_5  and  C_6
REMARK    6  A    between atoms: N_8  and  C_9
REMARK    7  A    between atoms: C_13  and  S_14
REMARK    8  A    between atoms: S_14  and  N_17
REMARK    9  A    between atoms: N_17  and  C_18
REMARK   10  A    between atoms: C_23  and  C_24
REMARK                            x       y       z     vdW  Elec       q    Type
REMARK                         _______ _______ _______ _____ _____    ______ ____
ROOT
ATOM      1  C   UNL     1       5.910   5.506  16.908  0.00  0.00    +0.000 A 
ATOM      2  C   UNL     1       6.653   5.085  18.023  0.00  0.00    +0.000 A 
ATOM      3  C   UNL     1       6.120   5.190  19.308  0.00  0.00    +0.000 A 
ATOM      4  C   UNL     1       4.829   5.681  19.487  0.00  0.00    +0.000 A 
ATOM      5  C   UNL     1       4.074   6.078  18.376  0.00  0.00    +0.000 A 
ATOM      6  C   UNL     1       4.624   6.040  17.087  0.00  0.00    +0.000 A 
ENDROOT
BRANCH   1   9
ATOM      7  C   UNL     1       6.945   4.636  13.606  0.00  0.00    +0.000 A 
ATOM      8  C   UNL     1       5.929   4.656  14.535  0.00  0.00    +0.000 A 
ATOM      9  N   UNL     1       6.455   5.327  15.612  0.00  0.00    +0.000 N 
ATOM     10  N   UNL     1       7.697   5.773  15.300  0.00  0.00    +0.000 NA
ATOM     11  N   UNL     1       8.014   5.330  14.094  0.00  0.00    +0.000 NA
BRANCH   7  12
ATOM     12  C   UNL     1       7.013   3.963  12.284  0.00  0.00    +0.000 C 
BRANCH  12  13
ATOM     13  C   UNL     1       5.700   4.074  11.496  0.00  0.00    +0.000 C 
BRANCH  13  15
ATOM     14  C   UNL     1       3.550   2.962  10.711  0.00  0.00    +0.000 C 
ATOM     15  C   UNL     1       4.787   2.833  11.599  0.00  0.00    +0.000 C 
ATOM     16  C   UNL     1       5.561   1.565  11.229  0.00  0.00    +0.000 C 
ENDBRANCH  13  15
ENDBRANCH  12  13
ENDBRANCH   7  12
ENDBRANCH   1   9
BRANCH   5  17
ATOM     17  S   UNL     1       2.430   6.700  18.621  0.00  0.00    +0.000 S 
ATOM     18  O   UNL     1       2.286   7.010  20.026  0.00  0.00    +0.000 OA
ATOM     19  O   UNL     1       2.168   7.696  17.598  0.00  0.00    +0.000 OA
BRANCH  17  20
ATOM     20  N   UNL     1       1.446   5.342  18.336  0.00  0.00    +0.000 N 
ATOM     21  H   UNL     1       0.873   5.528  17.508  0.00  0.00    +0.000 HD
BRANCH  20  22
ATOM     22  C   UNL     1       2.042   4.044  18.433  0.00  0.00    +0.000 A 
ATOM     23  C   UNL     1       2.584   3.505  17.259  0.00  0.00    +0.000 A 
ATOM     24  C   UNL     1       3.129   2.219  17.248  0.00  0.00    +0.000 A 
ATOM     25  C   UNL     1       3.155   1.467  18.419  0.00  0.00    +0.000 A 
ATOM     26  C   UNL     1       2.639   2.006  19.597  0.00  0.00    +0.000 A 
ATOM     27  C   UNL     1       2.061   3.294  19.619  0.00  0.00    +0.000 A 
BRANCH  27  28
ATOM     28  C   UNL     1       1.487   3.768  20.928  0.00  0.00    +0.000 C 
ATOM     29  F   UNL     1       1.054   2.775  21.753  0.00  0.00    +0.000 F 
ATOM     30  F   UNL     1       2.375   4.507  21.650  0.00  0.00    +0.000 F 
ATOM     31  F   UNL     1       0.403   4.578  20.746  0.00  0.00    +0.000 F 
ENDBRANCH  27  28
ENDBRANCH  20  22
ENDBRANCH  17  20
ENDBRANCH   5  17
TORSDOF 8
ENDMDL
MODEL 2
REMARK VINA RESULT:      -8.3      4.000      6.147
REMARK  Name = 
REMARK  10 active torsions:
REMARK  status: ('A' for Active; 'I' for Inactive)
REMARK    1  A    between atoms: C_1  and  C_2
REMARK    2  A    between atoms: C_2  and  C_3
REMARK    3  A    between atoms: C_2  and  C_4
REMARK    4  A    between atoms: C_4  and  C_5
REMARK    5  A    between atoms: C_5  and  C_6
REMARK    6  A    between atoms: N_8  and  C_9
REMARK    7  A    between atoms: C_13  and  S_14
REMARK    8  A    between atoms: S_14  and  N_17
REMARK    9  A    between atoms: N_17  and  C_18
REMARK   10  A    between atoms: C_23  and  C_24
REMARK                            x       y       z     vdW  Elec       q    Type
REMARK                         _______ _______ _______ _____ _____    ______ ____
ROOT
ATOM      1  C   UNL     1       6.845   5.982  17.008  0.00  0.00    +0.000 A 
ATOM      2  C   UNL     1       7.103   5.728  15.651  0.00  0.00    +0.000 A 
ATOM      3  C   UNL     1       6.504   4.644  15.009  0.00  0.00    +0.000 A 
ATOM      4  C   UNL     1       5.614   3.829  15.705  0.00  0.00    +0.000 A 
ATOM      5  C   UNL     1       5.333   4.094  17.051  0.00  0.00    +0.000 A 
ATOM      6  C   UNL     1       5.981   5.140  17.724  0.00  0.00    +0.000 A 
ENDROOT
BRANCH   1   9
ATOM      7  C   UNL     1       8.227   9.102  18.052  0.00  0.00    +0.000 A 
ATOM      8  C   UNL     1       7.339   8.445  17.231  0.00  0.00    +0.000 A 
ATOM      9  N   UNL     1       7.420   7.127  17.614  0.00  0.00    +0.000 N 
ATOM     10  N   UNL     1       8.249   7.021  18.682  0.00  0.00    +0.000 NA
ATOM     11  N   UNL     1       8.766   8.213  18.935  0.00  0.00    +0.000 NA
BRANCH   7  12
ATOM     12  C   UNL     1       8.655  10.524  18.046  0.00  0.00    +0.000 C 
BRANCH  12  13
ATOM     13  C   UNL     1       9.791  10.803  19.041  0.00  0.00    +0.000 C 
BRANCH  13  15
ATOM     14  C   UNL     1      10.760  12.585  17.505  0.00  0.00    +0.000 C 
ATOM     15  C   UNL     1      11.069  11.389  18.403  0.00  0.00    +0.000 C 
ATOM     16  C   UNL     1      12.070  11.799  19.486  0.00  0.00    +0.000 C 
ENDBRANCH  13  15
ENDBRANCH  12  13
ENDBRANCH   7  12
ENDBRANCH   1   9
BRANCH   5  17
ATOM     17  S   UNL     1       4.196   3.047  17.923  0.00  0.00    +0.000 S 
ATOM     18  O   UNL     1       4.081   1.813  17.178  0.00  0.00    +0.000 OA
ATOM     19  O   UNL     1       4.566   3.049  19.326  0.00  0.00    +0.000 OA
BRANCH  17  20
ATOM     20  N   UNL     1       2.705   3.846  17.742  0.00  0.00    +0.000 N 
ATOM     21  H   UNL     1       2.005   3.157  17.450  0.00  0.00    +0.000 HD
BRANCH  20  22
ATOM     22  C   UNL     1       2.312   4.781  18.752  0.00  0.00    +0.000 A 
ATOM     23  C   UNL     1       2.709   6.113  18.571  0.00  0.00    +0.000 A 
ATOM     24  C   UNL     1       2.424   7.080  19.537  0.00  0.00    +0.000 A 
ATOM     25  C   UNL     1       1.720   6.728  20.685  0.00  0.00    +0.000 A 
ATOM     26  C   UNL     1       1.301   5.410  20.861  0.00  0.00    +0.000 A 
ATOM     27  C   UNL     1       1.605   4.414  19.906  0.00  0.00    +0.000 A 
BRANCH  27  28
ATOM     28  C   UNL     1       1.152   3.010  20.209  0.00  0.00    +0.000 C 
ATOM     29  F   UNL     1       2.128   2.065  20.119  0.00  0.00    +0.000 F 
ATOM     30  F   UNL     1       0.618   2.892  21.457  0.00  0.00    +0.000 F 
ATOM     31  F   UNL     1       0.172   2.594  19.354  0.00  0.00    +0.000 F 
ENDBRANCH  27  28
ENDBRANCH  20  22
ENDBRANCH  17  20
ENDBRANCH   5  17
TORSDOF 8
ENDMDL
MODEL 3
REMARK VINA RESULT:      -8.3      1.661      2.340
REMARK  Name = 
REMARK  10 active torsions:
REMARK  status: ('A' for Active; 'I' for Inactive)
REMARK    1  A    between atoms: C_1  and  C_2
REMARK    2  A    between atoms: C_2  and  C_3
REMARK    3  A    between atoms: C_2  and  C_4
REMARK    4  A    between atoms: C_4  and  C_5
REMARK    5  A    between atoms: C_5  and  C_6
REMARK    6  A    between atoms: N_8  and  C_9
REMARK    7  A    between atoms: C_13  and  S_14
REMARK    8  A    between atoms: S_14  and  N_17
REMARK    9  A    between atoms: N_17  and  C_18
REMARK   10  A    between atoms: C_23  and  C_24
REMARK                            x       y       z     vdW  Elec       q    Type
REMARK                         _______ _______ _______ _____ _____    ______ ____
ROOT
ATOM      1  C   UNL     1       6.001   5.501  16.774  0.00  0.00    +0.000 A 
ATOM      2  C   UNL     1       6.734   4.977  17.851  0.00  0.00    +0.000 A 
ATOM      3  C   UNL     1       6.220   5.025  19.147  0.00  0.00    +0.000 A 
ATOM      4  C   UNL     1       4.954   5.562  19.372  0.00  0.00    +0.000 A 
ATOM      5  C   UNL     1       4.208   6.063  18.298  0.00  0.00    +0.000 A 
ATOM      6  C   UNL     1       4.743   6.080  17.002  0.00  0.00    +0.000 A 
ENDROOT
BRANCH   1   9
ATOM      7  C   UNL     1       6.938   4.821  13.399  0.00  0.00    +0.000 A 
ATOM      8  C   UNL     1       5.929   4.871  14.334  0.00  0.00    +0.000 A 
ATOM      9  N   UNL     1       6.525   5.380  15.463  0.00  0.00    +0.000 N 
ATOM     10  N   UNL     1       7.810   5.710  15.182  0.00  0.00    +0.000 NA
ATOM     11  N   UNL     1       8.077   5.345  13.938  0.00  0.00    +0.000 NA
BRANCH   7  12
ATOM     12  C   UNL     1       6.933   4.267  12.022  0.00  0.00    +0.000 C 
BRANCH  12  13
ATOM     13  C   UNL     1       7.059   2.736  12.001  0.00  0.00    +0.000 C 
BRANCH  13  15
ATOM     14  C   UNL     1       6.096   0.506  11.242  0.00  0.00    +0.000 C 
ATOM     15  C   UNL     1       6.044   2.025  11.080  0.00  0.00    +0.000 C 
ATOM     16  C   UNL     1       4.624   2.527  11.356  0.00  0.00    +0.000 C 
ENDBRANCH  13  15
ENDBRANCH  12  13
ENDBRANCH   7  12
ENDBRANCH   1   9
BRANCH   5  17
ATOM     17  S   UNL     1       2.596   6.741  18.601  0.00  0.00    +0.000 S 
ATOM     18  O   UNL     1       2.523   7.078  20.006  0.00  0.00    +0.000 OA
ATOM     19  O   UNL     1       2.323   7.729  17.574  0.00  0.00    +0.000 OA
BRANCH  17  20
ATOM     20  N   UNL     1       1.558   5.412  18.382  0.00  0.00    +0.000 N 
ATOM     21  H   UNL     1       1.506   5.207  17.380  0.00  0.00    +0.000 HD
BRANCH  20  22
ATOM     22  C   UNL     1       1.696   4.294  19.266  0.00  0.00    +0.000 A 
ATOM     23  C   UNL     1       1.211   4.454  20.571  0.00  0.00    +0.000 A 
ATOM     24  C   UNL     1       1.359   3.439  21.518  0.00  0.00    +0.000 A 
ATOM     25  C   UNL     1       1.976   2.243  21.161  0.00  0.00    +0.000 A 
ATOM     26  C   UNL     1       2.440   2.067  19.858  0.00  0.00    +0.000 A 
ATOM     27  C   UNL     1       2.322   3.095  18.896  0.00  0.00    +0.000 A 
BRANCH  27  28
ATOM     28  C   UNL     1       2.897   2.827  17.530  0.00  0.00    +0.000 C 
ATOM     29  F   UNL     1       2.558   3.743  16.581  0.00  0.00    +0.000 F 
ATOM     30  F   UNL     1       4.258   2.771  17.540  0.00  0.00    +0.000 F 
ATOM     31  F   UNL     1       2.486   1.625  17.030  0.00  0.00    +0.000 F 
ENDBRANCH  27  28
ENDBRANCH  20  22
ENDBRANCH  17  20
ENDBRANCH   5  17
TORSDOF 8
ENDMDL
MODEL 4
REMARK VINA RESULT:      -8.0      4.353      5.413
REMARK  Name = 
REMARK  10 active torsions:
REMARK  status: ('A' for Active; 'I' for Inactive)
REMARK    1  A    between atoms: C_1  and  C_2
REMARK    2  A    between atoms: C_2  and  C_3
REMARK    3  A    between atoms: C_2  and  C_4
REMARK    4  A    between atoms: C_4  and  C_5
REMARK    5  A    between atoms: C_5  and  C_6
REMARK    6  A    between atoms: N_8  and  C_9
REMARK    7  A    between atoms: C_13  and  S_14
REMARK    8  A    between atoms: S_14  and  N_17
REMARK    9  A    between atoms: N_17  and  C_18
REMARK   10  A    between atoms: C_23  and  C_24
REMARK                            x       y       z     vdW  Elec       q    Type
REMARK                         _______ _______ _______ _____ _____    ______ ____
ROOT
ATOM      1  C   UNL     1       4.335   6.504  17.531  0.00  0.00    +0.000 A 
ATOM      2  C   UNL     1       4.090   5.600  18.577  0.00  0.00    +0.000 A 
ATOM      3  C   UNL     1       3.105   5.869  19.528  0.00  0.00    +0.000 A 
ATOM      4  C   UNL     1       2.332   7.023  19.420  0.00  0.00    +0.000 A 
ATOM      5  C   UNL     1       2.556   7.915  18.364  0.00  0.00    +0.000 A 
ATOM      6  C   UNL     1       3.588   7.688  17.442  0.00  0.00    +0.000 A 
ENDROOT
BRANCH   1   9
ATOM      7  C   UNL     1       6.419   5.273  14.909  0.00  0.00    +0.000 A 
ATOM      8  C   UNL     1       5.140   5.459  15.382  0.00  0.00    +0.000 A 
ATOM      9  N   UNL     1       5.300   6.170  16.547  0.00  0.00    +0.000 N 
ATOM     10  N   UNL     1       6.610   6.478  16.709  0.00  0.00    +0.000 NA
ATOM     11  N   UNL     1       7.301   5.909  15.733  0.00  0.00    +0.000 NA
BRANCH   7  12
ATOM     12  C   UNL     1       6.897   4.488  13.743  0.00  0.00    +0.000 C 
BRANCH  12  13
ATOM     13  C   UNL     1       5.958   3.326  13.387  0.00  0.00    +0.000 C 
BRANCH  13  15
ATOM     14  C   UNL     1       6.132   1.720  11.421  0.00  0.00    +0.000 C 
ATOM     15  C   UNL     1       5.736   3.125  11.873  0.00  0.00    +0.000 C 
ATOM     16  C   UNL     1       4.275   3.396  11.504  0.00  0.00    +0.000 C 
ENDBRANCH  13  15
ENDBRANCH  12  13
ENDBRANCH   7  12
ENDBRANCH   1   9
BRANCH   5  17
ATOM     17  S   UNL     1       1.562   9.380  18.239  0.00  0.00    +0.000 S 
ATOM     18  O   UNL     1       2.396  10.427  17.692  0.00  0.00    +0.000 OA
ATOM     19  O   UNL     1       0.301   9.018  17.617  0.00  0.00    +0.000 OA
BRANCH  17  20
ATOM     20  N   UNL     1       1.277   9.806  19.861  0.00  0.00    +0.000 N 
ATOM     21  H   UNL     1       2.182   9.947  20.319  0.00  0.00    +0.000 HD
BRANCH  20  22
ATOM     22  C   UNL     1       0.253  10.766  20.139  0.00  0.00    +0.000 A 
ATOM     23  C   UNL     1       0.062  11.782  19.192  0.00  0.00    +0.000 A 
ATOM     24  C   UNL     1      -0.872  12.796  19.411  0.00  0.00    +0.000 A 
ATOM     25  C   UNL     1      -1.642  12.791  20.571  0.00  0.00    +0.000 A 
ATOM     26  C   UNL     1      -1.475  11.770  21.506  0.00  0.00    +0.000 A 
ATOM     27  C   UNL     1      -0.516  10.752  21.312  0.00  0.00    +0.000 A 
BRANCH  27  28
ATOM     28  C   UNL     1      -0.377   9.722  22.402  0.00  0.00    +0.000 C 
ATOM     29  F   UNL     1       0.878   9.606  22.919  0.00  0.00    +0.000 F 
ATOM     30  F   UNL     1      -1.205   9.963  23.456  0.00  0.00    +0.000 F 
ATOM     31  F   UNL     1      -0.699   8.470  21.964  0.00  0.00    +0.000 F 
ENDBRANCH  27  28
ENDBRANCH  20  22
ENDBRANCH  17  20
ENDBRANCH   5  17
TORSDOF 8
ENDMDL
MODEL 5
REMARK VINA RESULT:      -8.0      5.912      9.603
REMARK  Name = 
REMARK  10 active torsions:
REMARK  status: ('A' for Active; 'I' for Inactive)
REMARK    1  A    between atoms: C_1  and  C_2
REMARK    2  A    between atoms: C_2  and  C_3
REMARK    3  A    between atoms: C_2  and  C_4
REMARK    4  A    between atoms: C_4  and  C_5
REMARK    5  A    between atoms: C_5  and  C_6
REMARK    6  A    between atoms: N_8  and  C_9
REMARK    7  A    between atoms: C_13  and  S_14
REMARK    8  A    between atoms: S_14  and  N_17
REMARK    9  A    between atoms: N_17  and  C_18
REMARK   10  A    between atoms: C_23  and  C_24
REMARK                            x       y       z     vdW  Elec       q    Type
REMARK                         _______ _______ _______ _____ _____    ______ ____
ROOT
ATOM      1  C   UNL     1       0.967   9.538  20.261  0.00  0.00    +0.000 A 
ATOM      2  C   UNL     1       1.197  10.236  19.064  0.00  0.00    +0.000 A 
ATOM      3  C   UNL     1       1.890   9.630  18.015  0.00  0.00    +0.000 A 
ATOM      4  C   UNL     1       2.325   8.313  18.139  0.00  0.00    +0.000 A 
ATOM      5  C   UNL     1       2.076   7.605  19.321  0.00  0.00    +0.000 A 
ATOM      6  C   UNL     1       1.440   8.225  20.406  0.00  0.00    +0.000 A 
ENDROOT
BRANCH   1   9
ATOM      7  C   UNL     1      -0.969  11.530  22.500  0.00  0.00    +0.000 A 
ATOM      8  C   UNL     1      -0.652  11.230  21.195  0.00  0.00    +0.000 A 
ATOM      9  N   UNL     1       0.206  10.160  21.282  0.00  0.00    +0.000 N 
ATOM     10  N   UNL     1       0.318   9.779  22.579  0.00  0.00    +0.000 NA
ATOM     11  N   UNL     1      -0.369  10.626  23.328  0.00  0.00    +0.000 NA
BRANCH   7  12
ATOM     12  C   UNL     1      -1.771  12.652  23.051  0.00  0.00    +0.000 C 
BRANCH  12  13
ATOM     13  C   UNL     1      -3.084  12.179  23.694  0.00  0.00    +0.000 C 
BRANCH  13  15
ATOM     14  C   UNL     1      -5.534  12.654  24.191  0.00  0.00    +0.000 C 
ATOM     15  C   UNL     1      -4.304  13.073  23.386  0.00  0.00    +0.000 C 
ATOM     16  C   UNL     1      -3.977  14.542  23.665  0.00  0.00    +0.000 C 
ENDBRANCH  13  15
ENDBRANCH  12  13
ENDBRANCH   7  12
ENDBRANCH   1   9
BRANCH   5  17
ATOM     17  S   UNL     1       2.635   5.926  19.462  0.00  0.00    +0.000 S 
ATOM     18  O   UNL     1       4.040   5.962  19.801  0.00  0.00    +0.000 OA
ATOM     19  O   UNL     1       1.680   5.200  20.280  0.00  0.00    +0.000 OA
BRANCH  17  20
ATOM     20  N   UNL     1       2.551   5.345  17.865  0.00  0.00    +0.000 N 
ATOM     21  H   UNL     1       1.954   5.976  17.325  0.00  0.00    +0.000 HD
BRANCH  20  22
ATOM     22  C   UNL     1       3.763   4.905  17.242  0.00  0.00    +0.000 A 
ATOM     23  C   UNL     1       4.529   5.879  16.587  0.00  0.00    +0.000 A 
ATOM     24  C   UNL     1       5.692   5.529  15.900  0.00  0.00    +0.000 A 
ATOM     25  C   UNL     1       6.113   4.202  15.878  0.00  0.00    +0.000 A 
ATOM     26  C   UNL     1       5.369   3.231  16.548  0.00  0.00    +0.000 A 
ATOM     27  C   UNL     1       4.176   3.565  17.225  0.00  0.00    +0.000 A 
BRANCH  27  28
ATOM     28  C   UNL     1       3.417   2.438  17.876  0.00  0.00    +0.000 C 
ATOM     29  F   UNL     1       3.247   2.570  19.221  0.00  0.00    +0.000 F 
ATOM     30  F   UNL     1       2.173   2.273  17.347  0.00  0.00    +0.000 F 
ATOM     31  F   UNL     1       4.046   1.238  17.712  0.00  0.00    +0.000 F 
ENDBRANCH  27  28
ENDBRANCH  20  22
ENDBRANCH  17  20
ENDBRANCH   5  17
TORSDOF 8
ENDMDL
MODEL 6
REMARK VINA RESULT:      -7.9      2.650      3.785
REMARK  Name = 
REMARK  10 active torsions:
REMARK  status: ('A' for Active; 'I' for Inactive)
REMARK    1  A    between atoms: C_1  and  C_2
REMARK    2  A    between atoms: C_2  and  C_3
REMARK    3  A    between atoms: C_2  and  C_4
REMARK    4  A    between atoms: C_4  and  C_5
REMARK    5  A    between atoms: C_5  and  C_6
REMARK    6  A    between atoms: N_8  and  C_9
REMARK    7  A    between atoms: C_13  and  S_14
REMARK    8  A    between atoms: S_14  and  N_17
REMARK    9  A    between atoms: N_17  and  C_18
REMARK   10  A    between atoms: C_23  and  C_24
REMARK                            x       y       z     vdW  Elec       q    Type
REMARK                         _______ _______ _______ _____ _____    ______ ____
ROOT
ATOM      1  C   UNL     1       5.952   5.148  16.905  0.00  0.00    +0.000 A 
ATOM      2  C   UNL     1       6.954   5.125  17.889  0.00  0.00    +0.000 A 
ATOM      3  C   UNL     1       6.616   5.160  19.243  0.00  0.00    +0.000 A 
ATOM      4  C   UNL     1       5.276   5.180  19.624  0.00  0.00    +0.000 A 
ATOM      5  C   UNL     1       4.274   5.177  18.646  0.00  0.00    +0.000 A 
ATOM      6  C   UNL     1       4.603   5.210  17.284  0.00  0.00    +0.000 A 
ENDROOT
BRANCH   1   9
ATOM      7  C   UNL     1       6.557   4.477  13.453  0.00  0.00    +0.000 A 
ATOM      8  C   UNL     1       5.669   4.435  14.504  0.00  0.00    +0.000 A 
ATOM      9  N   UNL     1       6.327   5.049  15.542  0.00  0.00    +0.000 N 
ATOM     10  N   UNL     1       7.518   5.522  15.100  0.00  0.00    +0.000 NA
ATOM     11  N   UNL     1       7.678   5.152  13.839  0.00  0.00    +0.000 NA
BRANCH   7  12
ATOM     12  C   UNL     1       6.456   3.881  12.097  0.00  0.00    +0.000 C 
BRANCH  12  13
ATOM     13  C   UNL     1       5.820   2.483  12.111  0.00  0.00    +0.000 C 
BRANCH  13  15
ATOM     14  C   UNL     1       7.817   1.749  10.716  0.00  0.00    +0.000 C 
ATOM     15  C   UNL     1       6.332   1.538  11.003  0.00  0.00    +0.000 C 
ATOM     16  C   UNL     1       6.080   0.076  11.385  0.00  0.00    +0.000 C 
ENDBRANCH  13  15
ENDBRANCH  12  13
ENDBRANCH   7  12
ENDBRANCH   1   9
BRANCH   5  17
ATOM     17  S   UNL     1       2.571   5.201  19.148  0.00  0.00    +0.000 S 
ATOM     18  O   UNL     1       1.772   5.439  17.967  0.00  0.00    +0.000 OA
ATOM     19  O   UNL     1       2.336   4.047  19.997  0.00  0.00    +0.000 OA
BRANCH  17  20
ATOM     20  N   UNL     1       2.455   6.614  20.088  0.00  0.00    +0.000 N 
ATOM     21  H   UNL     1       3.288   6.675  20.681  0.00  0.00    +0.000 HD
BRANCH  20  22
ATOM     22  C   UNL     1       2.025   7.819  19.446  0.00  0.00    +0.000 A 
ATOM     23  C   UNL     1       2.561   8.088  18.180  0.00  0.00    +0.000 A 
ATOM     24  C   UNL     1       2.245   9.271  17.508  0.00  0.00    +0.000 A 
ATOM     25  C   UNL     1       1.373  10.187  18.089  0.00  0.00    +0.000 A 
ATOM     26  C   UNL     1       0.817   9.915  19.338  0.00  0.00    +0.000 A 
ATOM     27  C   UNL     1       1.147   8.736  20.042  0.00  0.00    +0.000 A 
BRANCH  27  28
ATOM     28  C   UNL     1       0.534   8.555  21.406  0.00  0.00    +0.000 C 
ATOM     29  F   UNL     1       1.432   8.429  22.422  0.00  0.00    +0.000 F 
ATOM     30  F   UNL     1      -0.290   9.585  21.748  0.00  0.00    +0.000 F 
ATOM     31  F   UNL     1      -0.240   7.432  21.473  0.00  0.00    +0.000 F 
ENDBRANCH  27  28
ENDBRANCH  20  22
ENDBRANCH  17  20
ENDBRANCH   5  17
TORSDOF 8
ENDMDL
MODEL 7
REMARK VINA RESULT:      -7.8      5.989      9.617
REMARK  Name = 
REMARK  10 active torsions:
REMARK  status: ('A' for Active; 'I' for Inactive)
REMARK    1  A    between atoms: C_1  and  C_2
REMARK    2  A    between atoms: C_2  and  C_3
REMARK    3  A    between atoms: C_2  and  C_4
REMARK    4  A    between atoms: C_4  and  C_5
REMARK    5  A    between atoms: C_5  and  C_6
REMARK    6  A    between atoms: N_8  and  C_9
REMARK    7  A    between atoms: C_13  and  S_14
REMARK    8  A    between atoms: S_14  and  N_17
REMARK    9  A    between atoms: N_17  and  C_18
REMARK   10  A    between atoms: C_23  and  C_24
REMARK                            x       y       z     vdW  Elec       q    Type
REMARK                         _______ _______ _______ _____ _____    ______ ____
ROOT
ATOM      1  C   UNL     1       0.993   9.404  20.332  0.00  0.00    +0.000 A 
ATOM      2  C   UNL     1       1.192  10.123  19.142  0.00  0.00    +0.000 A 
ATOM      3  C   UNL     1       1.864   9.540  18.067  0.00  0.00    +0.000 A 
ATOM      4  C   UNL     1       2.310   8.223  18.159  0.00  0.00    +0.000 A 
ATOM      5  C   UNL     1       2.092   7.493  19.334  0.00  0.00    +0.000 A 
ATOM      6  C   UNL     1       1.477   8.091  20.444  0.00  0.00    +0.000 A 
ENDROOT
BRANCH   1   9
ATOM      7  C   UNL     1      -0.911  11.342  22.645  0.00  0.00    +0.000 A 
ATOM      8  C   UNL     1      -0.629  11.056  21.328  0.00  0.00    +0.000 A 
ATOM      9  N   UNL     1       0.252  10.003  21.381  0.00  0.00    +0.000 N 
ATOM     10  N   UNL     1       0.411   9.615  22.670  0.00  0.00    +0.000 NA
ATOM     11  N   UNL     1      -0.269  10.444  23.447  0.00  0.00    +0.000 NA
BRANCH   7  12
ATOM     12  C   UNL     1      -1.718  12.443  23.229  0.00  0.00    +0.000 C 
BRANCH  12  13
ATOM     13  C   UNL     1      -1.102  13.826  22.973  0.00  0.00    +0.000 C 
BRANCH  13  15
ATOM     14  C   UNL     1      -0.982  16.255  23.724  0.00  0.00    +0.000 C 
ATOM     15  C   UNL     1      -1.228  14.810  24.156  0.00  0.00    +0.000 C 
ATOM     16  C   UNL     1      -2.608  14.691  24.808  0.00  0.00    +0.000 C 
ENDBRANCH  13  15
ENDBRANCH  12  13
ENDBRANCH   7  12
ENDBRANCH   1   9
BRANCH   5  17
ATOM     17  S   UNL     1       2.664   5.816  19.434  0.00  0.00    +0.000 S 
ATOM     18  O   UNL     1       4.066   5.855  19.788  0.00  0.00    +0.000 OA
ATOM     19  O   UNL     1       1.708   5.060  20.221  0.00  0.00    +0.000 OA
BRANCH  17  20
ATOM     20  N   UNL     1       2.602   5.279  17.821  0.00  0.00    +0.000 N 
ATOM     21  H   UNL     1       2.005   5.922  17.292  0.00  0.00    +0.000 HD
BRANCH  20  22
ATOM     22  C   UNL     1       3.823   4.866  17.199  0.00  0.00    +0.000 A 
ATOM     23  C   UNL     1       4.567   5.856  16.543  0.00  0.00    +0.000 A 
ATOM     24  C   UNL     1       5.739   5.530  15.856  0.00  0.00    +0.000 A 
ATOM     25  C   UNL     1       6.188   4.213  15.836  0.00  0.00    +0.000 A 
ATOM     26  C   UNL     1       5.466   3.227  16.506  0.00  0.00    +0.000 A 
ATOM     27  C   UNL     1       4.265   3.535  17.183  0.00  0.00    +0.000 A 
BRANCH  27  28
ATOM     28  C   UNL     1       3.531   2.393  17.836  0.00  0.00    +0.000 C 
ATOM     29  F   UNL     1       3.384   2.507  19.185  0.00  0.00    +0.000 F 
ATOM     30  F   UNL     1       2.279   2.219  17.327  0.00  0.00    +0.000 F 
ATOM     31  F   UNL     1       4.170   1.201  17.646  0.00  0.00    +0.000 F 
ENDBRANCH  27  28
ENDBRANCH  20  22
ENDBRANCH  17  20
ENDBRANCH   5  17
TORSDOF 8
ENDMDL
MODEL 8
REMARK VINA RESULT:      -7.8      5.716      9.208
REMARK  Name = 
REMARK  10 active torsions:
REMARK  status: ('A' for Active; 'I' for Inactive)
REMARK    1  A    between atoms: C_1  and  C_2
REMARK    2  A    between atoms: C_2  and  C_3
REMARK    3  A    between atoms: C_2  and  C_4
REMARK    4  A    between atoms: C_4  and  C_5
REMARK    5  A    between atoms: C_5  and  C_6
REMARK    6  A    between atoms: N_8  and  C_9
REMARK    7  A    between atoms: C_13  and  S_14
REMARK    8  A    between atoms: S_14  and  N_17
REMARK    9  A    between atoms: N_17  and  C_18
REMARK   10  A    between atoms: C_23  and  C_24
REMARK                            x       y       z     vdW  Elec       q    Type
REMARK                         _______ _______ _______ _____ _____    ______ ____
ROOT
ATOM      1  C   UNL     1       0.980   9.367  20.333  0.00  0.00    +0.000 A 
ATOM      2  C   UNL     1       1.149  10.089  19.140  0.00  0.00    +0.000 A 
ATOM      3  C   UNL     1       1.825   9.521  18.060  0.00  0.00    +0.000 A 
ATOM      4  C   UNL     1       2.304   8.215  18.149  0.00  0.00    +0.000 A 
ATOM      5  C   UNL     1       2.115   7.482  19.327  0.00  0.00    +0.000 A 
ATOM      6  C   UNL     1       1.497   8.067  20.441  0.00  0.00    +0.000 A 
ENDROOT
BRANCH   1   9
ATOM      7  C   UNL     1      -0.987  11.242  22.646  0.00  0.00    +0.000 A 
ATOM      8  C   UNL     1      -0.737  10.920  21.331  0.00  0.00    +0.000 A 
ATOM      9  N   UNL     1       0.235   9.950  21.388  0.00  0.00    +0.000 N 
ATOM     10  N   UNL     1       0.482   9.638  22.684  0.00  0.00    +0.000 NA
ATOM     11  N   UNL     1      -0.234  10.441  23.456  0.00  0.00    +0.000 NA
BRANCH   7  12
ATOM     12  C   UNL     1      -1.861  12.296  23.218  0.00  0.00    +0.000 C 
BRANCH  12  13
ATOM     13  C   UNL     1      -1.203  13.683  23.201  0.00  0.00    +0.000 C 
BRANCH  13  15
ATOM     14  C   UNL     1      -0.762  14.728  20.923  0.00  0.00    +0.000 C 
ATOM     15  C   UNL     1      -1.731  14.628  22.101  0.00  0.00    +0.000 C 
ATOM     16  C   UNL     1      -3.103  14.161  21.605  0.00  0.00    +0.000 C 
ENDBRANCH  13  15
ENDBRANCH  12  13
ENDBRANCH   7  12
ENDBRANCH   1   9
BRANCH   5  17
ATOM     17  S   UNL     1       2.729   5.820  19.423  0.00  0.00    +0.000 S 
ATOM     18  O   UNL     1       4.135   5.893  19.751  0.00  0.00    +0.000 OA
ATOM     19  O   UNL     1       1.806   5.044  20.231  0.00  0.00    +0.000 OA
BRANCH  17  20
ATOM     20  N   UNL     1       2.650   5.274  17.814  0.00  0.00    +0.000 N 
ATOM     21  H   UNL     1       2.045   5.911  17.288  0.00  0.00    +0.000 HD
BRANCH  20  22
ATOM     22  C   UNL     1       3.865   4.862  17.180  0.00  0.00    +0.000 A 
ATOM     23  C   UNL     1       4.611   5.856  16.531  0.00  0.00    +0.000 A 
ATOM     24  C   UNL     1       5.777   5.533  15.833  0.00  0.00    +0.000 A 
ATOM     25  C   UNL     1       6.219   4.214  15.795  0.00  0.00    +0.000 A 
ATOM     26  C   UNL     1       5.496   3.223  16.458  0.00  0.00    +0.000 A 
ATOM     27  C   UNL     1       4.301   3.529  17.146  0.00  0.00    +0.000 A 
BRANCH  27  28
ATOM     28  C   UNL     1       3.565   2.383  17.789  0.00  0.00    +0.000 C 
ATOM     29  F   UNL     1       2.274   2.235  17.381  0.00  0.00    +0.000 F 
ATOM     30  F   UNL     1       4.175   1.184  17.572  0.00  0.00    +0.000 F 
ATOM     31  F   UNL     1       3.497   2.517  19.146  0.00  0.00    +0.000 F 
ENDBRANCH  27  28
ENDBRANCH  20  22
ENDBRANCH  17  20
ENDBRANCH   5  17
TORSDOF 8
ENDMDL
MODEL 9
REMARK VINA RESULT:      -7.7      4.691      5.872
REMARK  Name = 
REMARK  10 active torsions:
REMARK  status: ('A' for Active; 'I' for Inactive)
REMARK    1  A    between atoms: C_1  and  C_2
REMARK    2  A    between atoms: C_2  and  C_3
REMARK    3  A    between atoms: C_2  and  C_4
REMARK    4  A    between atoms: C_4  and  C_5
REMARK    5  A    between atoms: C_5  and  C_6
REMARK    6  A    between atoms: N_8  and  C_9
REMARK    7  A    between atoms: C_13  and  S_14
REMARK    8  A    between atoms: S_14  and  N_17
REMARK    9  A    between atoms: N_17  and  C_18
REMARK   10  A    between atoms: C_23  and  C_24
REMARK                            x       y       z     vdW  Elec       q    Type
REMARK                         _______ _______ _______ _____ _____    ______ ____
ROOT
ATOM      1  C   UNL     1       3.189   5.965  18.605  0.00  0.00    +0.000 A 
ATOM      2  C   UNL     1       2.900   4.718  19.183  0.00  0.00    +0.000 A 
ATOM      3  C   UNL     1       2.081   4.632  20.310  0.00  0.00    +0.000 A 
ATOM      4  C   UNL     1       1.515   5.787  20.846  0.00  0.00    +0.000 A 
ATOM      5  C   UNL     1       1.779   7.030  20.258  0.00  0.00    +0.000 A 
ATOM      6  C   UNL     1       2.653   7.135  19.167  0.00  0.00    +0.000 A 
ENDROOT
BRANCH   1   9
ATOM      7  C   UNL     1       5.355   5.602  15.794  0.00  0.00    +0.000 A 
ATOM      8  C   UNL     1       4.580   4.982  16.748  0.00  0.00    +0.000 A 
ATOM      9  N   UNL     1       3.972   6.011  17.425  0.00  0.00    +0.000 N 
ATOM     10  N   UNL     1       4.295   7.189  16.837  0.00  0.00    +0.000 NA
ATOM     11  N   UNL     1       5.160   6.951  15.863  0.00  0.00    +0.000 NA
BRANCH   7  12
ATOM     12  C   UNL     1       6.322   5.021  14.829  0.00  0.00    +0.000 C 
BRANCH  12  13
ATOM     13  C   UNL     1       5.866   3.660  14.281  0.00  0.00    +0.000 C 
BRANCH  13  15
ATOM     14  C   UNL     1       4.905   3.470  11.933  0.00  0.00    +0.000 C 
ATOM     15  C   UNL     1       6.173   3.439  12.785  0.00  0.00    +0.000 C 
ATOM     16  C   UNL     1       7.163   4.491  12.278  0.00  0.00    +0.000 C 
ENDBRANCH  13  15
ENDBRANCH  12  13
ENDBRANCH   7  12
ENDBRANCH   1   9
BRANCH   5  17
ATOM     17  S   UNL     1       1.048   8.491  20.952  0.00  0.00    +0.000 S 
ATOM     18  O   UNL     1      -0.364   8.232  21.123  0.00  0.00    +0.000 OA
ATOM     19  O   UNL     1       1.875   8.925  22.064  0.00  0.00    +0.000 OA
BRANCH  17  20
ATOM     20  N   UNL     1       1.168   9.630  19.695  0.00  0.00    +0.000 N 
ATOM     21  H   UNL     1       1.767   9.238  18.963  0.00  0.00    +0.000 HD
BRANCH  20  22
ATOM     22  C   UNL     1      -0.026  10.296  19.269  0.00  0.00    +0.000 A 
ATOM     23  C   UNL     1      -0.654   9.798  18.120  0.00  0.00    +0.000 A 
ATOM     24  C   UNL     1      -1.788  10.424  17.598  0.00  0.00    +0.000 A 
ATOM     25  C   UNL     1      -2.317  11.543  18.235  0.00  0.00    +0.000 A 
ATOM     26  C   UNL     1      -1.711  12.030  19.392  0.00  0.00    +0.000 A 
ATOM     27  C   UNL     1      -0.548  11.424  19.917  0.00  0.00    +0.000 A 
BRANCH  27  28
ATOM     28  C   UNL     1       0.060  12.053  21.143  0.00  0.00    +0.000 C 
ATOM     29  F   UNL     1      -0.386  13.310  21.420  0.00  0.00    +0.000 F 
ATOM     30  F   UNL     1      -0.153  11.315  22.268  0.00  0.00    +0.000 F 
ATOM     31  F   UNL     1       1.416  12.171  21.036  0.00  0.00    +0.000 F 
ENDBRANCH  27  28
ENDBRANCH  20  22
ENDBRANCH  17  20
ENDBRANCH   5  17
TORSDOF 8
ENDMDL
