MODEL 1
REMARK VINA RESULT:      -8.1      0.000      0.000
REMARK  Name = 
REMARK  8 active torsions:
REMARK  status: ('A' for Active; 'I' for Inactive)
REMARK    1  A    between atoms: C_1  and  C_2
REMARK    2  A    between atoms: C_2  and  C_3
REMARK    3  A    between atoms: C_2  and  C_4
REMARK    4  A    between atoms: C_4  and  C_5
REMARK    5  A    between atoms: C_5  and  C_6
REMARK    6  A    between atoms: C_6  and  C_7
REMARK    7  A    between atoms: N_16  and  C_17
REMARK    8  A    between atoms: C_17  and  C_18
REMARK                            x       y       z     vdW  Elec       q    Type
REMARK                         _______ _______ _______ _____ _____    ______ ____
ROOT
ATOM      1  C   UNL     1       3.666   4.120  18.470  0.00  0.00    +0.000 C 
ATOM      2  N   UNL     1       3.959   3.713  17.099  0.00  0.00    +0.000 N 
ATOM      3  C   UNL     1       5.283   3.852  16.765  0.00  0.00    +0.000 C 
ATOM      4  O   UNL     1       5.748   3.557  15.675  0.00  0.00    +0.000 OA
ATOM      5  N   UNL     1       5.942   4.364  17.836  0.00  0.00    +0.000 N 
ATOM      6  C   UNL     1       5.060   4.683  18.825  0.00  0.00    +0.000 C 
ATOM      7  O   UNL     1       5.329   5.336  19.824  0.00  0.00    +0.000 OA
ATOM      8  H   UNL     1       3.281   3.373  16.424  0.00  0.00    +0.000 HD
ENDROOT
BRANCH   1   9
ATOM      9  C   UNL     1       3.208   2.869  19.292  0.00  0.00    +0.000 C 
ATOM     10  C   UNL     1       2.121   1.985  18.648  0.00  0.00    +0.000 C 
ATOM     11  C   UNL     1       0.717   2.570  18.769  0.00  0.00    +0.000 C 
ATOM     12  N   UNL     1       0.359   2.899  20.147  0.00  0.00    +0.000 NA
ATOM     13  C   UNL     1       1.351   3.726  20.836  0.00  0.00    +0.000 C 
ATOM     14  C   UNL     1       2.764   3.158  20.742  0.00  0.00    +0.000 C 
ATOM     15  H   UNL     1       0.235   2.031  20.670  0.00  0.00    +0.000 HD
ENDBRANCH   1   9
BRANCH   1  16
ATOM     16  C   UNL     1       2.613   5.249  18.482  0.00  0.00    +0.000 C 
BRANCH  16  17
ATOM     17  C   UNL     1       3.119   6.557  17.861  0.00  0.00    +0.000 C 
BRANCH  17  19
ATOM     18  C   UNL     1       1.738   8.611  17.721  0.00  0.00    +0.000 C 
ATOM     19  C   UNL     1       2.689   7.818  18.619  0.00  0.00    +0.000 C 
ATOM     20  C   UNL     1       2.016   7.491  19.949  0.00  0.00    +0.000 C 
ENDBRANCH  17  19
ENDBRANCH  16  17
ENDBRANCH   1  16
BRANCH   5  21
ATOM     21  C   UNL     1       7.348   4.683  17.885  0.00  0.00    +0.000 C 
BRANCH  21  22
ATOM     22  C   UNL     1       7.539   6.153  17.758  0.00  0.00    +0.000 A 
ATOM     23  C   UNL     1       8.250   7.016  18.644  0.00  0.00    +0.000 A 
ATOM     24  C   UNL     1       8.109   8.288  18.144  0.00  0.00    +0.000 A 
ATOM     25  O   UNL     1       7.396   8.267  16.991  0.00  0.00    +0.000 OA
ATOM     26  C   UNL     1       7.059   6.973  16.758  0.00  0.00    +0.000 A 
ENDBRANCH  21  22
ENDBRANCH   5  21
TORSDOF 6
ENDMDL
MODEL 2
REMARK VINA RESULT:      -8.0      0.874      1.220
REMARK  Name = 
REMARK  8 active torsions:
REMARK  status: ('A' for Active; 'I' for Inactive)
REMARK    1  A    between atoms: C_1  and  C_2
REMARK    2  A    between atoms: C_2  and  C_3
REMARK    3  A    between atoms: C_2  and  C_4
REMARK    4  A    between atoms: C_4  and  C_5
REMARK    5  A    between atoms: C_5  and  C_6
REMARK    6  A    between atoms: C_6  and  C_7
REMARK    7  A    between atoms: N_16  and  C_17
REMARK    8  A    between atoms: C_17  and  C_18
REMARK                            x       y       z     vdW  Elec       q    Type
REMARK                         _______ _______ _______ _____ _____    ______ ____
ROOT
ATOM      1  C   UNL     1       3.622   4.117  18.693  0.00  0.00    +0.000 C 
ATOM      2  N   UNL     1       3.610   4.129  17.233  0.00  0.00    +0.000 N 
ATOM      3  C   UNL     1       4.861   4.258  16.683  0.00  0.00    +0.000 C 
ATOM      4  O   UNL     1       5.081   4.276  15.482  0.00  0.00    +0.000 OA
ATOM      5  N   UNL     1       5.762   4.364  17.693  0.00  0.00    +0.000 N 
ATOM      6  C   UNL     1       5.122   4.432  18.893  0.00  0.00    +0.000 C 
ATOM      7  O   UNL     1       5.650   4.724  19.957  0.00  0.00    +0.000 OA
ATOM      8  H   UNL     1       2.783   4.066  16.648  0.00  0.00    +0.000 HD
ENDROOT
BRANCH   1   9
ATOM      9  C   UNL     1       3.148   2.715  19.202  0.00  0.00    +0.000 C 
ATOM     10  C   UNL     1       1.709   2.302  18.832  0.00  0.00    +0.000 C 
ATOM     11  C   UNL     1       0.647   2.968  19.702  0.00  0.00    +0.000 C 
ATOM     12  N   UNL     1       0.884   2.775  21.130  0.00  0.00    +0.000 NA
ATOM     13  C   UNL     1       2.237   3.132  21.560  0.00  0.00    +0.000 C 
ATOM     14  C   UNL     1       3.321   2.468  20.716  0.00  0.00    +0.000 C 
ATOM     15  H   UNL     1       0.713   1.796  21.362  0.00  0.00    +0.000 HD
ENDBRANCH   1   9
BRANCH   1  16
ATOM     16  C   UNL     1       2.754   5.268  19.246  0.00  0.00    +0.000 C 
BRANCH  16  17
ATOM     17  C   UNL     1       2.193   6.185  18.153  0.00  0.00    +0.000 C 
BRANCH  17  19
ATOM     18  C   UNL     1       3.903   7.717  17.217  0.00  0.00    +0.000 C 
ATOM     19  C   UNL     1       2.734   7.619  18.199  0.00  0.00    +0.000 C 
ATOM     20  C   UNL     1       1.663   8.651  17.856  0.00  0.00    +0.000 C 
ENDBRANCH  17  19
ENDBRANCH  16  17
ENDBRANCH   1  16
BRANCH   5  21
ATOM     21  C   UNL     1       7.186   4.540  17.534  0.00  0.00    +0.000 C 
BRANCH  21  22
ATOM     22  C   UNL     1       7.551   5.961  17.781  0.00  0.00    +0.000 A 
ATOM     23  C   UNL     1       7.305   7.080  16.932  0.00  0.00    +0.000 A 
ATOM     24  C   UNL     1       7.866   8.170  17.553  0.00  0.00    +0.000 A 
ATOM     25  O   UNL     1       8.405   7.810  18.744  0.00  0.00    +0.000 OA
ATOM     26  C   UNL     1       8.207   6.474  18.880  0.00  0.00    +0.000 A 
ENDBRANCH  21  22
ENDBRANCH   5  21
TORSDOF 6
ENDMDL
MODEL 3
REMARK VINA RESULT:      -7.9      0.994      1.518
REMARK  Name = 
REMARK  8 active torsions:
REMARK  status: ('A' for Active; 'I' for Inactive)
REMARK    1  A    between atoms: C_1  and  C_2
REMARK    2  A    between atoms: C_2  and  C_3
REMARK    3  A    between atoms: C_2  and  C_4
REMARK    4  A    between atoms: C_4  and  C_5
REMARK    5  A    between atoms: C_5  and  C_6
REMARK    6  A    between atoms: C_6  and  C_7
REMARK    7  A    between atoms: N_16  and  C_17
REMARK    8  A    between atoms: C_17  and  C_18
REMARK                            x       y       z     vdW  Elec       q    Type
REMARK                         _______ _______ _______ _____ _____    ______ ____
ROOT
ATOM      1  C   UNL     1       3.245   4.340  18.085  0.00  0.00    +0.000 C 
ATOM      2  N   UNL     1       3.681   4.072  16.718  0.00  0.00    +0.000 N 
ATOM      3  C   UNL     1       5.046   4.091  16.572  0.00  0.00    +0.000 C 
ATOM      4  O   UNL     1       5.623   3.877  15.517  0.00  0.00    +0.000 OA
ATOM      5  N   UNL     1       5.600   4.385  17.775  0.00  0.00    +0.000 N 
ATOM      6  C   UNL     1       4.628   4.684  18.682  0.00  0.00    +0.000 C 
ATOM      7  O   UNL     1       4.823   5.173  19.787  0.00  0.00    +0.000 OA
ATOM      8  H   UNL     1       3.071   3.900  15.925  0.00  0.00    +0.000 HD
ENDROOT
BRANCH   1   9
ATOM      9  C   UNL     1       2.553   3.062  18.665  0.00  0.00    +0.000 C 
ATOM     10  C   UNL     1       1.550   3.287  19.815  0.00  0.00    +0.000 C 
ATOM     11  C   UNL     1       2.221   3.527  21.164  0.00  0.00    +0.000 C 
ATOM     12  N   UNL     1       3.174   2.478  21.515  0.00  0.00    +0.000 NA
ATOM     13  C   UNL     1       4.155   2.192  20.466  0.00  0.00    +0.000 C 
ATOM     14  C   UNL     1       3.511   1.935  19.108  0.00  0.00    +0.000 C 
ATOM     15  H   UNL     1       2.659   1.622  21.724  0.00  0.00    +0.000 HD
ENDBRANCH   1   9
BRANCH   1  16
ATOM     16  C   UNL     1       2.323   5.577  18.122  0.00  0.00    +0.000 C 
BRANCH  16  17
ATOM     17  C   UNL     1       3.041   6.882  17.756  0.00  0.00    +0.000 C 
BRANCH  17  19
ATOM     18  C   UNL     1       1.639   8.926  17.758  0.00  0.00    +0.000 C 
ATOM     19  C   UNL     1       2.611   8.091  18.594  0.00  0.00    +0.000 C 
ATOM     20  C   UNL     1       1.963   7.678  19.912  0.00  0.00    +0.000 C 
ENDBRANCH  17  19
ENDBRANCH  16  17
ENDBRANCH   1  16
BRANCH   5  21
ATOM     21  C   UNL     1       7.011   4.525  18.040  0.00  0.00    +0.000 C 
BRANCH  21  22
ATOM     22  C   UNL     1       7.389   5.964  18.030  0.00  0.00    +0.000 A 
ATOM     23  C   UNL     1       6.999   6.957  17.084  0.00  0.00    +0.000 A 
ATOM     24  C   UNL     1       7.633   8.118  17.455  0.00  0.00    +0.000 A 
ATOM     25  O   UNL     1       8.355   7.922  18.586  0.00  0.00    +0.000 OA
ATOM     26  C   UNL     1       8.200   6.619  18.933  0.00  0.00    +0.000 A 
ENDBRANCH  21  22
ENDBRANCH   5  21
TORSDOF 6
ENDMDL
MODEL 4
REMARK VINA RESULT:      -7.7      0.767      1.049
REMARK  Name = 
REMARK  8 active torsions:
REMARK  status: ('A' for Active; 'I' for Inactive)
REMARK    1  A    between atoms: C_1  and  C_2
REMARK    2  A    between atoms: C_2  and  C_3
REMARK    3  A    between atoms: C_2  and  C_4
REMARK    4  A    between atoms: C_4  and  C_5
REMARK    5  A    between atoms: C_5  and  C_6
REMARK    6  A    between atoms: C_6  and  C_7
REMARK    7  A    between atoms: N_16  and  C_17
REMARK    8  A    between atoms: C_17  and  C_18
REMARK                            x       y       z     vdW  Elec       q    Type
REMARK                         _______ _______ _______ _____ _____    ______ ____
ROOT
ATOM      1  C   UNL     1       3.948   4.049  17.899  0.00  0.00    +0.000 C 
ATOM      2  N   UNL     1       4.478   3.943  16.543  0.00  0.00    +0.000 N 
ATOM      3  C   UNL     1       5.823   4.203  16.466  0.00  0.00    +0.000 C 
ATOM      4  O   UNL     1       6.470   4.155  15.431  0.00  0.00    +0.000 OA
ATOM      5  N   UNL     1       6.270   4.513  17.709  0.00  0.00    +0.000 N 
ATOM      6  C   UNL     1       5.226   4.586  18.582  0.00  0.00    +0.000 C 
ATOM      7  O   UNL     1       5.289   5.033  19.720  0.00  0.00    +0.000 OA
ATOM      8  H   UNL     1       3.938   3.719  15.713  0.00  0.00    +0.000 HD
ENDROOT
BRANCH   1   9
ATOM      9  C   UNL     1       3.464   2.639  18.376  0.00  0.00    +0.000 C 
ATOM     10  C   UNL     1       1.993   2.282  18.079  0.00  0.00    +0.000 C 
ATOM     11  C   UNL     1       1.007   2.938  19.040  0.00  0.00    +0.000 C 
ATOM     12  N   UNL     1       1.324   2.675  20.441  0.00  0.00    +0.000 NA
ATOM     13  C   UNL     1       2.711   2.975  20.802  0.00  0.00    +0.000 C 
ATOM     14  C   UNL     1       3.721   2.321  19.865  0.00  0.00    +0.000 C 
ATOM     15  H   UNL     1       1.138   1.692  20.642  0.00  0.00    +0.000 HD
ENDBRANCH   1   9
BRANCH   1  16
ATOM     16  C   UNL     1       2.825   5.107  17.956  0.00  0.00    +0.000 C 
BRANCH  16  17
ATOM     17  C   UNL     1       3.299   6.517  17.582  0.00  0.00    +0.000 C 
BRANCH  17  19
ATOM     18  C   UNL     1       1.901   8.545  17.866  0.00  0.00    +0.000 C 
ATOM     19  C   UNL     1       2.878   7.605  18.576  0.00  0.00    +0.000 C 
ATOM     20  C   UNL     1       2.238   7.022  19.833  0.00  0.00    +0.000 C 
ENDBRANCH  17  19
ENDBRANCH  16  17
ENDBRANCH   1  16
BRANCH   5  21
ATOM     21  C   UNL     1       7.625   4.874  18.051  0.00  0.00    +0.000 C 
BRANCH  21  22
ATOM     22  C   UNL     1       7.764   6.355  18.072  0.00  0.00    +0.000 A 
ATOM     23  C   UNL     1       7.167   7.297  17.182  0.00  0.00    +0.000 A 
ATOM     24  C   UNL     1       7.625   8.535  17.561  0.00  0.00    +0.000 A 
ATOM     25  O   UNL     1       8.431   8.430  18.647  0.00  0.00    +0.000 OA
ATOM     26  C   UNL     1       8.507   7.110  18.956  0.00  0.00    +0.000 A 
ENDBRANCH  21  22
ENDBRANCH   5  21
TORSDOF 6
ENDMDL
MODEL 5
REMARK VINA RESULT:      -7.5      2.422      6.283
REMARK  Name = 
REMARK  8 active torsions:
REMARK  status: ('A' for Active; 'I' for Inactive)
REMARK    1  A    between atoms: C_1  and  C_2
REMARK    2  A    between atoms: C_2  and  C_3
REMARK    3  A    between atoms: C_2  and  C_4
REMARK    4  A    between atoms: C_4  and  C_5
REMARK    5  A    between atoms: C_5  and  C_6
REMARK    6  A    between atoms: C_6  and  C_7
REMARK    7  A    between atoms: N_16  and  C_17
REMARK    8  A    between atoms: C_17  and  C_18
REMARK                            x       y       z     vdW  Elec       q    Type
REMARK                         _______ _______ _______ _____ _____    ______ ____
ROOT
ATOM      1  C   UNL     1       5.627   4.814  16.835  0.00  0.00    +0.000 C 
ATOM      2  N   UNL     1       4.907   6.064  16.610  0.00  0.00    +0.000 N 
ATOM      3  C   UNL     1       4.146   6.451  17.684  0.00  0.00    +0.000 C 
ATOM      4  O   UNL     1       3.477   7.472  17.716  0.00  0.00    +0.000 OA
ATOM      5  N   UNL     1       4.275   5.514  18.658  0.00  0.00    +0.000 N 
ATOM      6  C   UNL     1       5.005   4.457  18.204  0.00  0.00    +0.000 C 
ATOM      7  O   UNL     1       5.124   3.384  18.780  0.00  0.00    +0.000 OA
ATOM      8  H   UNL     1       4.927   6.613  15.757  0.00  0.00    +0.000 HD
ENDROOT
BRANCH   1   9
ATOM      9  C   UNL     1       7.166   5.099  16.842  0.00  0.00    +0.000 C 
ATOM     10  C   UNL     1       7.933   4.695  18.118  0.00  0.00    +0.000 C 
ATOM     11  C   UNL     1       7.752   5.681  19.268  0.00  0.00    +0.000 C 
ATOM     12  N   UNL     1       8.074   7.055  18.891  0.00  0.00    +0.000 NA
ATOM     13  C   UNL     1       7.396   7.511  17.677  0.00  0.00    +0.000 C 
ATOM     14  C   UNL     1       7.571   6.550  16.505  0.00  0.00    +0.000 C 
ATOM     15  H   UNL     1       9.083   7.130  18.751  0.00  0.00    +0.000 HD
ENDBRANCH   1   9
BRANCH   1  16
ATOM     16  C   UNL     1       5.228   3.766  15.775  0.00  0.00    +0.000 C 
BRANCH  16  17
ATOM     17  C   UNL     1       5.218   4.321  14.345  0.00  0.00    +0.000 C 
BRANCH  17  19
ATOM     18  C   UNL     1       5.741   3.224  12.184  0.00  0.00    +0.000 C 
ATOM     19  C   UNL     1       6.357   3.799  13.461  0.00  0.00    +0.000 C 
ATOM     20  C   UNL     1       7.369   4.889  13.121  0.00  0.00    +0.000 C 
ENDBRANCH  17  19
ENDBRANCH  16  17
ENDBRANCH   1  16
BRANCH   5  21
ATOM     21  C   UNL     1       3.614   5.538  19.941  0.00  0.00    +0.000 C 
BRANCH  21  22
ATOM     22  C   UNL     1       2.556   4.492  19.985  0.00  0.00    +0.000 A 
ATOM     23  C   UNL     1       1.617   4.164  18.962  0.00  0.00    +0.000 A 
ATOM     24  C   UNL     1       0.812   3.176  19.476  0.00  0.00    +0.000 A 
ATOM     25  O   UNL     1       1.213   2.843  20.728  0.00  0.00    +0.000 OA
ATOM     26  C   UNL     1       2.272   3.638  21.029  0.00  0.00    +0.000 A 
ENDBRANCH  21  22
ENDBRANCH   5  21
TORSDOF 6
ENDMDL
MODEL 6
REMARK VINA RESULT:      -7.4      1.913      3.026
REMARK  Name = 
REMARK  8 active torsions:
REMARK  status: ('A' for Active; 'I' for Inactive)
REMARK    1  A    between atoms: C_1  and  C_2
REMARK    2  A    between atoms: C_2  and  C_3
REMARK    3  A    between atoms: C_2  and  C_4
REMARK    4  A    between atoms: C_4  and  C_5
REMARK    5  A    between atoms: C_5  and  C_6
REMARK    6  A    between atoms: C_6  and  C_7
REMARK    7  A    between atoms: N_16  and  C_17
REMARK    8  A    between atoms: C_17  and  C_18
REMARK                            x       y       z     vdW  Elec       q    Type
REMARK                         _______ _______ _______ _____ _____    ______ ____
ROOT
ATOM      1  C   UNL     1       2.341   5.353  19.086  0.00  0.00    +0.000 C 
ATOM      2  N   UNL     1       2.555   6.450  18.147  0.00  0.00    +0.000 N 
ATOM      3  C   UNL     1       3.865   6.582  17.758  0.00  0.00    +0.000 C 
ATOM      4  O   UNL     1       4.262   7.424  16.968  0.00  0.00    +0.000 OA
ATOM      5  N   UNL     1       4.598   5.638  18.401  0.00  0.00    +0.000 N 
ATOM      6  C   UNL     1       3.822   4.968  19.299  0.00  0.00    +0.000 C 
ATOM      7  O   UNL     1       4.240   4.201  20.156  0.00  0.00    +0.000 OA
ATOM      8  H   UNL     1       1.840   7.084  17.804  0.00  0.00    +0.000 HD
ENDROOT
BRANCH   1   9
ATOM      9  C   UNL     1       1.445   4.262  18.409  0.00  0.00    +0.000 C 
ATOM     10  C   UNL     1       0.755   3.259  19.354  0.00  0.00    +0.000 C 
ATOM     11  C   UNL     1       1.690   2.166  19.862  0.00  0.00    +0.000 C 
ATOM     12  N   UNL     1       2.375   1.462  18.781  0.00  0.00    +0.000 NA
ATOM     13  C   UNL     1       3.047   2.348  17.829  0.00  0.00    +0.000 C 
ATOM     14  C   UNL     1       2.130   3.444  17.293  0.00  0.00    +0.000 C 
ATOM     15  H   UNL     1       1.695   0.892  18.277  0.00  0.00    +0.000 HD
ENDBRANCH   1   9
BRANCH   1  16
ATOM     16  C   UNL     1       1.731   5.883  20.401  0.00  0.00    +0.000 C 
BRANCH  16  17
ATOM     17  C   UNL     1       2.124   7.333  20.712  0.00  0.00    +0.000 C 
BRANCH  17  19
ATOM     18  C   UNL     1       1.025   8.964  22.221  0.00  0.00    +0.000 C 
ATOM     19  C   UNL     1       0.934   8.290  20.850  0.00  0.00    +0.000 C 
ATOM     20  C   UNL     1       0.905   9.337  19.741  0.00  0.00    +0.000 C 
ENDBRANCH  17  19
ENDBRANCH  16  17
ENDBRANCH   1  16
BRANCH   5  21
ATOM     21  C   UNL     1       6.025   5.457  18.285  0.00  0.00    +0.000 C 
BRANCH  21  22
ATOM     22  C   UNL     1       6.380   5.125  16.879  0.00  0.00    +0.000 A 
ATOM     23  C   UNL     1       5.864   4.061  16.081  0.00  0.00    +0.000 A 
ATOM     24  C   UNL     1       6.524   4.122  14.877  0.00  0.00    +0.000 A 
ATOM     25  O   UNL     1       7.382   5.173  14.861  0.00  0.00    +0.000 OA
ATOM     26  C   UNL     1       7.287   5.779  16.072  0.00  0.00    +0.000 A 
ENDBRANCH  21  22
ENDBRANCH   5  21
TORSDOF 6
ENDMDL
MODEL 7
REMARK VINA RESULT:      -7.3      1.877      3.020
REMARK  Name = 
REMARK  8 active torsions:
REMARK  status: ('A' for Active; 'I' for Inactive)
REMARK    1  A    between atoms: C_1  and  C_2
REMARK    2  A    between atoms: C_2  and  C_3
REMARK    3  A    between atoms: C_2  and  C_4
REMARK    4  A    between atoms: C_4  and  C_5
REMARK    5  A    between atoms: C_5  and  C_6
REMARK    6  A    between atoms: C_6  and  C_7
REMARK    7  A    between atoms: N_16  and  C_17
REMARK    8  A    between atoms: C_17  and  C_18
REMARK                            x       y       z     vdW  Elec       q    Type
REMARK                         _______ _______ _______ _____ _____    ______ ____
ROOT
ATOM      1  C   UNL     1       2.817   5.341  19.117  0.00  0.00    +0.000 C 
ATOM      2  N   UNL     1       3.062   6.437  18.184  0.00  0.00    +0.000 N 
ATOM      3  C   UNL     1       4.303   6.383  17.601  0.00  0.00    +0.000 C 
ATOM      4  O   UNL     1       4.709   7.191  16.780  0.00  0.00    +0.000 OA
ATOM      5  N   UNL     1       4.962   5.306  18.098  0.00  0.00    +0.000 N 
ATOM      6  C   UNL     1       4.231   4.720  19.088  0.00  0.00    +0.000 C 
ATOM      7  O   UNL     1       4.643   3.856  19.850  0.00  0.00    +0.000 OA
ATOM      8  H   UNL     1       2.416   7.190  17.972  0.00  0.00    +0.000 HD
ENDROOT
BRANCH   1   9
ATOM      9  C   UNL     1       1.666   4.438  18.559  0.00  0.00    +0.000 C 
ATOM     10  C   UNL     1       0.951   3.530  19.581  0.00  0.00    +0.000 C 
ATOM     11  C   UNL     1       1.748   2.280  19.941  0.00  0.00    +0.000 C 
ATOM     12  N   UNL     1       2.152   1.511  18.767  0.00  0.00    +0.000 NA
ATOM     13  C   UNL     1       2.828   2.305  17.740  0.00  0.00    +0.000 C 
ATOM     14  C   UNL     1       2.046   3.556  17.350  0.00  0.00    +0.000 C 
ATOM     15  H   UNL     1       1.324   1.079  18.356  0.00  0.00    +0.000 HD
ENDBRANCH   1   9
BRANCH   1  16
ATOM     16  C   UNL     1       2.502   5.893  20.523  0.00  0.00    +0.000 C 
BRANCH  16  17
ATOM     17  C   UNL     1       1.244   6.770  20.565  0.00  0.00    +0.000 C 
BRANCH  17  19
ATOM     18  C   UNL     1       1.312   9.035  19.559  0.00  0.00    +0.000 C 
ATOM     19  C   UNL     1       1.521   8.250  20.855  0.00  0.00    +0.000 C 
ATOM     20  C   UNL     1       0.623   8.798  21.960  0.00  0.00    +0.000 C 
ENDBRANCH  17  19
ENDBRANCH  16  17
ENDBRANCH   1  16
BRANCH   5  21
ATOM     21  C   UNL     1       6.308   4.911  17.758  0.00  0.00    +0.000 C 
BRANCH  21  22
ATOM     22  C   UNL     1       6.388   4.582  16.309  0.00  0.00    +0.000 A 
ATOM     23  C   UNL     1       7.190   5.220  15.317  0.00  0.00    +0.000 A 
ATOM     24  C   UNL     1       6.890   4.609  14.123  0.00  0.00    +0.000 A 
ATOM     25  O   UNL     1       5.991   3.612  14.314  0.00  0.00    +0.000 OA
ATOM     26  C   UNL     1       5.694   3.596  15.639  0.00  0.00    +0.000 A 
ENDBRANCH  21  22
ENDBRANCH   5  21
TORSDOF 6
ENDMDL
MODEL 8
REMARK VINA RESULT:      -7.2      1.736      2.767
REMARK  Name = 
REMARK  8 active torsions:
REMARK  status: ('A' for Active; 'I' for Inactive)
REMARK    1  A    between atoms: C_1  and  C_2
REMARK    2  A    between atoms: C_2  and  C_3
REMARK    3  A    between atoms: C_2  and  C_4
REMARK    4  A    between atoms: C_4  and  C_5
REMARK    5  A    between atoms: C_5  and  C_6
REMARK    6  A    between atoms: C_6  and  C_7
REMARK    7  A    between atoms: N_16  and  C_17
REMARK    8  A    between atoms: C_17  and  C_18
REMARK                            x       y       z     vdW  Elec       q    Type
REMARK                         _______ _______ _______ _____ _____    ______ ____
ROOT
ATOM      1  C   UNL     1       2.603   5.645  19.124  0.00  0.00    +0.000 C 
ATOM      2  N   UNL     1       1.997   4.938  17.999  0.00  0.00    +0.000 N 
ATOM      3  C   UNL     1       2.866   4.087  17.364  0.00  0.00    +0.000 C 
ATOM      4  O   UNL     1       2.563   3.387  16.410  0.00  0.00    +0.000 OA
ATOM      5  N   UNL     1       4.075   4.176  17.976  0.00  0.00    +0.000 N 
ATOM      6  C   UNL     1       4.055   5.158  18.920  0.00  0.00    +0.000 C 
ATOM      7  O   UNL     1       5.040   5.602  19.495  0.00  0.00    +0.000 OA
ATOM      8  H   UNL     1       1.041   5.048  17.677  0.00  0.00    +0.000 HD
ENDROOT
BRANCH   1   9
ATOM      9  C   UNL     1       1.913   5.188  20.452  0.00  0.00    +0.000 C 
ATOM     10  C   UNL     1       2.776   4.356  21.422  0.00  0.00    +0.000 C 
ATOM     11  C   UNL     1       2.919   2.895  21.002  0.00  0.00    +0.000 C 
ATOM     12  N   UNL     1       1.631   2.245  20.775  0.00  0.00    +0.000 NA
ATOM     13  C   UNL     1       0.744   2.982  19.874  0.00  0.00    +0.000 C 
ATOM     14  C   UNL     1       0.572   4.443  20.278  0.00  0.00    +0.000 C 
ATOM     15  H   UNL     1       1.161   2.125  21.673  0.00  0.00    +0.000 HD
ENDBRANCH   1   9
BRANCH   1  16
ATOM     16  C   UNL     1       2.514   7.171  18.909  0.00  0.00    +0.000 C 
BRANCH  16  17
ATOM     17  C   UNL     1       1.809   7.906  20.056  0.00  0.00    +0.000 C 
BRANCH  17  19
ATOM     18  C   UNL     1       1.190   9.375  18.158  0.00  0.00    +0.000 C 
ATOM     19  C   UNL     1       1.288   9.298  19.683  0.00  0.00    +0.000 C 
ATOM     20  C   UNL     1      -0.066   9.597  20.320  0.00  0.00    +0.000 C 
ENDBRANCH  17  19
ENDBRANCH  16  17
ENDBRANCH   1  16
BRANCH   5  21
ATOM     21  C   UNL     1       5.266   3.458  17.593  0.00  0.00    +0.000 C 
BRANCH  21  22
ATOM     22  C   UNL     1       5.972   4.190  16.507  0.00  0.00    +0.000 A 
ATOM     23  C   UNL     1       5.771   4.062  15.101  0.00  0.00    +0.000 A 
ATOM     24  C   UNL     1       6.683   4.896  14.500  0.00  0.00    +0.000 A 
ATOM     25  O   UNL     1       7.406   5.560  15.437  0.00  0.00    +0.000 OA
ATOM     26  C   UNL     1       6.968   5.133  16.649  0.00  0.00    +0.000 A 
ENDBRANCH  21  22
ENDBRANCH   5  21
TORSDOF 6
ENDMDL
MODEL 9
REMARK VINA RESULT:      -7.2      2.652      6.410
REMARK  Name = 
REMARK  8 active torsions:
REMARK  status: ('A' for Active; 'I' for Inactive)
REMARK    1  A    between atoms: C_1  and  C_2
REMARK    2  A    between atoms: C_2  and  C_3
REMARK    3  A    between atoms: C_2  and  C_4
REMARK    4  A    between atoms: C_4  and  C_5
REMARK    5  A    between atoms: C_5  and  C_6
REMARK    6  A    between atoms: C_6  and  C_7
REMARK    7  A    between atoms: N_16  and  C_17
REMARK    8  A    between atoms: C_17  and  C_18
REMARK                            x       y       z     vdW  Elec       q    Type
REMARK                         _______ _______ _______ _____ _____    ______ ____
ROOT
ATOM      1  C   UNL     1       5.518   5.200  16.295  0.00  0.00    +0.000 C 
ATOM      2  N   UNL     1       4.916   6.527  16.383  0.00  0.00    +0.000 N 
ATOM      3  C   UNL     1       4.120   6.689  17.489  0.00  0.00    +0.000 C 
ATOM      4  O   UNL     1       3.534   7.724  17.764  0.00  0.00    +0.000 OA
ATOM      5  N   UNL     1       4.110   5.521  18.181  0.00  0.00    +0.000 N 
ATOM      6  C   UNL     1       4.780   4.557  17.491  0.00  0.00    +0.000 C 
ATOM      7  O   UNL     1       4.776   3.364  17.764  0.00  0.00    +0.000 OA
ATOM      8  H   UNL     1       5.036   7.277  15.709  0.00  0.00    +0.000 HD
ENDROOT
BRANCH   1   9
ATOM      9  C   UNL     1       7.071   5.326  16.442  0.00  0.00    +0.000 C 
ATOM     10  C   UNL     1       7.700   4.651  17.677  0.00  0.00    +0.000 C 
ATOM     11  C   UNL     1       7.520   5.454  18.962  0.00  0.00    +0.000 C 
ATOM     12  N   UNL     1       7.990   6.831  18.837  0.00  0.00    +0.000 NA
ATOM     13  C   UNL     1       7.448   7.540  17.676  0.00  0.00    +0.000 C 
ATOM     14  C   UNL     1       7.626   6.765  16.374  0.00  0.00    +0.000 C 
ATOM     15  H   UNL     1       9.008   6.827  18.773  0.00  0.00    +0.000 HD
ENDBRANCH   1   9
BRANCH   1  16
ATOM     16  C   UNL     1       5.105   4.510  14.977  0.00  0.00    +0.000 C 
BRANCH  16  17
ATOM     17  C   UNL     1       6.286   3.888  14.222  0.00  0.00    +0.000 C 
BRANCH  17  19
ATOM     18  C   UNL     1       7.488   4.705  12.213  0.00  0.00    +0.000 C 
ATOM     19  C   UNL     1       6.202   4.032  12.698  0.00  0.00    +0.000 C 
ATOM     20  C   UNL     1       6.008   2.689  12.001  0.00  0.00    +0.000 C 
ENDBRANCH  17  19
ENDBRANCH  16  17
ENDBRANCH   1  16
BRANCH   5  21
ATOM     21  C   UNL     1       3.371   5.269  19.395  0.00  0.00    +0.000 C 
BRANCH  21  22
ATOM     22  C   UNL     1       2.316   4.251  19.143  0.00  0.00    +0.000 A 
ATOM     23  C   UNL     1       1.995   3.116  19.946  0.00  0.00    +0.000 A 
ATOM     24  C   UNL     1       0.993   2.445  19.288  0.00  0.00    +0.000 A 
ATOM     25  O   UNL     1       0.645   3.106  18.156  0.00  0.00    +0.000 OA
ATOM     26  C   UNL     1       1.443   4.201  18.076  0.00  0.00    +0.000 A 
ENDBRANCH  21  22
ENDBRANCH   5  21
TORSDOF 6
ENDMDL
