MODEL 1
REMARK VINA RESULT:      -8.6      0.000      0.000
REMARK  Name = 
REMARK  9 active torsions:
REMARK  status: ('A' for Active; 'I' for Inactive)
REMARK    1  A    between atoms: C_1  and  C_2
REMARK    2  A    between atoms: C_2  and  C_3
REMARK    3  A    between atoms: C_3  and  C_4
REMARK    4  A    between atoms: C_6  and  C_7
REMARK    5  A    between atoms: C_7  and  N_8
REMARK    6  A    between atoms: N_8  and  C_9
REMARK    7  A    between atoms: C_9  and  C_10
REMARK    8  A    between atoms: N_13  and  C_14
REMARK    9  A    between atoms: C_14  and  C_15
REMARK                            x       y       z     vdW  Elec       q    Type
REMARK                         _______ _______ _______ _____ _____    ______ ____
ROOT
ATOM      1  N   UNL     1       5.897   5.569  17.205  0.00  0.00    +0.000 N 
ATOM      2  C   UNL     1       4.549   5.206  17.376  0.00  0.00    +0.000 C 
ATOM      3  O   UNL     1       4.060   4.167  16.948  0.00  0.00    +0.000 OA
ATOM      4  N   UNL     1       3.824   6.149  18.067  0.00  0.00    +0.000 N 
ATOM      5  H   UNL     1       4.309   6.647  18.790  0.00  0.00    +0.000 HD
ENDROOT
BRANCH   1   6
ATOM      6  C   UNL     1       6.371   6.892  17.611  0.00  0.00    +0.000 C 
ATOM      7  C   UNL     1       7.821   7.113  17.986  0.00  0.00    +0.000 C 
ENDBRANCH   1   6
BRANCH   1   8
ATOM      8  C   UNL     1       6.800   4.576  16.591  0.00  0.00    +0.000 C 
BRANCH   8  11
ATOM      9  C   UNL     1       6.756   4.171  13.072  0.00  0.00    +0.000 A 
ATOM     10  N   UNL     1       6.177   3.895  14.222  0.00  0.00    +0.000 NA
ATOM     11  C   UNL     1       6.898   4.671  15.098  0.00  0.00    +0.000 A 
ATOM     12  N   UNL     1       7.753   5.522  14.503  0.00  0.00    +0.000 NA
ATOM     13  O   UNL     1       7.678   5.172  13.159  0.00  0.00    +0.000 OA
BRANCH   9  14
ATOM     14  C   UNL     1       6.708   3.400  11.813  0.00  0.00    +0.000 C 
BRANCH  14  16
ATOM     15  C   UNL     1       4.195   3.265  11.320  0.00  0.00    +0.000 C 
ATOM     16  C   UNL     1       5.454   2.520  11.770  0.00  0.00    +0.000 C 
ENDBRANCH  14  16
ENDBRANCH   9  14
ENDBRANCH   8  11
ENDBRANCH   1   8
BRANCH   4  17
ATOM     17  C   UNL     1       2.399   6.050  18.313  0.00  0.00    +0.000 C 
BRANCH  17  18
ATOM     18  C   UNL     1       2.087   4.921  19.270  0.00  0.00    +0.000 A 
ATOM     19  C   UNL     1       2.477   4.949  20.620  0.00  0.00    +0.000 A 
ATOM     20  C   UNL     1       2.134   3.905  21.489  0.00  0.00    +0.000 A 
ATOM     21  C   UNL     1       1.382   2.827  21.025  0.00  0.00    +0.000 A 
ATOM     22  C   UNL     1       0.975   2.794  19.694  0.00  0.00    +0.000 A 
ATOM     23  C   UNL     1       1.325   3.834  18.833  0.00  0.00    +0.000 A 
ATOM     24  F   UNL     1       0.916   3.775  17.558  0.00  0.00    +0.000 F 
ENDBRANCH  17  18
ENDBRANCH   4  17
TORSDOF 7
ENDMDL
MODEL 2
REMARK VINA RESULT:      -8.0      1.118      1.578
REMARK  Name = 
REMARK  9 active torsions:
REMARK  status: ('A' for Active; 'I' for Inactive)
REMARK    1  A    between atoms: C_1  and  C_2
REMARK    2  A    between atoms: C_2  and  C_3
REMARK    3  A    between atoms: C_3  and  C_4
REMARK    4  A    between atoms: C_6  and  C_7
REMARK    5  A    between atoms: C_7  and  N_8
REMARK    6  A    between atoms: N_8  and  C_9
REMARK    7  A    between atoms: C_9  and  C_10
REMARK    8  A    between atoms: N_13  and  C_14
REMARK    9  A    between atoms: C_14  and  C_15
REMARK                            x       y       z     vdW  Elec       q    Type
REMARK                         _______ _______ _______ _____ _____    ______ ____
ROOT
ATOM      1  N   UNL     1       6.094   5.194  17.441  0.00  0.00    +0.000 N 
ATOM      2  C   UNL     1       4.701   5.058  17.303  0.00  0.00    +0.000 C 
ATOM      3  O   UNL     1       4.162   4.299  16.505  0.00  0.00    +0.000 OA
ATOM      4  N   UNL     1       3.995   5.878  18.153  0.00  0.00    +0.000 N 
ATOM      5  H   UNL     1       4.401   6.044  19.056  0.00  0.00    +0.000 HD
ENDROOT
BRANCH   1   6
ATOM      6  C   UNL     1       6.660   6.228  18.307  0.00  0.00    +0.000 C 
ATOM      7  C   UNL     1       7.757   5.894  19.295  0.00  0.00    +0.000 C 
ENDBRANCH   1   6
BRANCH   1   8
ATOM      8  C   UNL     1       6.950   4.271  16.671  0.00  0.00    +0.000 C 
BRANCH   8  11
ATOM      9  C   UNL     1       6.833   4.278  13.130  0.00  0.00    +0.000 A 
ATOM     10  N   UNL     1       6.322   3.813  14.251  0.00  0.00    +0.000 NA
ATOM     11  C   UNL     1       6.991   4.549  15.199  0.00  0.00    +0.000 A 
ATOM     12  N   UNL     1       7.739   5.547  14.692  0.00  0.00    +0.000 NA
ATOM     13  O   UNL     1       7.655   5.350  13.318  0.00  0.00    +0.000 OA
BRANCH   9  14
ATOM     14  C   UNL     1       6.822   3.659  11.789  0.00  0.00    +0.000 C 
BRANCH  14  16
ATOM     15  C   UNL     1       6.247   1.242  11.157  0.00  0.00    +0.000 C 
ATOM     16  C   UNL     1       5.740   2.577  11.709  0.00  0.00    +0.000 C 
ENDBRANCH  14  16
ENDBRANCH   9  14
ENDBRANCH   8  11
ENDBRANCH   1   8
BRANCH   4  17
ATOM     17  C   UNL     1       2.550   5.982  18.159  0.00  0.00    +0.000 C 
BRANCH  17  18
ATOM     18  C   UNL     1       1.919   4.792  18.850  0.00  0.00    +0.000 A 
ATOM     19  C   UNL     1       1.447   3.675  18.140  0.00  0.00    +0.000 A 
ATOM     20  C   UNL     1       0.907   2.573  18.815  0.00  0.00    +0.000 A 
ATOM     21  C   UNL     1       0.847   2.564  20.208  0.00  0.00    +0.000 A 
ATOM     22  C   UNL     1       1.327   3.658  20.923  0.00  0.00    +0.000 A 
ATOM     23  C   UNL     1       1.857   4.754  20.245  0.00  0.00    +0.000 A 
ATOM     24  F   UNL     1       2.314   5.791  20.962  0.00  0.00    +0.000 F 
ENDBRANCH  17  18
ENDBRANCH   4  17
TORSDOF 7
ENDMDL
MODEL 3
REMARK VINA RESULT:      -8.0      1.577      1.962
REMARK  Name = 
REMARK  9 active torsions:
REMARK  status: ('A' for Active; 'I' for Inactive)
REMARK    1  A    between atoms: C_1  and  C_2
REMARK    2  A    between atoms: C_2  and  C_3
REMARK    3  A    between atoms: C_3  and  C_4
REMARK    4  A    between atoms: C_6  and  C_7
REMARK    5  A    between atoms: C_7  and  N_8
REMARK    6  A    between atoms: N_8  and  C_9
REMARK    7  A    between atoms: C_9  and  C_10
REMARK    8  A    between atoms: N_13  and  C_14
REMARK    9  A    between atoms: C_14  and  C_15
REMARK                            x       y       z     vdW  Elec       q    Type
REMARK                         _______ _______ _______ _____ _____    ______ ____
ROOT
ATOM      1  N   UNL     1       6.251   5.975  17.896  0.00  0.00    +0.000 N 
ATOM      2  C   UNL     1       4.878   6.267  17.814  0.00  0.00    +0.000 C 
ATOM      3  O   UNL     1       4.349   6.810  16.851  0.00  0.00    +0.000 OA
ATOM      4  N   UNL     1       4.182   5.890  18.940  0.00  0.00    +0.000 N 
ATOM      5  H   UNL     1       4.495   5.057  19.403  0.00  0.00    +0.000 HD
ENDROOT
BRANCH   1   6
ATOM      6  C   UNL     1       6.833   5.464  19.137  0.00  0.00    +0.000 C 
ATOM      7  C   UNL     1       8.257   5.803  19.521  0.00  0.00    +0.000 C 
ENDBRANCH   1   6
BRANCH   1   8
ATOM      8  C   UNL     1       7.075   6.217  16.695  0.00  0.00    +0.000 C 
BRANCH   8  11
ATOM      9  C   UNL     1       6.851   4.269  13.745  0.00  0.00    +0.000 A 
ATOM     10  N   UNL     1       7.391   5.311  14.341  0.00  0.00    +0.000 NA
ATOM     11  C   UNL     1       6.936   5.171  15.630  0.00  0.00    +0.000 A 
ATOM     12  N   UNL     1       6.305   4.007  15.866  0.00  0.00    +0.000 NA
ATOM     13  O   UNL     1       6.225   3.419  14.608  0.00  0.00    +0.000 OA
BRANCH   9  14
ATOM     14  C   UNL     1       6.640   4.045  12.300  0.00  0.00    +0.000 C 
BRANCH  14  16
ATOM     15  C   UNL     1       4.349   3.311  11.410  0.00  0.00    +0.000 C 
ATOM     16  C   UNL     1       5.661   2.887  12.076  0.00  0.00    +0.000 C 
ENDBRANCH  14  16
ENDBRANCH   9  14
ENDBRANCH   8  11
ENDBRANCH   1   8
BRANCH   4  17
ATOM     17  C   UNL     1       2.769   6.144  19.137  0.00  0.00    +0.000 C 
BRANCH  17  18
ATOM     18  C   UNL     1       2.003   4.854  19.334  0.00  0.00    +0.000 A 
ATOM     19  C   UNL     1       1.532   4.087  18.254  0.00  0.00    +0.000 A 
ATOM     20  C   UNL     1       0.864   2.876  18.472  0.00  0.00    +0.000 A 
ATOM     21  C   UNL     1       0.670   2.405  19.770  0.00  0.00    +0.000 A 
ATOM     22  C   UNL     1       1.146   3.148  20.848  0.00  0.00    +0.000 A 
ATOM     23  C   UNL     1       1.806   4.356  20.624  0.00  0.00    +0.000 A 
ATOM     24  F   UNL     1       2.255   5.046  21.682  0.00  0.00    +0.000 F 
ENDBRANCH  17  18
ENDBRANCH   4  17
TORSDOF 7
ENDMDL
MODEL 4
REMARK VINA RESULT:      -7.7      2.105      3.199
REMARK  Name = 
REMARK  9 active torsions:
REMARK  status: ('A' for Active; 'I' for Inactive)
REMARK    1  A    between atoms: C_1  and  C_2
REMARK    2  A    between atoms: C_2  and  C_3
REMARK    3  A    between atoms: C_3  and  C_4
REMARK    4  A    between atoms: C_6  and  C_7
REMARK    5  A    between atoms: C_7  and  N_8
REMARK    6  A    between atoms: N_8  and  C_9
REMARK    7  A    between atoms: C_9  and  C_10
REMARK    8  A    between atoms: N_13  and  C_14
REMARK    9  A    between atoms: C_14  and  C_15
REMARK                            x       y       z     vdW  Elec       q    Type
REMARK                         _______ _______ _______ _____ _____    ______ ____
ROOT
ATOM      1  N   UNL     1       5.966   5.541  17.369  0.00  0.00    +0.000 N 
ATOM      2  C   UNL     1       4.679   5.258  17.860  0.00  0.00    +0.000 C 
ATOM      3  O   UNL     1       4.089   4.202  17.666  0.00  0.00    +0.000 OA
ATOM      4  N   UNL     1       4.138   6.300  18.579  0.00  0.00    +0.000 N 
ATOM      5  H   UNL     1       4.777   6.850  19.122  0.00  0.00    +0.000 HD
ENDROOT
BRANCH   1   6
ATOM      6  C   UNL     1       6.542   6.879  17.514  0.00  0.00    +0.000 C 
ATOM      7  C   UNL     1       7.910   7.068  18.133  0.00  0.00    +0.000 C 
ENDBRANCH   1   6
BRANCH   1   8
ATOM      8  C   UNL     1       6.696   4.451  16.695  0.00  0.00    +0.000 C 
BRANCH   8  11
ATOM      9  C   UNL     1       6.781   4.253  13.158  0.00  0.00    +0.000 A 
ATOM     10  N   UNL     1       6.163   3.909  14.268  0.00  0.00    +0.000 NA
ATOM     11  C   UNL     1       6.848   4.633  15.214  0.00  0.00    +0.000 A 
ATOM     12  N   UNL     1       7.720   5.520  14.701  0.00  0.00    +0.000 NA
ATOM     13  O   UNL     1       7.695   5.249  13.337  0.00  0.00    +0.000 OA
BRANCH   9  14
ATOM     14  C   UNL     1       6.783   3.557  11.855  0.00  0.00    +0.000 C 
BRANCH  14  16
ATOM     15  C   UNL     1       6.102   1.193  11.132  0.00  0.00    +0.000 C 
ATOM     16  C   UNL     1       5.678   2.497  11.813  0.00  0.00    +0.000 C 
ENDBRANCH  14  16
ENDBRANCH   9  14
ENDBRANCH   8  11
ENDBRANCH   1   8
BRANCH   4  17
ATOM     17  C   UNL     1       2.797   6.289  19.129  0.00  0.00    +0.000 C 
BRANCH  17  18
ATOM     18  C   UNL     1       2.173   7.667  19.074  0.00  0.00    +0.000 A 
ATOM     19  C   UNL     1       2.190   8.454  17.910  0.00  0.00    +0.000 A 
ATOM     20  C   UNL     1       1.565   9.707  17.882  0.00  0.00    +0.000 A 
ATOM     21  C   UNL     1       0.899  10.183  19.010  0.00  0.00    +0.000 A 
ATOM     22  C   UNL     1       0.860   9.406  20.165  0.00  0.00    +0.000 A 
ATOM     23  C   UNL     1       1.490   8.162  20.188  0.00  0.00    +0.000 A 
ATOM     24  F   UNL     1       1.432   7.436  21.313  0.00  0.00    +0.000 F 
ENDBRANCH  17  18
ENDBRANCH   4  17
TORSDOF 7
ENDMDL
MODEL 5
REMARK VINA RESULT:      -7.6      2.486      3.790
REMARK  Name = 
REMARK  9 active torsions:
REMARK  status: ('A' for Active; 'I' for Inactive)
REMARK    1  A    between atoms: C_1  and  C_2
REMARK    2  A    between atoms: C_2  and  C_3
REMARK    3  A    between atoms: C_3  and  C_4
REMARK    4  A    between atoms: C_6  and  C_7
REMARK    5  A    between atoms: C_7  and  N_8
REMARK    6  A    between atoms: N_8  and  C_9
REMARK    7  A    between atoms: C_9  and  C_10
REMARK    8  A    between atoms: N_13  and  C_14
REMARK    9  A    between atoms: C_14  and  C_15
REMARK                            x       y       z     vdW  Elec       q    Type
REMARK                         _______ _______ _______ _____ _____    ______ ____
ROOT
ATOM      1  N   UNL     1       4.678   4.302  17.823  0.00  0.00    +0.000 N 
ATOM      2  C   UNL     1       4.431   5.196  18.881  0.00  0.00    +0.000 C 
ATOM      3  O   UNL     1       5.309   5.697  19.573  0.00  0.00    +0.000 OA
ATOM      4  N   UNL     1       3.090   5.447  19.069  0.00  0.00    +0.000 N 
ATOM      5  H   UNL     1       2.518   5.466  18.245  0.00  0.00    +0.000 HD
ENDROOT
BRANCH   1   6
ATOM      6  C   UNL     1       3.571   3.630  17.141  0.00  0.00    +0.000 C 
ATOM      7  C   UNL     1       3.061   2.291  17.628  0.00  0.00    +0.000 C 
ENDBRANCH   1   6
BRANCH   1   8
ATOM      8  C   UNL     1       6.083   4.059  17.447  0.00  0.00    +0.000 C 
BRANCH   8  11
ATOM      9  C   UNL     1       6.631   4.444  13.967  0.00  0.00    +0.000 A 
ATOM     10  N   UNL     1       5.870   3.939  14.916  0.00  0.00    +0.000 NA
ATOM     11  C   UNL     1       6.429   4.479  16.050  0.00  0.00    +0.000 A 
ATOM     12  N   UNL     1       7.365   5.414  15.808  0.00  0.00    +0.000 NA
ATOM     13  O   UNL     1       7.519   5.372  14.426  0.00  0.00    +0.000 OA
BRANCH   9  14
ATOM     14  C   UNL     1       6.800   3.972  12.578  0.00  0.00    +0.000 C 
BRANCH  14  16
ATOM     15  C   UNL     1       5.809   1.891  11.454  0.00  0.00    +0.000 C 
ATOM     16  C   UNL     1       5.535   3.252  12.099  0.00  0.00    +0.000 C 
ENDBRANCH  14  16
ENDBRANCH   9  14
ENDBRANCH   8  11
ENDBRANCH   1   8
BRANCH   4  17
ATOM     17  C   UNL     1       2.567   6.275  20.136  0.00  0.00    +0.000 C 
BRANCH  17  18
ATOM     18  C   UNL     1       2.080   7.607  19.606  0.00  0.00    +0.000 A 
ATOM     19  C   UNL     1       2.264   7.996  18.268  0.00  0.00    +0.000 A 
ATOM     20  C   UNL     1       1.762   9.218  17.802  0.00  0.00    +0.000 A 
ATOM     21  C   UNL     1       1.055  10.059  18.660  0.00  0.00    +0.000 A 
ATOM     22  C   UNL     1       0.852   9.677  19.983  0.00  0.00    +0.000 A 
ATOM     23  C   UNL     1       1.360   8.463  20.443  0.00  0.00    +0.000 A 
ATOM     24  F   UNL     1       1.145   8.121  21.721  0.00  0.00    +0.000 F 
ENDBRANCH  17  18
ENDBRANCH   4  17
TORSDOF 7
ENDMDL
MODEL 6
REMARK VINA RESULT:      -7.5      1.662      1.942
REMARK  Name = 
REMARK  9 active torsions:
REMARK  status: ('A' for Active; 'I' for Inactive)
REMARK    1  A    between atoms: C_1  and  C_2
REMARK    2  A    between atoms: C_2  and  C_3
REMARK    3  A    between atoms: C_3  and  C_4
REMARK    4  A    between atoms: C_6  and  C_7
REMARK    5  A    between atoms: C_7  and  N_8
REMARK    6  A    between atoms: N_8  and  C_9
REMARK    7  A    between atoms: C_9  and  C_10
REMARK    8  A    between atoms: N_13  and  C_14
REMARK    9  A    between atoms: C_14  and  C_15
REMARK                            x       y       z     vdW  Elec       q    Type
REMARK                         _______ _______ _______ _____ _____    ______ ____
ROOT
ATOM      1  N   UNL     1       5.849   5.242  18.178  0.00  0.00    +0.000 N 
ATOM      2  C   UNL     1       5.041   4.092  18.129  0.00  0.00    +0.000 C 
ATOM      3  O   UNL     1       4.244   3.853  17.229  0.00  0.00    +0.000 OA
ATOM      4  N   UNL     1       5.228   3.258  19.208  0.00  0.00    +0.000 N 
ATOM      5  H   UNL     1       6.158   3.208  19.580  0.00  0.00    +0.000 HD
ENDROOT
BRANCH   1   6
ATOM      6  C   UNL     1       6.664   5.531  19.359  0.00  0.00    +0.000 C 
ATOM      7  C   UNL     1       8.067   6.079  19.215  0.00  0.00    +0.000 C 
ENDBRANCH   1   6
BRANCH   1   8
ATOM      8  C   UNL     1       5.828   6.144  17.011  0.00  0.00    +0.000 C 
BRANCH   8  11
ATOM      9  C   UNL     1       6.845   4.866  13.867  0.00  0.00    +0.000 A 
ATOM     10  N   UNL     1       6.010   5.642  14.525  0.00  0.00    +0.000 NA
ATOM     11  C   UNL     1       6.524   5.601  15.799  0.00  0.00    +0.000 A 
ATOM     12  N   UNL     1       7.717   4.986  15.890  0.00  0.00    +0.000 NA
ATOM     13  O   UNL     1       7.918   4.474  14.612  0.00  0.00    +0.000 OA
BRANCH   9  14
ATOM     14  C   UNL     1       6.646   4.199  12.564  0.00  0.00    +0.000 C 
BRANCH  14  16
ATOM     15  C   UNL     1       4.447   3.373  11.536  0.00  0.00    +0.000 C 
ATOM     16  C   UNL     1       5.487   3.200  12.645  0.00  0.00    +0.000 C 
ENDBRANCH  14  16
ENDBRANCH   9  14
ENDBRANCH   8  11
ENDBRANCH   1   8
BRANCH   4  17
ATOM     17  C   UNL     1       4.467   2.046  19.432  0.00  0.00    +0.000 C 
BRANCH  17  18
ATOM     18  C   UNL     1       3.021   2.358  19.750  0.00  0.00    +0.000 A 
ATOM     19  C   UNL     1       2.628   2.939  20.968  0.00  0.00    +0.000 A 
ATOM     20  C   UNL     1       1.285   3.254  21.213  0.00  0.00    +0.000 A 
ATOM     21  C   UNL     1       0.319   3.009  20.237  0.00  0.00    +0.000 A 
ATOM     22  C   UNL     1       0.698   2.450  19.020  0.00  0.00    +0.000 A 
ATOM     23  C   UNL     1       2.036   2.133  18.785  0.00  0.00    +0.000 A 
ATOM     24  F   UNL     1       2.370   1.599  17.602  0.00  0.00    +0.000 F 
ENDBRANCH  17  18
ENDBRANCH   4  17
TORSDOF 7
ENDMDL
MODEL 7
REMARK VINA RESULT:      -7.4      1.034      1.456
REMARK  Name = 
REMARK  9 active torsions:
REMARK  status: ('A' for Active; 'I' for Inactive)
REMARK    1  A    between atoms: C_1  and  C_2
REMARK    2  A    between atoms: C_2  and  C_3
REMARK    3  A    between atoms: C_3  and  C_4
REMARK    4  A    between atoms: C_6  and  C_7
REMARK    5  A    between atoms: C_7  and  N_8
REMARK    6  A    between atoms: N_8  and  C_9
REMARK    7  A    between atoms: C_9  and  C_10
REMARK    8  A    between atoms: N_13  and  C_14
REMARK    9  A    between atoms: C_14  and  C_15
REMARK                            x       y       z     vdW  Elec       q    Type
REMARK                         _______ _______ _______ _____ _____    ______ ____
ROOT
ATOM      1  N   UNL     1       5.686   5.474  17.117  0.00  0.00    +0.000 N 
ATOM      2  C   UNL     1       4.372   4.988  17.250  0.00  0.00    +0.000 C 
ATOM      3  O   UNL     1       3.989   3.916  16.797  0.00  0.00    +0.000 OA
ATOM      4  N   UNL     1       3.549   5.852  17.936  0.00  0.00    +0.000 N 
ATOM      5  H   UNL     1       3.970   6.380  18.677  0.00  0.00    +0.000 HD
ENDROOT
BRANCH   1   6
ATOM      6  C   UNL     1       6.028   6.829  17.552  0.00  0.00    +0.000 C 
ATOM      7  C   UNL     1       7.464   7.304  17.543  0.00  0.00    +0.000 C 
ENDBRANCH   1   6
BRANCH   1   8
ATOM      8  C   UNL     1       6.689   4.577  16.512  0.00  0.00    +0.000 C 
BRANCH   8  11
ATOM      9  C   UNL     1       6.236   3.967  13.052  0.00  0.00    +0.000 A 
ATOM     10  N   UNL     1       5.717   3.907  14.260  0.00  0.00    +0.000 NA
ATOM     11  C   UNL     1       6.670   4.550  15.014  0.00  0.00    +0.000 A 
ATOM     12  N   UNL     1       7.636   5.142  14.288  0.00  0.00    +0.000 NA
ATOM     13  O   UNL     1       7.363   4.732  12.987  0.00  0.00    +0.000 OA
BRANCH   9  14
ATOM     14  C   UNL     1       5.903   3.149  11.868  0.00  0.00    +0.000 C 
BRANCH  14  16
ATOM     15  C   UNL     1       3.528   2.776  10.977  0.00  0.00    +0.000 C 
ATOM     16  C   UNL     1       4.703   3.745  11.125  0.00  0.00    +0.000 C 
ENDBRANCH  14  16
ENDBRANCH   9  14
ENDBRANCH   8  11
ENDBRANCH   1   8
BRANCH   4  17
ATOM     17  C   UNL     1       2.134   5.620  18.145  0.00  0.00    +0.000 C 
BRANCH  17  18
ATOM     18  C   UNL     1       1.903   4.551  19.191  0.00  0.00    +0.000 A 
ATOM     19  C   UNL     1       1.512   3.243  18.856  0.00  0.00    +0.000 A 
ATOM     20  C   UNL     1       1.349   2.267  19.847  0.00  0.00    +0.000 A 
ATOM     21  C   UNL     1       1.590   2.579  21.184  0.00  0.00    +0.000 A 
ATOM     22  C   UNL     1       1.994   3.867  21.528  0.00  0.00    +0.000 A 
ATOM     23  C   UNL     1       2.148   4.835  20.537  0.00  0.00    +0.000 A 
ATOM     24  F   UNL     1       2.541   6.064  20.899  0.00  0.00    +0.000 F 
ENDBRANCH  17  18
ENDBRANCH   4  17
TORSDOF 7
ENDMDL
MODEL 8
REMARK VINA RESULT:      -7.2      5.012      7.850
REMARK  Name = 
REMARK  9 active torsions:
REMARK  status: ('A' for Active; 'I' for Inactive)
REMARK    1  A    between atoms: C_1  and  C_2
REMARK    2  A    between atoms: C_2  and  C_3
REMARK    3  A    between atoms: C_3  and  C_4
REMARK    4  A    between atoms: C_6  and  C_7
REMARK    5  A    between atoms: C_7  and  N_8
REMARK    6  A    between atoms: N_8  and  C_9
REMARK    7  A    between atoms: C_9  and  C_10
REMARK    8  A    between atoms: N_13  and  C_14
REMARK    9  A    between atoms: C_14  and  C_15
REMARK                            x       y       z     vdW  Elec       q    Type
REMARK                         _______ _______ _______ _____ _____    ______ ____
ROOT
ATOM      1  N   UNL     1       1.328   9.246  19.533  0.00  0.00    +0.000 N 
ATOM      2  C   UNL     1       1.986   8.477  18.556  0.00  0.00    +0.000 C 
ATOM      3  O   UNL     1       2.243   8.879  17.427  0.00  0.00    +0.000 OA
ATOM      4  N   UNL     1       2.306   7.213  18.995  0.00  0.00    +0.000 N 
ATOM      5  H   UNL     1       2.557   7.124  19.962  0.00  0.00    +0.000 HD
ENDROOT
BRANCH   1   6
ATOM      6  C   UNL     1       0.923   8.647  20.805  0.00  0.00    +0.000 C 
ATOM      7  C   UNL     1       1.270   9.314  22.119  0.00  0.00    +0.000 C 
ENDBRANCH   1   6
BRANCH   1   8
ATOM      8  C   UNL     1       1.052  10.661  19.219  0.00  0.00    +0.000 C 
BRANCH   8  11
ATOM      9  C   UNL     1      -2.287  10.615  18.035  0.00  0.00    +0.000 A 
ATOM     10  N   UNL     1      -1.339   9.978  18.690  0.00  0.00    +0.000 NA
ATOM     11  C   UNL     1      -0.349  10.929  18.759  0.00  0.00    +0.000 A 
ATOM     12  N   UNL     1      -0.729  12.149  18.337  0.00  0.00    +0.000 NA
ATOM     13  O   UNL     1      -2.007  11.934  17.831  0.00  0.00    +0.000 OA
BRANCH   9  14
ATOM     14  C   UNL     1      -3.445  10.048  17.314  0.00  0.00    +0.000 C 
BRANCH  14  16
ATOM     15  C   UNL     1      -2.942  10.150  14.802  0.00  0.00    +0.000 C 
ATOM     16  C   UNL     1      -3.665  10.788  15.990  0.00  0.00    +0.000 C 
ENDBRANCH  14  16
ENDBRANCH   9  14
ENDBRANCH   8  11
ENDBRANCH   1   8
BRANCH   4  17
ATOM     17  C   UNL     1       2.922   6.201  18.160  0.00  0.00    +0.000 C 
BRANCH  17  18
ATOM     18  C   UNL     1       2.384   4.824  18.483  0.00  0.00    +0.000 A 
ATOM     19  C   UNL     1       1.491   4.595  19.544  0.00  0.00    +0.000 A 
ATOM     20  C   UNL     1       0.980   3.314  19.788  0.00  0.00    +0.000 A 
ATOM     21  C   UNL     1       1.341   2.247  18.965  0.00  0.00    +0.000 A 
ATOM     22  C   UNL     1       2.212   2.464  17.901  0.00  0.00    +0.000 A 
ATOM     23  C   UNL     1       2.722   3.741  17.668  0.00  0.00    +0.000 A 
ATOM     24  F   UNL     1       3.555   3.918  16.633  0.00  0.00    +0.000 F 
ENDBRANCH  17  18
ENDBRANCH   4  17
TORSDOF 7
ENDMDL
MODEL 9
REMARK VINA RESULT:      -7.2      2.418      5.090
REMARK  Name = 
REMARK  9 active torsions:
REMARK  status: ('A' for Active; 'I' for Inactive)
REMARK    1  A    between atoms: C_1  and  C_2
REMARK    2  A    between atoms: C_2  and  C_3
REMARK    3  A    between atoms: C_3  and  C_4
REMARK    4  A    between atoms: C_6  and  C_7
REMARK    5  A    between atoms: C_7  and  N_8
REMARK    6  A    between atoms: N_8  and  C_9
REMARK    7  A    between atoms: C_9  and  C_10
REMARK    8  A    between atoms: N_13  and  C_14
REMARK    9  A    between atoms: C_14  and  C_15
REMARK                            x       y       z     vdW  Elec       q    Type
REMARK                         _______ _______ _______ _____ _____    ______ ____
ROOT
ATOM      1  N   UNL     1       5.857   4.399  16.597  0.00  0.00    +0.000 N 
ATOM      2  C   UNL     1       4.902   4.366  17.630  0.00  0.00    +0.000 C 
ATOM      3  O   UNL     1       5.181   4.390  18.822  0.00  0.00    +0.000 OA
ATOM      4  N   UNL     1       3.609   4.292  17.162  0.00  0.00    +0.000 N 
ATOM      5  H   UNL     1       3.413   4.777  16.307  0.00  0.00    +0.000 HD
ENDROOT
BRANCH   1   6
ATOM      6  C   UNL     1       5.454   4.214  15.203  0.00  0.00    +0.000 C 
ATOM      7  C   UNL     1       6.439   4.441  14.077  0.00  0.00    +0.000 C 
ENDBRANCH   1   6
BRANCH   1   8
ATOM      8  C   UNL     1       7.267   4.608  16.977  0.00  0.00    +0.000 C 
BRANCH   8  11
ATOM      9  C   UNL     1       7.862   8.001  17.805  0.00  0.00    +0.000 A 
ATOM     10  N   UNL     1       7.237   7.150  17.019  0.00  0.00    +0.000 NA
ATOM     11  C   UNL     1       7.547   5.943  17.598  0.00  0.00    +0.000 A 
ATOM     12  N   UNL     1       8.174   6.049  18.784  0.00  0.00    +0.000 NA
ATOM     13  O   UNL     1       8.407   7.414  18.909  0.00  0.00    +0.000 OA
BRANCH   9  14
ATOM     14  C   UNL     1       8.239   9.402  17.526  0.00  0.00    +0.000 C 
BRANCH  14  16
ATOM     15  C   UNL     1      10.019  11.020  18.414  0.00  0.00    +0.000 C 
ATOM     16  C   UNL     1       8.900  10.033  18.756  0.00  0.00    +0.000 C 
ENDBRANCH  14  16
ENDBRANCH   9  14
ENDBRANCH   8  11
ENDBRANCH   1   8
BRANCH   4  17
ATOM     17  C   UNL     1       2.447   4.173  18.020  0.00  0.00    +0.000 C 
BRANCH  17  18
ATOM     18  C   UNL     1       2.229   5.437  18.822  0.00  0.00    +0.000 A 
ATOM     19  C   UNL     1       2.384   6.718  18.265  0.00  0.00    +0.000 A 
ATOM     20  C   UNL     1       2.132   7.866  19.026  0.00  0.00    +0.000 A 
ATOM     21  C   UNL     1       1.705   7.752  20.348  0.00  0.00    +0.000 A 
ATOM     22  C   UNL     1       1.532   6.488  20.907  0.00  0.00    +0.000 A 
ATOM     23  C   UNL     1       1.791   5.349  20.146  0.00  0.00    +0.000 A 
ATOM     24  F   UNL     1       1.612   4.147  20.711  0.00  0.00    +0.000 F 
ENDBRANCH  17  18
ENDBRANCH   4  17
TORSDOF 7
ENDMDL
