MODEL 1
REMARK VINA RESULT:      -8.1      0.000      0.000
REMARK  Name = 
REMARK  4 active torsions:
REMARK  status: ('A' for Active; 'I' for Inactive)
REMARK    1  A    between atoms: C_1  and  O_2
REMARK    2  A    between atoms: O_2  and  C_3
REMARK    3  A    between atoms: C_9  and  C_10
REMARK    4  A    between atoms: N_12  and  C_13
REMARK                            x       y       z     vdW  Elec       q    Type
REMARK                         _______ _______ _______ _____ _____    ______ ____
ROOT
ATOM      1  C   UNL     1      -0.285  11.507  20.959  0.00  0.00    +0.000 A 
ATOM      2  C   UNL     1      -0.776  11.513  22.266  0.00  0.00    +0.000 A 
ATOM      3  C   UNL     1      -0.636  10.387  23.084  0.00  0.00    +0.000 A 
ATOM      4  C   UNL     1       0.018   9.250  22.605  0.00  0.00    +0.000 A 
ATOM      5  C   UNL     1       0.533   9.236  21.306  0.00  0.00    +0.000 A 
ATOM      6  C   UNL     1       1.261   8.094  20.779  0.00  0.00    +0.000 A 
ATOM      7  C   UNL     1       1.741   8.087  19.523  0.00  0.00    +0.000 A 
ATOM      8  C   UNL     1       1.544   9.249  18.650  0.00  0.00    +0.000 A 
ATOM      9  O   UNL     1       1.932   9.266  17.480  0.00  0.00    +0.000 OA
ATOM     10  O   UNL     1       0.916  10.347  19.204  0.00  0.00    +0.000 OA
ATOM     11  C   UNL     1       0.370  10.360  20.499  0.00  0.00    +0.000 A 
ENDROOT
BRANCH   7  12
ATOM     12  C   UNL     1       2.477   6.869  19.083  0.00  0.00    +0.000 C 
ATOM     13  O   UNL     1       3.524   7.012  18.442  0.00  0.00    +0.000 OA
ATOM     14  N   UNL     1       1.914   5.653  19.419  0.00  0.00    +0.000 N 
ATOM     15  H   UNL     1       1.031   5.666  19.933  0.00  0.00    +0.000 HD
BRANCH  14  16
ATOM     16  C   UNL     1       2.430   4.383  19.084  0.00  0.00    +0.000 A 
ATOM     17  C   UNL     1       2.051   3.702  17.921  0.00  0.00    +0.000 A 
ATOM     18  C   UNL     1       2.568   2.441  17.623  0.00  0.00    +0.000 A 
ATOM     19  C   UNL     1       3.469   1.856  18.498  0.00  0.00    +0.000 A 
ATOM     20  F   UNL     1       3.960   0.643  18.212  0.00  0.00    +0.000 F 
ATOM     21  C   UNL     1       3.855   2.519  19.654  0.00  0.00    +0.000 A 
ATOM     22  F   UNL     1       4.713   1.938  20.505  0.00  0.00    +0.000 F 
ATOM     23  C   UNL     1       3.348   3.785  19.952  0.00  0.00    +0.000 A 
ENDBRANCH  14  16
ENDBRANCH   7  12
BRANCH   1  25
ATOM     24  C   UNL     1      -1.212  13.687  20.913  0.00  0.00    +0.000 C 
ATOM     25  O   UNL     1      -0.431  12.683  20.273  0.00  0.00    +0.000 OA
ENDBRANCH   1  25
TORSDOF 3
ENDMDL
MODEL 2
REMARK VINA RESULT:      -8.0      5.549      8.704
REMARK  Name = 
REMARK  4 active torsions:
REMARK  status: ('A' for Active; 'I' for Inactive)
REMARK    1  A    between atoms: C_1  and  O_2
REMARK    2  A    between atoms: O_2  and  C_3
REMARK    3  A    between atoms: C_9  and  C_10
REMARK    4  A    between atoms: N_12  and  C_13
REMARK                            x       y       z     vdW  Elec       q    Type
REMARK                         _______ _______ _______ _____ _____    ______ ____
ROOT
ATOM      1  C   UNL     1       7.722   5.075  12.982  0.00  0.00    +0.000 A 
ATOM      2  C   UNL     1       7.218   4.344  11.904  0.00  0.00    +0.000 A 
ATOM      3  C   UNL     1       6.187   3.419  12.094  0.00  0.00    +0.000 A 
ATOM      4  C   UNL     1       5.636   3.232  13.363  0.00  0.00    +0.000 A 
ATOM      5  C   UNL     1       6.117   3.971  14.447  0.00  0.00    +0.000 A 
ATOM      6  C   UNL     1       5.546   3.845  15.778  0.00  0.00    +0.000 A 
ATOM      7  C   UNL     1       6.025   4.552  16.817  0.00  0.00    +0.000 A 
ATOM      8  C   UNL     1       7.143   5.482  16.625  0.00  0.00    +0.000 A 
ATOM      9  O   UNL     1       7.638   6.117  17.558  0.00  0.00    +0.000 OA
ATOM     10  O   UNL     1       7.613   5.636  15.336  0.00  0.00    +0.000 OA
ATOM     11  C   UNL     1       7.156   4.877  14.245  0.00  0.00    +0.000 A 
ENDROOT
BRANCH   7  12
ATOM     12  C   UNL     1       5.365   4.353  18.137  0.00  0.00    +0.000 C 
ATOM     13  O   UNL     1       5.983   4.668  19.160  0.00  0.00    +0.000 OA
ATOM     14  N   UNL     1       4.095   3.808  18.116  0.00  0.00    +0.000 N 
ATOM     15  H   UNL     1       3.699   3.568  17.205  0.00  0.00    +0.000 HD
BRANCH  14  16
ATOM     16  C   UNL     1       3.302   3.516  19.246  0.00  0.00    +0.000 A 
ATOM     17  C   UNL     1       3.665   2.544  20.186  0.00  0.00    +0.000 A 
ATOM     18  C   UNL     1       2.855   2.269  21.287  0.00  0.00    +0.000 A 
ATOM     19  C   UNL     1       1.669   2.968  21.446  0.00  0.00    +0.000 A 
ATOM     20  F   UNL     1       0.890   2.697  22.501  0.00  0.00    +0.000 F 
ATOM     21  C   UNL     1       1.297   3.935  20.523  0.00  0.00    +0.000 A 
ATOM     22  F   UNL     1       0.140   4.595  20.674  0.00  0.00    +0.000 F 
ATOM     23  C   UNL     1       2.109   4.221  19.425  0.00  0.00    +0.000 A 
ENDBRANCH  14  16
ENDBRANCH   7  12
BRANCH   1  25
ATOM     24  C   UNL     1       8.464   6.763  11.492  0.00  0.00    +0.000 C 
ATOM     25  O   UNL     1       8.692   5.990  12.667  0.00  0.00    +0.000 OA
ENDBRANCH   1  25
TORSDOF 3
ENDMDL
MODEL 3
REMARK VINA RESULT:      -7.9      2.086      2.317
REMARK  Name = 
REMARK  4 active torsions:
REMARK  status: ('A' for Active; 'I' for Inactive)
REMARK    1  A    between atoms: C_1  and  O_2
REMARK    2  A    between atoms: O_2  and  C_3
REMARK    3  A    between atoms: C_9  and  C_10
REMARK    4  A    between atoms: N_12  and  C_13
REMARK                            x       y       z     vdW  Elec       q    Type
REMARK                         _______ _______ _______ _____ _____    ______ ____
ROOT
ATOM      1  C   UNL     1      -0.584  11.477  21.083  0.00  0.00    +0.000 A 
ATOM      2  C   UNL     1      -1.054  11.445  22.397  0.00  0.00    +0.000 A 
ATOM      3  C   UNL     1      -0.813  10.334  23.211  0.00  0.00    +0.000 A 
ATOM      4  C   UNL     1      -0.080   9.252  22.721  0.00  0.00    +0.000 A 
ATOM      5  C   UNL     1       0.415   9.278  21.414  0.00  0.00    +0.000 A 
ATOM      6  C   UNL     1       1.222   8.196  20.875  0.00  0.00    +0.000 A 
ATOM      7  C   UNL     1       1.681   8.227  19.611  0.00  0.00    +0.000 A 
ATOM      8  C   UNL     1       1.379   9.370  18.742  0.00  0.00    +0.000 A 
ATOM      9  O   UNL     1       1.747   9.417  17.567  0.00  0.00    +0.000 OA
ATOM     10  O   UNL     1       0.677  10.415  19.307  0.00  0.00    +0.000 OA
ATOM     11  C   UNL     1       0.151  10.385  20.611  0.00  0.00    +0.000 A 
ENDROOT
BRANCH   7  12
ATOM     12  C   UNL     1       2.504   7.070  19.158  0.00  0.00    +0.000 C 
ATOM     13  O   UNL     1       2.613   6.095  19.907  0.00  0.00    +0.000 OA
ATOM     14  N   UNL     1       3.104   7.188  17.919  0.00  0.00    +0.000 N 
ATOM     15  H   UNL     1       2.955   8.058  17.402  0.00  0.00    +0.000 HD
BRANCH  14  16
ATOM     16  C   UNL     1       3.939   6.228  17.310  0.00  0.00    +0.000 A 
ATOM     17  C   UNL     1       4.979   6.581  16.441  0.00  0.00    +0.000 A 
ATOM     18  C   UNL     1       5.781   5.608  15.845  0.00  0.00    +0.000 A 
ATOM     19  C   UNL     1       5.538   4.271  16.117  0.00  0.00    +0.000 A 
ATOM     20  F   UNL     1       6.305   3.339  15.538  0.00  0.00    +0.000 F 
ATOM     21  C   UNL     1       4.512   3.907  16.976  0.00  0.00    +0.000 A 
ATOM     22  F   UNL     1       4.271   2.610  17.221  0.00  0.00    +0.000 F 
ATOM     23  C   UNL     1       3.713   4.876  17.584  0.00  0.00    +0.000 A 
ENDBRANCH  14  16
ENDBRANCH   7  12
BRANCH   1  25
ATOM     24  C   UNL     1      -2.086  12.710  19.725  0.00  0.00    +0.000 C 
ATOM     25  O   UNL     1      -0.833  12.638  20.399  0.00  0.00    +0.000 OA
ENDBRANCH   1  25
TORSDOF 3
ENDMDL
MODEL 4
REMARK VINA RESULT:      -7.9      2.711      2.803
REMARK  Name = 
REMARK  4 active torsions:
REMARK  status: ('A' for Active; 'I' for Inactive)
REMARK    1  A    between atoms: C_1  and  O_2
REMARK    2  A    between atoms: O_2  and  C_3
REMARK    3  A    between atoms: C_9  and  C_10
REMARK    4  A    between atoms: N_12  and  C_13
REMARK                            x       y       z     vdW  Elec       q    Type
REMARK                         _______ _______ _______ _____ _____    ______ ____
ROOT
ATOM      1  C   UNL     1      -0.443  11.153  21.035  0.00  0.00    +0.000 A 
ATOM      2  C   UNL     1      -0.869  10.999  22.355  0.00  0.00    +0.000 A 
ATOM      3  C   UNL     1      -0.544   9.846  23.077  0.00  0.00    +0.000 A 
ATOM      4  C   UNL     1       0.230   8.845  22.488  0.00  0.00    +0.000 A 
ATOM      5  C   UNL     1       0.681   8.993  21.174  0.00  0.00    +0.000 A 
ATOM      6  C   UNL     1       1.527   8.001  20.533  0.00  0.00    +0.000 A 
ATOM      7  C   UNL     1       1.945   8.149  19.263  0.00  0.00    +0.000 A 
ATOM      8  C   UNL     1       1.556   9.334  18.491  0.00  0.00    +0.000 A 
ATOM      9  O   UNL     1       1.883   9.487  17.312  0.00  0.00    +0.000 OA
ATOM     10  O   UNL     1       0.817  10.295  19.151  0.00  0.00    +0.000 OA
ATOM     11  C   UNL     1       0.334  10.141  20.463  0.00  0.00    +0.000 A 
ENDROOT
BRANCH   7  12
ATOM     12  C   UNL     1       2.813   7.076  18.702  0.00  0.00    +0.000 C 
ATOM     13  O   UNL     1       2.572   5.903  19.005  0.00  0.00    +0.000 OA
ATOM     14  N   UNL     1       3.850   7.486  17.886  0.00  0.00    +0.000 N 
ATOM     15  H   UNL     1       3.960   8.490  17.729  0.00  0.00    +0.000 HD
BRANCH  14  16
ATOM     16  C   UNL     1       4.801   6.644  17.272  0.00  0.00    +0.000 A 
ATOM     17  C   UNL     1       4.809   6.402  15.893  0.00  0.00    +0.000 A 
ATOM     18  C   UNL     1       5.754   5.554  15.315  0.00  0.00    +0.000 A 
ATOM     19  C   UNL     1       6.696   4.940  16.125  0.00  0.00    +0.000 A 
ATOM     20  F   UNL     1       7.598   4.122  15.569  0.00  0.00    +0.000 F 
ATOM     21  C   UNL     1       6.701   5.171  17.493  0.00  0.00    +0.000 A 
ATOM     22  F   UNL     1       7.604   4.559  18.273  0.00  0.00    +0.000 F 
ATOM     23  C   UNL     1       5.764   6.026  18.074  0.00  0.00    +0.000 A 
ENDBRANCH  14  16
ENDBRANCH   7  12
BRANCH   1  25
ATOM     24  C   UNL     1      -1.889  12.316  19.560  0.00  0.00    +0.000 C 
ATOM     25  O   UNL     1      -0.774  12.345  20.447  0.00  0.00    +0.000 OA
ENDBRANCH   1  25
TORSDOF 3
ENDMDL
MODEL 5
REMARK VINA RESULT:      -7.9      2.423      2.548
REMARK  Name = 
REMARK  4 active torsions:
REMARK  status: ('A' for Active; 'I' for Inactive)
REMARK    1  A    between atoms: C_1  and  O_2
REMARK    2  A    between atoms: O_2  and  C_3
REMARK    3  A    between atoms: C_9  and  C_10
REMARK    4  A    between atoms: N_12  and  C_13
REMARK                            x       y       z     vdW  Elec       q    Type
REMARK                         _______ _______ _______ _____ _____    ______ ____
ROOT
ATOM      1  C   UNL     1      -0.535  11.544  21.072  0.00  0.00    +0.000 A 
ATOM      2  C   UNL     1      -1.030  11.527  22.378  0.00  0.00    +0.000 A 
ATOM      3  C   UNL     1      -0.825  10.415  23.201  0.00  0.00    +0.000 A 
ATOM      4  C   UNL     1      -0.103   9.317  22.730  0.00  0.00    +0.000 A 
ATOM      5  C   UNL     1       0.415   9.327  21.432  0.00  0.00    +0.000 A 
ATOM      6  C   UNL     1       1.211   8.228  20.912  0.00  0.00    +0.000 A 
ATOM      7  C   UNL     1       1.694   8.244  19.656  0.00  0.00    +0.000 A 
ATOM      8  C   UNL     1       1.430   9.389  18.778  0.00  0.00    +0.000 A 
ATOM      9  O   UNL     1       1.820   9.423  17.609  0.00  0.00    +0.000 OA
ATOM     10  O   UNL     1       0.737  10.449  19.325  0.00  0.00    +0.000 OA
ATOM     11  C   UNL     1       0.187  10.436  20.619  0.00  0.00    +0.000 A 
ENDROOT
BRANCH   7  12
ATOM     12  C   UNL     1       2.503   7.071  19.224  0.00  0.00    +0.000 C 
ATOM     13  O   UNL     1       2.540   6.077  19.957  0.00  0.00    +0.000 OA
ATOM     14  N   UNL     1       3.174   7.193  18.022  0.00  0.00    +0.000 N 
ATOM     15  H   UNL     1       3.081   8.077  17.517  0.00  0.00    +0.000 HD
BRANCH  14  16
ATOM     16  C   UNL     1       4.010   6.218  17.439  0.00  0.00    +0.000 A 
ATOM     17  C   UNL     1       3.591   4.898  17.231  0.00  0.00    +0.000 A 
ATOM     18  C   UNL     1       4.444   3.952  16.663  0.00  0.00    +0.000 A 
ATOM     19  C   UNL     1       5.729   4.329  16.305  0.00  0.00    +0.000 A 
ATOM     20  F   UNL     1       6.547   3.417  15.765  0.00  0.00    +0.000 F 
ATOM     21  C   UNL     1       6.157   5.633  16.504  0.00  0.00    +0.000 A 
ATOM     22  F   UNL     1       7.407   5.985  16.171  0.00  0.00    +0.000 F 
ATOM     23  C   UNL     1       5.304   6.586  17.062  0.00  0.00    +0.000 A 
ENDBRANCH  14  16
ENDBRANCH   7  12
BRANCH   1  25
ATOM     24  C   UNL     1       0.062  13.815  20.754  0.00  0.00    +0.000 C 
ATOM     25  O   UNL     1      -0.750  12.706  20.380  0.00  0.00    +0.000 OA
ENDBRANCH   1  25
TORSDOF 3
ENDMDL
MODEL 6
REMARK VINA RESULT:      -7.8      5.352      8.527
REMARK  Name = 
REMARK  4 active torsions:
REMARK  status: ('A' for Active; 'I' for Inactive)
REMARK    1  A    between atoms: C_1  and  O_2
REMARK    2  A    between atoms: O_2  and  C_3
REMARK    3  A    between atoms: C_9  and  C_10
REMARK    4  A    between atoms: N_12  and  C_13
REMARK                            x       y       z     vdW  Elec       q    Type
REMARK                         _______ _______ _______ _____ _____    ______ ____
ROOT
ATOM      1  C   UNL     1       7.699   5.113  12.983  0.00  0.00    +0.000 A 
ATOM      2  C   UNL     1       7.239   4.364  11.898  0.00  0.00    +0.000 A 
ATOM      3  C   UNL     1       6.158   3.490  12.045  0.00  0.00    +0.000 A 
ATOM      4  C   UNL     1       5.513   3.373  13.278  0.00  0.00    +0.000 A 
ATOM      5  C   UNL     1       5.950   4.130  14.368  0.00  0.00    +0.000 A 
ATOM      6  C   UNL     1       5.283   4.078  15.659  0.00  0.00    +0.000 A 
ATOM      7  C   UNL     1       5.721   4.802  16.704  0.00  0.00    +0.000 A 
ATOM      8  C   UNL     1       6.889   5.677  16.560  0.00  0.00    +0.000 A 
ATOM      9  O   UNL     1       7.346   6.325  17.504  0.00  0.00    +0.000 OA
ATOM     10  O   UNL     1       7.453   5.764  15.303  0.00  0.00    +0.000 OA
ATOM     11  C   UNL     1       7.039   4.985  14.209  0.00  0.00    +0.000 A 
ENDROOT
BRANCH   7  12
ATOM     12  C   UNL     1       4.963   4.680  17.981  0.00  0.00    +0.000 C 
ATOM     13  O   UNL     1       5.330   5.350  18.952  0.00  0.00    +0.000 OA
ATOM     14  N   UNL     1       3.899   3.798  17.984  0.00  0.00    +0.000 N 
ATOM     15  H   UNL     1       3.709   3.283  17.122  0.00  0.00    +0.000 HD
BRANCH  14  16
ATOM     16  C   UNL     1       3.065   3.513  19.086  0.00  0.00    +0.000 A 
ATOM     17  C   UNL     1       1.755   3.997  19.180  0.00  0.00    +0.000 A 
ATOM     18  C   UNL     1       0.958   3.709  20.288  0.00  0.00    +0.000 A 
ATOM     19  C   UNL     1       1.478   2.934  21.312  0.00  0.00    +0.000 A 
ATOM     20  F   UNL     1       0.713   2.664  22.377  0.00  0.00    +0.000 F 
ATOM     21  C   UNL     1       2.774   2.447  21.233  0.00  0.00    +0.000 A 
ATOM     22  F   UNL     1       3.277   1.713  22.236  0.00  0.00    +0.000 F 
ATOM     23  C   UNL     1       3.573   2.724  20.122  0.00  0.00    +0.000 A 
ENDBRANCH  14  16
ENDBRANCH   7  12
BRANCH   1  25
ATOM     24  C   UNL     1       8.567   6.787  11.546  0.00  0.00    +0.000 C 
ATOM     25  O   UNL     1       8.727   5.974  12.706  0.00  0.00    +0.000 OA
ENDBRANCH   1  25
TORSDOF 3
ENDMDL
MODEL 7
REMARK VINA RESULT:      -7.8      4.410      8.618
REMARK  Name = 
REMARK  4 active torsions:
REMARK  status: ('A' for Active; 'I' for Inactive)
REMARK    1  A    between atoms: C_1  and  O_2
REMARK    2  A    between atoms: O_2  and  C_3
REMARK    3  A    between atoms: C_9  and  C_10
REMARK    4  A    between atoms: N_12  and  C_13
REMARK                            x       y       z     vdW  Elec       q    Type
REMARK                         _______ _______ _______ _____ _____    ______ ____
ROOT
ATOM      1  C   UNL     1       5.042   4.358  18.557  0.00  0.00    +0.000 A 
ATOM      2  C   UNL     1       5.933   4.159  17.501  0.00  0.00    +0.000 A 
ATOM      3  C   UNL     1       5.975   5.057  16.429  0.00  0.00    +0.000 A 
ATOM      4  C   UNL     1       5.138   6.174  16.416  0.00  0.00    +0.000 A 
ATOM      5  C   UNL     1       4.256   6.397  17.476  0.00  0.00    +0.000 A 
ATOM      6  C   UNL     1       3.398   7.569  17.531  0.00  0.00    +0.000 A 
ATOM      7  C   UNL     1       2.542   7.765  18.550  0.00  0.00    +0.000 A 
ATOM      8  C   UNL     1       2.462   6.793  19.645  0.00  0.00    +0.000 A 
ATOM      9  O   UNL     1       1.664   6.916  20.576  0.00  0.00    +0.000 OA
ATOM     10  O   UNL     1       3.343   5.732  19.604  0.00  0.00    +0.000 OA
ATOM     11  C   UNL     1       4.214   5.484  18.529  0.00  0.00    +0.000 A 
ENDROOT
BRANCH   7  12
ATOM     12  C   UNL     1       1.712   9.002  18.512  0.00  0.00    +0.000 C 
ATOM     13  O   UNL     1       1.680   9.659  17.467  0.00  0.00    +0.000 OA
ATOM     14  N   UNL     1       1.044   9.331  19.676  0.00  0.00    +0.000 N 
ATOM     15  H   UNL     1       1.169   8.717  20.484  0.00  0.00    +0.000 HD
BRANCH  14  16
ATOM     16  C   UNL     1       0.226  10.465  19.866  0.00  0.00    +0.000 A 
ATOM     17  C   UNL     1       0.593  11.523  20.707  0.00  0.00    +0.000 A 
ATOM     18  C   UNL     1      -0.242  12.625  20.885  0.00  0.00    +0.000 A 
ATOM     19  C   UNL     1      -1.457  12.668  20.220  0.00  0.00    +0.000 A 
ATOM     20  F   UNL     1      -2.259  13.725  20.398  0.00  0.00    +0.000 F 
ATOM     21  C   UNL     1      -1.834  11.628  19.383  0.00  0.00    +0.000 A 
ATOM     22  F   UNL     1      -3.019  11.668  18.757  0.00  0.00    +0.000 F 
ATOM     23  C   UNL     1      -0.997  10.527  19.193  0.00  0.00    +0.000 A 
ENDBRANCH  14  16
ENDBRANCH   7  12
BRANCH   1  25
ATOM     24  C   UNL     1       4.174   2.388  19.550  0.00  0.00    +0.000 C 
ATOM     25  O   UNL     1       5.129   3.446  19.575  0.00  0.00    +0.000 OA
ENDBRANCH   1  25
TORSDOF 3
ENDMDL
MODEL 8
REMARK VINA RESULT:      -7.7      4.403      8.562
REMARK  Name = 
REMARK  4 active torsions:
REMARK  status: ('A' for Active; 'I' for Inactive)
REMARK    1  A    between atoms: C_1  and  O_2
REMARK    2  A    between atoms: O_2  and  C_3
REMARK    3  A    between atoms: C_9  and  C_10
REMARK    4  A    between atoms: N_12  and  C_13
REMARK                            x       y       z     vdW  Elec       q    Type
REMARK                         _______ _______ _______ _____ _____    ______ ____
ROOT
ATOM      1  C   UNL     1       5.052   4.365  18.470  0.00  0.00    +0.000 A 
ATOM      2  C   UNL     1       5.921   4.165  17.396  0.00  0.00    +0.000 A 
ATOM      3  C   UNL     1       5.944   5.062  16.323  0.00  0.00    +0.000 A 
ATOM      4  C   UNL     1       5.110   6.181  16.327  0.00  0.00    +0.000 A 
ATOM      5  C   UNL     1       4.248   6.405  17.404  0.00  0.00    +0.000 A 
ATOM      6  C   UNL     1       3.394   7.579  17.474  0.00  0.00    +0.000 A 
ATOM      7  C   UNL     1       2.559   7.778  18.510  0.00  0.00    +0.000 A 
ATOM      8  C   UNL     1       2.499   6.806  19.607  0.00  0.00    +0.000 A 
ATOM      9  O   UNL     1       1.719   6.931  20.553  0.00  0.00    +0.000 OA
ATOM     10  O   UNL     1       3.377   5.743  19.549  0.00  0.00    +0.000 OA
ATOM     11  C   UNL     1       4.226   5.493  18.457  0.00  0.00    +0.000 A 
ENDROOT
BRANCH   7  12
ATOM     12  C   UNL     1       1.731   9.016  18.489  0.00  0.00    +0.000 C 
ATOM     13  O   UNL     1       1.770   9.734  17.484  0.00  0.00    +0.000 OA
ATOM     14  N   UNL     1       0.983   9.277  19.621  0.00  0.00    +0.000 N 
ATOM     15  H   UNL     1       1.054   8.616  20.397  0.00  0.00    +0.000 HD
BRANCH  14  16
ATOM     16  C   UNL     1       0.151  10.399  19.821  0.00  0.00    +0.000 A 
ATOM     17  C   UNL     1      -1.069  10.557  19.152  0.00  0.00    +0.000 A 
ATOM     18  C   UNL     1      -1.864  11.683  19.361  0.00  0.00    +0.000 A 
ATOM     19  C   UNL     1      -1.434  12.661  20.243  0.00  0.00    +0.000 A 
ATOM     20  F   UNL     1      -2.197  13.744  20.437  0.00  0.00    +0.000 F 
ATOM     21  C   UNL     1      -0.228  12.518  20.914  0.00  0.00    +0.000 A 
ATOM     22  F   UNL     1       0.190  13.477  21.753  0.00  0.00    +0.000 F 
ATOM     23  C   UNL     1       0.567  11.388  20.716  0.00  0.00    +0.000 A 
ENDBRANCH  14  16
ENDBRANCH   7  12
BRANCH   1  25
ATOM     24  C   UNL     1       4.163   2.432  19.514  0.00  0.00    +0.000 C 
ATOM     25  O   UNL     1       5.156   3.453  19.486  0.00  0.00    +0.000 OA
ENDBRANCH   1  25
TORSDOF 3
ENDMDL
MODEL 9
REMARK VINA RESULT:      -7.7      4.517      8.433
REMARK  Name = 
REMARK  4 active torsions:
REMARK  status: ('A' for Active; 'I' for Inactive)
REMARK    1  A    between atoms: C_1  and  O_2
REMARK    2  A    between atoms: O_2  and  C_3
REMARK    3  A    between atoms: C_9  and  C_10
REMARK    4  A    between atoms: N_12  and  C_13
REMARK                            x       y       z     vdW  Elec       q    Type
REMARK                         _______ _______ _______ _____ _____    ______ ____
ROOT
ATOM      1  C   UNL     1       3.118   3.548  19.984  0.00  0.00    +0.000 A 
ATOM      2  C   UNL     1       3.698   2.692  19.047  0.00  0.00    +0.000 A 
ATOM      3  C   UNL     1       3.915   3.119  17.733  0.00  0.00    +0.000 A 
ATOM      4  C   UNL     1       3.569   4.416  17.351  0.00  0.00    +0.000 A 
ATOM      5  C   UNL     1       3.005   5.291  18.283  0.00  0.00    +0.000 A 
ATOM      6  C   UNL     1       2.671   6.665  17.946  0.00  0.00    +0.000 A 
ATOM      7  C   UNL     1       2.116   7.493  18.848  0.00  0.00    +0.000 A 
ATOM      8  C   UNL     1       1.841   7.025  20.210  0.00  0.00    +0.000 A 
ATOM      9  O   UNL     1       1.297   7.740  21.054  0.00  0.00    +0.000 OA
ATOM     10  O   UNL     1       2.240   5.741  20.522  0.00  0.00    +0.000 OA
ATOM     11  C   UNL     1       2.781   4.844  19.584  0.00  0.00    +0.000 A 
ENDROOT
BRANCH   7  12
ATOM     12  C   UNL     1       1.818   8.883  18.402  0.00  0.00    +0.000 C 
ATOM     13  O   UNL     1       2.304   9.278  17.337  0.00  0.00    +0.000 OA
ATOM     14  N   UNL     1       1.020   9.641  19.238  0.00  0.00    +0.000 N 
ATOM     15  H   UNL     1       0.698   9.207  20.105  0.00  0.00    +0.000 HD
BRANCH  14  16
ATOM     16  C   UNL     1       0.634  10.981  19.021  0.00  0.00    +0.000 A 
ATOM     17  C   UNL     1      -0.613  11.325  18.485  0.00  0.00    +0.000 A 
ATOM     18  C   UNL     1      -0.961  12.658  18.270  0.00  0.00    +0.000 A 
ATOM     19  C   UNL     1      -0.053  13.655  18.590  0.00  0.00    +0.000 A 
ATOM     20  F   UNL     1      -0.389  14.934  18.378  0.00  0.00    +0.000 F 
ATOM     21  C   UNL     1       1.186  13.329  19.123  0.00  0.00    +0.000 A 
ATOM     22  F   UNL     1       2.066  14.297  19.413  0.00  0.00    +0.000 F 
ATOM     23  C   UNL     1       1.536  11.997  19.349  0.00  0.00    +0.000 A 
ENDBRANCH  14  16
ENDBRANCH   7  12
BRANCH   1  25
ATOM     24  C   UNL     1       1.711   2.577  21.627  0.00  0.00    +0.000 C 
ATOM     25  O   UNL     1       3.005   3.040  21.251  0.00  0.00    +0.000 OA
ENDBRANCH   1  25
TORSDOF 3
ENDMDL
