MODEL 1
REMARK VINA RESULT:      -8.3      0.000      0.000
REMARK  Name = 
REMARK  12 active torsions:
REMARK  status: ('A' for Active; 'I' for Inactive)
REMARK    1  A    between atoms: C_1  and  C_2
REMARK    2  A    between atoms: C_2  and  N_3
REMARK    3  A    between atoms: N_3  and  C_4
REMARK    4  A    between atoms: N_3  and  C_20
REMARK    5  A    between atoms: C_7  and  C_8
REMARK    6  A    between atoms: C_8  and  O_9
REMARK    7  A    between atoms: C_8  and  C_10
REMARK    8  A    between atoms: C_8  and  C_14
REMARK    9  A    between atoms: C_20  and  C_21
REMARK   10  A    between atoms: C_20  and  C_26
REMARK   11  A    between atoms: N_23  and  C_24
REMARK   12  A    between atoms: N_23  and  C_25
REMARK                            x       y       z     vdW  Elec       q    Type
REMARK                         _______ _______ _______ _____ _____    ______ ____
ROOT
ATOM      1  C   UNL     1       1.193   9.509  19.067  0.00  0.00    +0.000 A 
ATOM      2  C   UNL     1       1.260   8.624  20.144  0.00  0.00    +0.000 A 
ATOM      3  C   UNL     1       1.969   7.423  20.077  0.00  0.00    +0.000 A 
ATOM      4  C   UNL     1       2.576   6.999  18.887  0.00  0.00    +0.000 A 
ATOM      5  C   UNL     1       2.469   7.858  17.776  0.00  0.00    +0.000 A 
ATOM      6  C   UNL     1       1.798   9.091  17.874  0.00  0.00    +0.000 A 
ENDROOT
BRANCH   1   7
ATOM      7  N   UNL     1       0.626  10.777  19.176  0.00  0.00    +0.000 N 
BRANCH   7   9
ATOM      8  C   UNL     1       2.101  12.663  18.308  0.00  0.00    +0.000 C 
ATOM      9  C   UNL     1       1.483  11.942  19.505  0.00  0.00    +0.000 C 
ENDBRANCH   7   9
BRANCH   7  10
ATOM     10  C   UNL     1      -0.791  10.836  19.695  0.00  0.00    +0.000 C 
BRANCH  10  11
ATOM     11  C   UNL     1      -1.766  10.846  18.496  0.00  0.00    +0.000 A 
ATOM     12  C   UNL     1      -2.965  11.577  18.593  0.00  0.00    +0.000 A 
ATOM     13  C   UNL     1      -3.950  11.490  17.601  0.00  0.00    +0.000 A 
ATOM     14  C   UNL     1      -3.761  10.666  16.497  0.00  0.00    +0.000 A 
ATOM     15  C   UNL     1      -2.574   9.957  16.365  0.00  0.00    +0.000 A 
ATOM     16  C   UNL     1      -1.583  10.059  17.344  0.00  0.00    +0.000 A 
ENDBRANCH  10  11
BRANCH  10  17
ATOM     17  C   UNL     1      -0.986  12.021  20.718  0.00  0.00    +0.000 C 
ATOM     18  O   UNL     1      -1.080  13.194  20.327  0.00  0.00    +0.000 OA
ATOM     19  N   UNL     1      -1.039  11.760  22.095  0.00  0.00    +0.000 N 
ATOM     20  C   UNL     1      -0.645  10.523  22.750  0.00  0.00    +0.000 C 
ATOM     21  C   UNL     1      -1.259  12.883  23.000  0.00  0.00    +0.000 C 
ENDBRANCH  10  17
ENDBRANCH   7  10
ENDBRANCH   1   7
BRANCH   4  22
ATOM     22  C   UNL     1       3.288   5.635  18.794  0.00  0.00    +0.000 C 
BRANCH  22  23
ATOM     23  C   UNL     1       2.282   4.522  18.376  0.00  0.00    +0.000 C 
ATOM     24  F   UNL     1       1.416   4.934  17.415  0.00  0.00    +0.000 F 
ATOM     25  F   UNL     1       2.803   3.363  17.944  0.00  0.00    +0.000 F 
ATOM     26  F   UNL     1       1.490   4.209  19.446  0.00  0.00    +0.000 F 
ENDBRANCH  22  23
BRANCH  22  27
ATOM     27  C   UNL     1       4.519   5.640  17.854  0.00  0.00    +0.000 C 
ATOM     28  F   UNL     1       5.388   4.632  18.126  0.00  0.00    +0.000 F 
ATOM     29  F   UNL     1       4.152   5.462  16.556  0.00  0.00    +0.000 F 
ATOM     30  F   UNL     1       5.254   6.772  17.870  0.00  0.00    +0.000 F 
ENDBRANCH  22  27
BRANCH  22  31
ATOM     31  O   UNL     1       3.756   5.332  20.167  0.00  0.00    +0.000 OA
ATOM     32  H   UNL     1       3.557   4.391  20.342  0.00  0.00    +0.000 HD
ENDBRANCH  22  31
ENDBRANCH   4  22
TORSDOF 9
ENDMDL
MODEL 2
REMARK VINA RESULT:      -8.3      0.234      1.292
REMARK  Name = 
REMARK  12 active torsions:
REMARK  status: ('A' for Active; 'I' for Inactive)
REMARK    1  A    between atoms: C_1  and  C_2
REMARK    2  A    between atoms: C_2  and  N_3
REMARK    3  A    between atoms: N_3  and  C_4
REMARK    4  A    between atoms: N_3  and  C_20
REMARK    5  A    between atoms: C_7  and  C_8
REMARK    6  A    between atoms: C_8  and  O_9
REMARK    7  A    between atoms: C_8  and  C_10
REMARK    8  A    between atoms: C_8  and  C_14
REMARK    9  A    between atoms: C_20  and  C_21
REMARK   10  A    between atoms: C_20  and  C_26
REMARK   11  A    between atoms: N_23  and  C_24
REMARK   12  A    between atoms: N_23  and  C_25
REMARK                            x       y       z     vdW  Elec       q    Type
REMARK                         _______ _______ _______ _____ _____    ______ ____
ROOT
ATOM      1  C   UNL     1       1.271   9.609  19.180  0.00  0.00    +0.000 A 
ATOM      2  C   UNL     1       1.856   9.119  18.012  0.00  0.00    +0.000 A 
ATOM      3  C   UNL     1       2.360   7.820  17.922  0.00  0.00    +0.000 A 
ATOM      4  C   UNL     1       2.388   6.968  19.034  0.00  0.00    +0.000 A 
ATOM      5  C   UNL     1       1.850   7.471  20.234  0.00  0.00    +0.000 A 
ATOM      6  C   UNL     1       1.295   8.762  20.297  0.00  0.00    +0.000 A 
ENDROOT
BRANCH   1   7
ATOM      7  N   UNL     1       0.624  10.842  19.231  0.00  0.00    +0.000 N 
BRANCH   7   9
ATOM      8  C   UNL     1       1.780  12.912  18.300  0.00  0.00    +0.000 C 
ATOM      9  C   UNL     1       1.400  12.071  19.519  0.00  0.00    +0.000 C 
ENDBRANCH   7   9
BRANCH   7  10
ATOM     10  C   UNL     1      -0.801  10.832  19.731  0.00  0.00    +0.000 C 
BRANCH  10  11
ATOM     11  C   UNL     1      -1.761  10.836  18.520  0.00  0.00    +0.000 A 
ATOM     12  C   UNL     1      -2.960  11.569  18.598  0.00  0.00    +0.000 A 
ATOM     13  C   UNL     1      -3.932  11.478  17.593  0.00  0.00    +0.000 A 
ATOM     14  C   UNL     1      -3.731  10.647  16.497  0.00  0.00    +0.000 A 
ATOM     15  C   UNL     1      -2.542   9.936  16.384  0.00  0.00    +0.000 A 
ATOM     16  C   UNL     1      -1.564  10.042  17.375  0.00  0.00    +0.000 A 
ENDBRANCH  10  11
BRANCH  10  17
ATOM     17  C   UNL     1      -1.056  11.980  20.783  0.00  0.00    +0.000 C 
ATOM     18  O   UNL     1      -1.181  13.159  20.422  0.00  0.00    +0.000 OA
ATOM     19  N   UNL     1      -1.126  11.679  22.150  0.00  0.00    +0.000 N 
ATOM     20  C   UNL     1      -0.704  10.437  22.778  0.00  0.00    +0.000 C 
ATOM     21  C   UNL     1      -1.401  12.767  23.082  0.00  0.00    +0.000 C 
ENDBRANCH  10  17
ENDBRANCH   7  10
ENDBRANCH   1   7
BRANCH   4  22
ATOM     22  C   UNL     1       3.020   5.564  18.951  0.00  0.00    +0.000 C 
BRANCH  22  23
ATOM     23  C   UNL     1       1.962   4.517  18.494  0.00  0.00    +0.000 C 
ATOM     24  F   UNL     1       1.073   4.210  19.472  0.00  0.00    +0.000 F 
ATOM     25  F   UNL     1       1.237   4.820  17.406  0.00  0.00    +0.000 F 
ATOM     26  F   UNL     1       2.592   3.336  18.215  0.00  0.00    +0.000 F 
ENDBRANCH  22  23
BRANCH  22  27
ATOM     27  C   UNL     1       4.277   5.502  18.047  0.00  0.00    +0.000 C 
ATOM     28  F   UNL     1       3.967   5.404  16.728  0.00  0.00    +0.000 F 
ATOM     29  F   UNL     1       5.025   6.633  18.161  0.00  0.00    +0.000 F 
ATOM     30  F   UNL     1       5.122   4.481  18.301  0.00  0.00    +0.000 F 
ENDBRANCH  22  27
BRANCH  22  31
ATOM     31  O   UNL     1       3.428   5.224  20.335  0.00  0.00    +0.000 OA
ATOM     32  H   UNL     1       2.744   4.631  20.702  0.00  0.00    +0.000 HD
ENDBRANCH  22  31
ENDBRANCH   4  22
TORSDOF 9
ENDMDL
MODEL 3
REMARK VINA RESULT:      -8.2      0.221      1.406
REMARK  Name = 
REMARK  12 active torsions:
REMARK  status: ('A' for Active; 'I' for Inactive)
REMARK    1  A    between atoms: C_1  and  C_2
REMARK    2  A    between atoms: C_2  and  N_3
REMARK    3  A    between atoms: N_3  and  C_4
REMARK    4  A    between atoms: N_3  and  C_20
REMARK    5  A    between atoms: C_7  and  C_8
REMARK    6  A    between atoms: C_8  and  O_9
REMARK    7  A    between atoms: C_8  and  C_10
REMARK    8  A    between atoms: C_8  and  C_14
REMARK    9  A    between atoms: C_20  and  C_21
REMARK   10  A    between atoms: C_20  and  C_26
REMARK   11  A    between atoms: N_23  and  C_24
REMARK   12  A    between atoms: N_23  and  C_25
REMARK                            x       y       z     vdW  Elec       q    Type
REMARK                         _______ _______ _______ _____ _____    ______ ____
ROOT
ATOM      1  C   UNL     1       1.249   9.613  19.138  0.00  0.00    +0.000 A 
ATOM      2  C   UNL     1       1.845   9.153  17.962  0.00  0.00    +0.000 A 
ATOM      3  C   UNL     1       2.387   7.871  17.856  0.00  0.00    +0.000 A 
ATOM      4  C   UNL     1       2.444   7.008  18.959  0.00  0.00    +0.000 A 
ATOM      5  C   UNL     1       1.894   7.481  20.166  0.00  0.00    +0.000 A 
ATOM      6  C   UNL     1       1.301   8.754  20.244  0.00  0.00    +0.000 A 
ENDROOT
BRANCH   1   7
ATOM      7  N   UNL     1       0.564  10.825  19.203  0.00  0.00    +0.000 N 
BRANCH   7   9
ATOM      8  C   UNL     1       1.566  12.949  18.216  0.00  0.00    +0.000 C 
ATOM      9  C   UNL     1       1.312  12.081  19.449  0.00  0.00    +0.000 C 
ENDBRANCH   7   9
BRANCH   7  10
ATOM     10  C   UNL     1      -0.837  10.775  19.762  0.00  0.00    +0.000 C 
BRANCH  10  11
ATOM     11  C   UNL     1      -1.845  10.715  18.591  0.00  0.00    +0.000 A 
ATOM     12  C   UNL     1      -1.509   9.987  17.434  0.00  0.00    +0.000 A 
ATOM     13  C   UNL     1      -2.315  10.032  16.290  0.00  0.00    +0.000 A 
ATOM     14  C   UNL     1      -3.467  10.810  16.275  0.00  0.00    +0.000 A 
ATOM     15  C   UNL     1      -3.834  11.514  17.415  0.00  0.00    +0.000 A 
ATOM     16  C   UNL     1      -3.042  11.454  18.563  0.00  0.00    +0.000 A 
ENDBRANCH  10  11
BRANCH  10  17
ATOM     17  C   UNL     1      -1.093  11.938  20.797  0.00  0.00    +0.000 C 
ATOM     18  O   UNL     1      -1.258  13.106  20.417  0.00  0.00    +0.000 OA
ATOM     19  N   UNL     1      -1.118  11.663  22.172  0.00  0.00    +0.000 N 
ATOM     20  C   UNL     1      -0.647  10.445  22.813  0.00  0.00    +0.000 C 
ATOM     21  C   UNL     1      -1.395  12.763  23.089  0.00  0.00    +0.000 C 
ENDBRANCH  10  17
ENDBRANCH   7  10
ENDBRANCH   1   7
BRANCH   4  22
ATOM     22  C   UNL     1       3.117   5.625  18.858  0.00  0.00    +0.000 C 
BRANCH  22  23
ATOM     23  C   UNL     1       2.080   4.544  18.433  0.00  0.00    +0.000 C 
ATOM     24  F   UNL     1       1.302   4.945  17.396  0.00  0.00    +0.000 F 
ATOM     25  F   UNL     1       2.562   3.337  18.099  0.00  0.00    +0.000 F 
ATOM     26  F   UNL     1       1.205   4.334  19.462  0.00  0.00    +0.000 F 
ENDBRANCH  22  23
BRANCH  22  27
ATOM     27  C   UNL     1       4.348   5.601  17.918  0.00  0.00    +0.000 C 
ATOM     28  F   UNL     1       5.085   6.739  17.995  0.00  0.00    +0.000 F 
ATOM     29  F   UNL     1       5.202   4.593  18.246  0.00  0.00    +0.000 F 
ATOM     30  F   UNL     1       4.073   5.431  16.608  0.00  0.00    +0.000 F 
ENDBRANCH  22  27
BRANCH  22  31
ATOM     31  O   UNL     1       3.576   5.300  20.230  0.00  0.00    +0.000 OA
ATOM     32  H   UNL     1       3.222   4.417  20.454  0.00  0.00    +0.000 HD
ENDBRANCH  22  31
ENDBRANCH   4  22
TORSDOF 9
ENDMDL
MODEL 4
REMARK VINA RESULT:      -8.0      0.789      1.665
REMARK  Name = 
REMARK  12 active torsions:
REMARK  status: ('A' for Active; 'I' for Inactive)
REMARK    1  A    between atoms: C_1  and  C_2
REMARK    2  A    between atoms: C_2  and  N_3
REMARK    3  A    between atoms: N_3  and  C_4
REMARK    4  A    between atoms: N_3  and  C_20
REMARK    5  A    between atoms: C_7  and  C_8
REMARK    6  A    between atoms: C_8  and  O_9
REMARK    7  A    between atoms: C_8  and  C_10
REMARK    8  A    between atoms: C_8  and  C_14
REMARK    9  A    between atoms: C_20  and  C_21
REMARK   10  A    between atoms: C_20  and  C_26
REMARK   11  A    between atoms: N_23  and  C_24
REMARK   12  A    between atoms: N_23  and  C_25
REMARK                            x       y       z     vdW  Elec       q    Type
REMARK                         _______ _______ _______ _____ _____    ______ ____
ROOT
ATOM      1  C   UNL     1       1.219   9.531  19.368  0.00  0.00    +0.000 A 
ATOM      2  C   UNL     1       1.839   8.973  18.249  0.00  0.00    +0.000 A 
ATOM      3  C   UNL     1       2.297   7.655  18.232  0.00  0.00    +0.000 A 
ATOM      4  C   UNL     1       2.241   6.847  19.376  0.00  0.00    +0.000 A 
ATOM      5  C   UNL     1       1.666   7.416  20.529  0.00  0.00    +0.000 A 
ATOM      6  C   UNL     1       1.159   8.728  20.516  0.00  0.00    +0.000 A 
ENDROOT
BRANCH   1   7
ATOM      7  N   UNL     1       0.618  10.787  19.341  0.00  0.00    +0.000 N 
BRANCH   7   9
ATOM      8  C   UNL     1       2.107  12.595  18.341  0.00  0.00    +0.000 C 
ATOM      9  C   UNL     1       1.435  12.001  19.578  0.00  0.00    +0.000 C 
ENDBRANCH   7   9
BRANCH   7  10
ATOM     10  C   UNL     1      -0.814  10.856  19.814  0.00  0.00    +0.000 C 
BRANCH  10  11
ATOM     11  C   UNL     1      -1.752  10.856  18.585  0.00  0.00    +0.000 A 
ATOM     12  C   UNL     1      -2.946  11.600  18.634  0.00  0.00    +0.000 A 
ATOM     13  C   UNL     1      -3.900  11.507  17.613  0.00  0.00    +0.000 A 
ATOM     14  C   UNL     1      -3.686  10.663  16.529  0.00  0.00    +0.000 A 
ATOM     15  C   UNL     1      -2.502   9.941  16.445  0.00  0.00    +0.000 A 
ATOM     16  C   UNL     1      -1.541  10.049  17.452  0.00  0.00    +0.000 A 
ENDBRANCH  10  11
BRANCH  10  17
ATOM     17  C   UNL     1      -1.038  12.052  20.819  0.00  0.00    +0.000 C 
ATOM     18  O   UNL     1      -1.064  13.225  20.418  0.00  0.00    +0.000 OA
ATOM     19  N   UNL     1      -1.193  11.800  22.189  0.00  0.00    +0.000 N 
ATOM     20  C   UNL     1      -0.889  10.553  22.873  0.00  0.00    +0.000 C 
ATOM     21  C   UNL     1      -1.435  12.934  23.074  0.00  0.00    +0.000 C 
ENDBRANCH  10  17
ENDBRANCH   7  10
ENDBRANCH   1   7
BRANCH   4  22
ATOM     22  C   UNL     1       2.821   5.419  19.376  0.00  0.00    +0.000 C 
BRANCH  22  23
ATOM     23  C   UNL     1       2.086   4.532  20.424  0.00  0.00    +0.000 C 
ATOM     24  F   UNL     1       0.736   4.660  20.362  0.00  0.00    +0.000 F 
ATOM     25  F   UNL     1       2.343   3.215  20.392  0.00  0.00    +0.000 F 
ATOM     26  F   UNL     1       2.418   4.956  21.680  0.00  0.00    +0.000 F 
ENDBRANCH  22  23
BRANCH  22  27
ATOM     27  C   UNL     1       2.807   4.743  17.982  0.00  0.00    +0.000 C 
ATOM     28  F   UNL     1       1.574   4.745  17.414  0.00  0.00    +0.000 F 
ATOM     29  F   UNL     1       3.612   5.402  17.104  0.00  0.00    +0.000 F 
ATOM     30  F   UNL     1       3.220   3.459  17.956  0.00  0.00    +0.000 F 
ENDBRANCH  22  27
BRANCH  22  31
ATOM     31  O   UNL     1       4.232   5.559  19.808  0.00  0.00    +0.000 OA
ATOM     32  H   UNL     1       4.771   4.979  19.235  0.00  0.00    +0.000 HD
ENDBRANCH  22  31
ENDBRANCH   4  22
TORSDOF 9
ENDMDL
MODEL 5
REMARK VINA RESULT:      -8.0      0.792      1.850
REMARK  Name = 
REMARK  12 active torsions:
REMARK  status: ('A' for Active; 'I' for Inactive)
REMARK    1  A    between atoms: C_1  and  C_2
REMARK    2  A    between atoms: C_2  and  N_3
REMARK    3  A    between atoms: N_3  and  C_4
REMARK    4  A    between atoms: N_3  and  C_20
REMARK    5  A    between atoms: C_7  and  C_8
REMARK    6  A    between atoms: C_8  and  O_9
REMARK    7  A    between atoms: C_8  and  C_10
REMARK    8  A    between atoms: C_8  and  C_14
REMARK    9  A    between atoms: C_20  and  C_21
REMARK   10  A    between atoms: C_20  and  C_26
REMARK   11  A    between atoms: N_23  and  C_24
REMARK   12  A    between atoms: N_23  and  C_25
REMARK                            x       y       z     vdW  Elec       q    Type
REMARK                         _______ _______ _______ _____ _____    ______ ____
ROOT
ATOM      1  C   UNL     1       1.204   9.495  19.363  0.00  0.00    +0.000 A 
ATOM      2  C   UNL     1       1.811   8.938  18.236  0.00  0.00    +0.000 A 
ATOM      3  C   UNL     1       2.285   7.625  18.220  0.00  0.00    +0.000 A 
ATOM      4  C   UNL     1       2.259   6.825  19.370  0.00  0.00    +0.000 A 
ATOM      5  C   UNL     1       1.698   7.394  20.530  0.00  0.00    +0.000 A 
ATOM      6  C   UNL     1       1.174   8.699  20.517  0.00  0.00    +0.000 A 
ENDROOT
BRANCH   1   7
ATOM      7  N   UNL     1       0.586  10.744  19.338  0.00  0.00    +0.000 N 
BRANCH   7   9
ATOM      8  C   UNL     1       1.875  12.646  18.240  0.00  0.00    +0.000 C 
ATOM      9  C   UNL     1       1.396  11.971  19.525  0.00  0.00    +0.000 C 
ENDBRANCH   7   9
BRANCH   7  10
ATOM     10  C   UNL     1      -0.828  10.803  19.864  0.00  0.00    +0.000 C 
BRANCH  10  11
ATOM     11  C   UNL     1      -1.812  10.746  18.674  0.00  0.00    +0.000 A 
ATOM     12  C   UNL     1      -1.455  10.018  17.524  0.00  0.00    +0.000 A 
ATOM     13  C   UNL     1      -2.238  10.065  16.364  0.00  0.00    +0.000 A 
ATOM     14  C   UNL     1      -3.388  10.847  16.326  0.00  0.00    +0.000 A 
ATOM     15  C   UNL     1      -3.775  11.552  17.458  0.00  0.00    +0.000 A 
ATOM     16  C   UNL     1      -3.006  11.489  18.622  0.00  0.00    +0.000 A 
ENDBRANCH  10  11
BRANCH  10  17
ATOM     17  C   UNL     1      -1.035  12.027  20.838  0.00  0.00    +0.000 C 
ATOM     18  O   UNL     1      -1.100  13.186  20.401  0.00  0.00    +0.000 OA
ATOM     19  N   UNL     1      -1.131  11.818  22.221  0.00  0.00    +0.000 N 
ATOM     20  C   UNL     1      -0.775  10.600  22.932  0.00  0.00    +0.000 C 
ATOM     21  C   UNL     1      -1.360  12.976  23.078  0.00  0.00    +0.000 C 
ENDBRANCH  10  17
ENDBRANCH   7  10
ENDBRANCH   1   7
BRANCH   4  22
ATOM     22  C   UNL     1       2.858   5.404  19.369  0.00  0.00    +0.000 C 
BRANCH  22  23
ATOM     23  C   UNL     1       2.084   4.486  20.361  0.00  0.00    +0.000 C 
ATOM     24  F   UNL     1       2.378   4.754  21.659  0.00  0.00    +0.000 F 
ATOM     25  F   UNL     1       0.746   4.484  20.269  0.00  0.00    +0.000 F 
ATOM     26  F   UNL     1       2.482   3.191  20.175  0.00  0.00    +0.000 F 
ENDBRANCH  22  23
BRANCH  22  27
ATOM     27  C   UNL     1       2.921   4.758  17.962  0.00  0.00    +0.000 C 
ATOM     28  F   UNL     1       3.459   3.511  17.984  0.00  0.00    +0.000 F 
ATOM     29  F   UNL     1       1.678   4.608  17.430  0.00  0.00    +0.000 F 
ATOM     30  F   UNL     1       3.628   5.446  17.041  0.00  0.00    +0.000 F 
ENDBRANCH  22  27
BRANCH  22  31
ATOM     31  O   UNL     1       4.244   5.552  19.873  0.00  0.00    +0.000 OA
ATOM     32  H   UNL     1       4.604   6.378  19.495  0.00  0.00    +0.000 HD
ENDBRANCH  22  31
ENDBRANCH   4  22
TORSDOF 9
ENDMDL
MODEL 6
REMARK VINA RESULT:      -8.0      1.001      2.035
REMARK  Name = 
REMARK  12 active torsions:
REMARK  status: ('A' for Active; 'I' for Inactive)
REMARK    1  A    between atoms: C_1  and  C_2
REMARK    2  A    between atoms: C_2  and  N_3
REMARK    3  A    between atoms: N_3  and  C_4
REMARK    4  A    between atoms: N_3  and  C_20
REMARK    5  A    between atoms: C_7  and  C_8
REMARK    6  A    between atoms: C_8  and  O_9
REMARK    7  A    between atoms: C_8  and  C_10
REMARK    8  A    between atoms: C_8  and  C_14
REMARK    9  A    between atoms: C_20  and  C_21
REMARK   10  A    between atoms: C_20  and  C_26
REMARK   11  A    between atoms: N_23  and  C_24
REMARK   12  A    between atoms: N_23  and  C_25
REMARK                            x       y       z     vdW  Elec       q    Type
REMARK                         _______ _______ _______ _____ _____    ______ ____
ROOT
ATOM      1  C   UNL     1       1.346   9.476  18.998  0.00  0.00    +0.000 A 
ATOM      2  C   UNL     1       1.942   9.101  17.793  0.00  0.00    +0.000 A 
ATOM      3  C   UNL     1       2.413   7.806  17.568  0.00  0.00    +0.000 A 
ATOM      4  C   UNL     1       2.396   6.837  18.579  0.00  0.00    +0.000 A 
ATOM      5  C   UNL     1       1.847   7.219  19.819  0.00  0.00    +0.000 A 
ATOM      6  C   UNL     1       1.326   8.510  20.014  0.00  0.00    +0.000 A 
ENDROOT
BRANCH   1   7
ATOM      7  N   UNL     1       0.730  10.714  19.174  0.00  0.00    +0.000 N 
BRANCH   7   9
ATOM      8  C   UNL     1       1.908  12.848  18.438  0.00  0.00    +0.000 C 
ATOM      9  C   UNL     1       1.540  11.890  19.570  0.00  0.00    +0.000 C 
ENDBRANCH   7   9
BRANCH   7  10
ATOM     10  C   UNL     1      -0.690  10.690  19.686  0.00  0.00    +0.000 C 
BRANCH  10  11
ATOM     11  C   UNL     1      -1.661  10.731  18.485  0.00  0.00    +0.000 A 
ATOM     12  C   UNL     1      -2.842  11.491  18.584  0.00  0.00    +0.000 A 
ATOM     13  C   UNL     1      -3.825  11.435  17.588  0.00  0.00    +0.000 A 
ATOM     14  C   UNL     1      -3.653  10.614  16.478  0.00  0.00    +0.000 A 
ATOM     15  C   UNL     1      -2.483   9.877  16.345  0.00  0.00    +0.000 A 
ATOM     16  C   UNL     1      -1.492   9.948  17.328  0.00  0.00    +0.000 A 
ENDBRANCH  10  11
BRANCH  10  17
ATOM     17  C   UNL     1      -0.933  11.805  20.775  0.00  0.00    +0.000 C 
ATOM     18  O   UNL     1      -1.054  12.996  20.452  0.00  0.00    +0.000 OA
ATOM     19  N   UNL     1      -0.999  11.462  22.133  0.00  0.00    +0.000 N 
ATOM     20  C   UNL     1      -0.581  10.198  22.719  0.00  0.00    +0.000 C 
ATOM     21  C   UNL     1      -1.264  12.522  23.099  0.00  0.00    +0.000 C 
ENDBRANCH  10  17
ENDBRANCH   7  10
ENDBRANCH   1   7
BRANCH   4  22
ATOM     22  C   UNL     1       2.992   5.433  18.352  0.00  0.00    +0.000 C 
BRANCH  22  23
ATOM     23  C   UNL     1       3.780   4.964  19.611  0.00  0.00    +0.000 C 
ATOM     24  F   UNL     1       3.039   5.035  20.746  0.00  0.00    +0.000 F 
ATOM     25  F   UNL     1       4.301   3.728  19.576  0.00  0.00    +0.000 F 
ATOM     26  F   UNL     1       4.828   5.815  19.826  0.00  0.00    +0.000 F 
ENDBRANCH  22  23
BRANCH  22  27
ATOM     27  C   UNL     1       1.942   4.373  17.937  0.00  0.00    +0.000 C 
ATOM     28  F   UNL     1       2.482   3.355  17.218  0.00  0.00    +0.000 F 
ATOM     29  F   UNL     1       1.374   3.786  19.026  0.00  0.00    +0.000 F 
ATOM     30  F   UNL     1       0.912   4.836  17.199  0.00  0.00    +0.000 F 
ENDBRANCH  22  27
BRANCH  22  31
ATOM     31  O   UNL     1       3.961   5.583  17.240  0.00  0.00    +0.000 OA
ATOM     32  H   UNL     1       4.798   5.168  17.525  0.00  0.00    +0.000 HD
ENDBRANCH  22  31
ENDBRANCH   4  22
TORSDOF 9
ENDMDL
MODEL 7
REMARK VINA RESULT:      -8.0      0.773      1.239
REMARK  Name = 
REMARK  12 active torsions:
REMARK  status: ('A' for Active; 'I' for Inactive)
REMARK    1  A    between atoms: C_1  and  C_2
REMARK    2  A    between atoms: C_2  and  N_3
REMARK    3  A    between atoms: N_3  and  C_4
REMARK    4  A    between atoms: N_3  and  C_20
REMARK    5  A    between atoms: C_7  and  C_8
REMARK    6  A    between atoms: C_8  and  O_9
REMARK    7  A    between atoms: C_8  and  C_10
REMARK    8  A    between atoms: C_8  and  C_14
REMARK    9  A    between atoms: C_20  and  C_21
REMARK   10  A    between atoms: C_20  and  C_26
REMARK   11  A    between atoms: N_23  and  C_24
REMARK   12  A    between atoms: N_23  and  C_25
REMARK                            x       y       z     vdW  Elec       q    Type
REMARK                         _______ _______ _______ _____ _____    ______ ____
ROOT
ATOM      1  C   UNL     1       1.138   9.410  19.274  0.00  0.00    +0.000 A 
ATOM      2  C   UNL     1       1.218   8.629  20.428  0.00  0.00    +0.000 A 
ATOM      3  C   UNL     1       1.888   7.405  20.453  0.00  0.00    +0.000 A 
ATOM      4  C   UNL     1       2.438   6.850  19.290  0.00  0.00    +0.000 A 
ATOM      5  C   UNL     1       2.317   7.603  18.106  0.00  0.00    +0.000 A 
ATOM      6  C   UNL     1       1.688   8.861  18.107  0.00  0.00    +0.000 A 
ENDROOT
BRANCH   1   7
ATOM      7  N   UNL     1       0.614  10.701  19.280  0.00  0.00    +0.000 N 
BRANCH   7   9
ATOM      8  C   UNL     1       1.929  12.656  18.315  0.00  0.00    +0.000 C 
ATOM      9  C   UNL     1       1.503  11.857  19.546  0.00  0.00    +0.000 C 
ENDBRANCH   7   9
BRANCH   7  10
ATOM     10  C   UNL     1      -0.811  10.844  19.760  0.00  0.00    +0.000 C 
BRANCH  10  11
ATOM     11  C   UNL     1      -1.755  10.861  18.536  0.00  0.00    +0.000 A 
ATOM     12  C   UNL     1      -2.960  11.585  18.611  0.00  0.00    +0.000 A 
ATOM     13  C   UNL     1      -3.919  11.503  17.593  0.00  0.00    +0.000 A 
ATOM     14  C   UNL     1      -3.697  10.692  16.485  0.00  0.00    +0.000 A 
ATOM     15  C   UNL     1      -2.503   9.991  16.376  0.00  0.00    +0.000 A 
ATOM     16  C   UNL     1      -1.538  10.088  17.381  0.00  0.00    +0.000 A 
ENDBRANCH  10  11
BRANCH  10  17
ATOM     17  C   UNL     1      -0.974  12.069  20.740  0.00  0.00    +0.000 C 
ATOM     18  O   UNL     1      -1.011  13.231  20.309  0.00  0.00    +0.000 OA
ATOM     19  N   UNL     1      -1.061  11.857  22.123  0.00  0.00    +0.000 N 
ATOM     20  C   UNL     1      -0.731  10.626  22.825  0.00  0.00    +0.000 C 
ATOM     21  C   UNL     1      -1.249  13.017  22.987  0.00  0.00    +0.000 C 
ENDBRANCH  10  17
ENDBRANCH   7  10
ENDBRANCH   1   7
BRANCH   4  22
ATOM     22  C   UNL     1       3.106   5.460  19.305  0.00  0.00    +0.000 C 
BRANCH  22  23
ATOM     23  C   UNL     1       2.273   4.465  20.167  0.00  0.00    +0.000 C 
ATOM     24  F   UNL     1       2.454   4.650  21.499  0.00  0.00    +0.000 F 
ATOM     25  F   UNL     1       0.947   4.448  19.964  0.00  0.00    +0.000 F 
ATOM     26  F   UNL     1       2.713   3.192  19.930  0.00  0.00    +0.000 F 
ENDBRANCH  22  23
BRANCH  22  27
ATOM     27  C   UNL     1       3.360   4.878  17.891  0.00  0.00    +0.000 C 
ATOM     28  F   UNL     1       4.190   3.804  17.911  0.00  0.00    +0.000 F 
ATOM     29  F   UNL     1       2.205   4.435  17.323  0.00  0.00    +0.000 F 
ATOM     30  F   UNL     1       3.895   5.738  17.000  0.00  0.00    +0.000 F 
ENDBRANCH  22  27
BRANCH  22  31
ATOM     31  O   UNL     1       4.417   5.651  19.969  0.00  0.00    +0.000 OA
ATOM     32  H   UNL     1       4.239   5.920  20.891  0.00  0.00    +0.000 HD
ENDBRANCH  22  31
ENDBRANCH   4  22
TORSDOF 9
ENDMDL
MODEL 8
REMARK VINA RESULT:      -7.9      1.431      4.116
REMARK  Name = 
REMARK  12 active torsions:
REMARK  status: ('A' for Active; 'I' for Inactive)
REMARK    1  A    between atoms: C_1  and  C_2
REMARK    2  A    between atoms: C_2  and  N_3
REMARK    3  A    between atoms: N_3  and  C_4
REMARK    4  A    between atoms: N_3  and  C_20
REMARK    5  A    between atoms: C_7  and  C_8
REMARK    6  A    between atoms: C_8  and  O_9
REMARK    7  A    between atoms: C_8  and  C_10
REMARK    8  A    between atoms: C_8  and  C_14
REMARK    9  A    between atoms: C_20  and  C_21
REMARK   10  A    between atoms: C_20  and  C_26
REMARK   11  A    between atoms: N_23  and  C_24
REMARK   12  A    between atoms: N_23  and  C_25
REMARK                            x       y       z     vdW  Elec       q    Type
REMARK                         _______ _______ _______ _____ _____    ______ ____
ROOT
ATOM      1  C   UNL     1       1.325   9.081  19.561  0.00  0.00    +0.000 A 
ATOM      2  C   UNL     1       1.825   8.935  18.266  0.00  0.00    +0.000 A 
ATOM      3  C   UNL     1       2.390   7.739  17.818  0.00  0.00    +0.000 A 
ATOM      4  C   UNL     1       2.569   6.649  18.679  0.00  0.00    +0.000 A 
ATOM      5  C   UNL     1       2.118   6.803  20.004  0.00  0.00    +0.000 A 
ATOM      6  C   UNL     1       1.501   7.994  20.427  0.00  0.00    +0.000 A 
ENDROOT
BRANCH   1   7
ATOM      7  N   UNL     1       0.617  10.212  19.965  0.00  0.00    +0.000 N 
BRANCH   7   9
ATOM      8  C   UNL     1      -0.130  10.473  22.385  0.00  0.00    +0.000 C 
ATOM      9  C   UNL     1      -0.482  10.080  20.951  0.00  0.00    +0.000 C 
ENDBRANCH   7   9
BRANCH   7  10
ATOM     10  C   UNL     1       0.449  11.302  18.934  0.00  0.00    +0.000 C 
BRANCH  10  11
ATOM     11  C   UNL     1       1.451  12.440  19.234  0.00  0.00    +0.000 A 
ATOM     12  C   UNL     1       2.170  13.017  18.171  0.00  0.00    +0.000 A 
ATOM     13  C   UNL     1       3.199  13.938  18.408  0.00  0.00    +0.000 A 
ATOM     14  C   UNL     1       3.535  14.293  19.710  0.00  0.00    +0.000 A 
ATOM     15  C   UNL     1       2.819  13.758  20.774  0.00  0.00    +0.000 A 
ATOM     16  C   UNL     1       1.779  12.856  20.537  0.00  0.00    +0.000 A 
ENDBRANCH  10  11
BRANCH  10  17
ATOM     17  C   UNL     1      -1.057  11.758  18.811  0.00  0.00    +0.000 C 
ATOM     18  O   UNL     1      -1.503  12.679  19.512  0.00  0.00    +0.000 OA
ATOM     19  N   UNL     1      -1.918  11.110  17.915  0.00  0.00    +0.000 N 
ATOM     20  C   UNL     1      -1.670   9.839  17.253  0.00  0.00    +0.000 C 
ATOM     21  C   UNL     1      -3.291  11.592  17.810  0.00  0.00    +0.000 C 
ENDBRANCH  10  17
ENDBRANCH   7  10
ENDBRANCH   1   7
BRANCH   4  22
ATOM     22  C   UNL     1       3.267   5.359  18.202  0.00  0.00    +0.000 C 
BRANCH  22  23
ATOM     23  C   UNL     1       4.238   4.827  19.298  0.00  0.00    +0.000 C 
ATOM     24  F   UNL     1       5.183   5.738  19.645  0.00  0.00    +0.000 F 
ATOM     25  F   UNL     1       3.685   4.400  20.443  0.00  0.00    +0.000 F 
ATOM     26  F   UNL     1       4.943   3.769  18.795  0.00  0.00    +0.000 F 
ENDBRANCH  22  23
BRANCH  22  27
ATOM     27  C   UNL     1       2.282   4.249  17.758  0.00  0.00    +0.000 C 
ATOM     28  F   UNL     1       1.927   3.427  18.780  0.00  0.00    +0.000 F 
ATOM     29  F   UNL     1       1.117   4.776  17.294  0.00  0.00    +0.000 F 
ATOM     30  F   UNL     1       2.728   3.438  16.776  0.00  0.00    +0.000 F 
ENDBRANCH  22  27
BRANCH  22  31
ATOM     31  O   UNL     1       4.080   5.754  17.027  0.00  0.00    +0.000 OA
ATOM     32  H   UNL     1       3.467   5.863  16.273  0.00  0.00    +0.000 HD
ENDBRANCH  22  31
ENDBRANCH   4  22
TORSDOF 9
ENDMDL
MODEL 9
REMARK VINA RESULT:      -7.9      1.454      4.072
REMARK  Name = 
REMARK  12 active torsions:
REMARK  status: ('A' for Active; 'I' for Inactive)
REMARK    1  A    between atoms: C_1  and  C_2
REMARK    2  A    between atoms: C_2  and  N_3
REMARK    3  A    between atoms: N_3  and  C_4
REMARK    4  A    between atoms: N_3  and  C_20
REMARK    5  A    between atoms: C_7  and  C_8
REMARK    6  A    between atoms: C_8  and  O_9
REMARK    7  A    between atoms: C_8  and  C_10
REMARK    8  A    between atoms: C_8  and  C_14
REMARK    9  A    between atoms: C_20  and  C_21
REMARK   10  A    between atoms: C_20  and  C_26
REMARK   11  A    between atoms: N_23  and  C_24
REMARK   12  A    between atoms: N_23  and  C_25
REMARK                            x       y       z     vdW  Elec       q    Type
REMARK                         _______ _______ _______ _____ _____    ______ ____
ROOT
ATOM      1  C   UNL     1       1.391   8.972  19.543  0.00  0.00    +0.000 A 
ATOM      2  C   UNL     1       1.906   8.827  18.254  0.00  0.00    +0.000 A 
ATOM      3  C   UNL     1       2.458   7.626  17.806  0.00  0.00    +0.000 A 
ATOM      4  C   UNL     1       2.608   6.526  18.661  0.00  0.00    +0.000 A 
ATOM      5  C   UNL     1       2.142   6.678  19.981  0.00  0.00    +0.000 A 
ATOM      6  C   UNL     1       1.538   7.876  20.404  0.00  0.00    +0.000 A 
ENDROOT
BRANCH   1   7
ATOM      7  N   UNL     1       0.696  10.112  19.946  0.00  0.00    +0.000 N 
BRANCH   7   9
ATOM      8  C   UNL     1      -0.009  10.276  22.388  0.00  0.00    +0.000 C 
ATOM      9  C   UNL     1      -0.400   9.994  20.937  0.00  0.00    +0.000 C 
ENDBRANCH   7   9
BRANCH   7  10
ATOM     10  C   UNL     1       0.533  11.198  18.911  0.00  0.00    +0.000 C 
BRANCH  10  11
ATOM     11  C   UNL     1       1.598  12.292  19.155  0.00  0.00    +0.000 A 
ATOM     12  C   UNL     1       1.857  12.714  20.473  0.00  0.00    +0.000 A 
ATOM     13  C   UNL     1       2.694  13.806  20.732  0.00  0.00    +0.000 A 
ATOM     14  C   UNL     1       3.282  14.503  19.682  0.00  0.00    +0.000 A 
ATOM     15  C   UNL     1       3.064  14.087  18.375  0.00  0.00    +0.000 A 
ATOM     16  C   UNL     1       2.246  12.985  18.116  0.00  0.00    +0.000 A 
ENDBRANCH  10  11
BRANCH  10  17
ATOM     17  C   UNL     1      -0.954  11.723  18.848  0.00  0.00    +0.000 C 
ATOM     18  O   UNL     1      -1.337  12.644  19.585  0.00  0.00    +0.000 OA
ATOM     19  N   UNL     1      -1.870  11.137  17.964  0.00  0.00    +0.000 N 
ATOM     20  C   UNL     1      -1.699   9.874  17.263  0.00  0.00    +0.000 C 
ATOM     21  C   UNL     1      -3.223  11.681  17.914  0.00  0.00    +0.000 C 
ENDBRANCH  10  17
ENDBRANCH   7  10
ENDBRANCH   1   7
BRANCH   4  22
ATOM     22  C   UNL     1       3.292   5.229  18.184  0.00  0.00    +0.000 C 
BRANCH  22  23
ATOM     23  C   UNL     1       4.249   4.682  19.284  0.00  0.00    +0.000 C 
ATOM     24  F   UNL     1       5.182   5.591  19.665  0.00  0.00    +0.000 F 
ATOM     25  F   UNL     1       3.682   4.226  20.412  0.00  0.00    +0.000 F 
ATOM     26  F   UNL     1       4.970   3.639  18.771  0.00  0.00    +0.000 F 
ENDBRANCH  22  23
BRANCH  22  27
ATOM     27  C   UNL     1       2.296   4.133  17.732  0.00  0.00    +0.000 C 
ATOM     28  F   UNL     1       1.123   4.648  17.280  0.00  0.00    +0.000 F 
ATOM     29  F   UNL     1       2.796   3.406  16.695  0.00  0.00    +0.000 F 
ATOM     30  F   UNL     1       1.959   3.230  18.677  0.00  0.00    +0.000 F 
ENDBRANCH  22  27
BRANCH  22  31
ATOM     31  O   UNL     1       4.117   5.616  17.015  0.00  0.00    +0.000 OA
ATOM     32  H   UNL     1       4.928   5.073  17.039  0.00  0.00    +0.000 HD
ENDBRANCH  22  31
ENDBRANCH   4  22
TORSDOF 9
ENDMDL
