MODEL 1
REMARK VINA RESULT:      -7.6      0.000      0.000
REMARK  Name = 
REMARK  6 active torsions:
REMARK  status: ('A' for Active; 'I' for Inactive)
REMARK    1  A    between atoms: O5*_1  and  C5*_2
REMARK    2  A    between atoms: C5*_2  and  C4*_3
REMARK    3  A    between atoms: C1*_5  and  N_6
REMARK    4  A    between atoms: N_11  and  C_12
REMARK    5  A    between atoms: C2*_26  and  O2*_27
REMARK    6  A    between atoms: C3*_28  and  O3*_29
REMARK                            x       y       z     vdW  Elec       q    Type
REMARK                         _______ _______ _______ _____ _____    ______ ____
ROOT
ATOM      1  N   UNL     1       2.838   7.026  18.496  0.00  0.00    +0.000 N 
ATOM      2  C   UNL     1       2.943   7.891  17.417  0.00  0.00    +0.000 A 
ATOM      3  N   UNL     1       2.274   9.031  17.599  0.00  0.00    +0.000 NA
ATOM      4  C   UNL     1       1.687   8.964  18.862  0.00  0.00    +0.000 A 
ATOM      5  C   UNL     1       0.835   9.899  19.667  0.00  0.00    +0.000 A 
ATOM      6  N   UNL     1       0.187  11.179  19.302  0.00  0.00    +0.000 N 
ATOM      7  N   UNL     1       0.526   9.407  20.903  0.00  0.00    +0.000 NA
ATOM      8  C   UNL     1       0.937   8.165  21.279  0.00  0.00    +0.000 A 
ATOM      9  N   UNL     1       1.680   7.246  20.621  0.00  0.00    +0.000 NA
ATOM     10  C   UNL     1       2.045   7.703  19.417  0.00  0.00    +0.000 A 
ATOM     11  H   UNL     1       0.541  11.406  18.371  0.00  0.00    +0.000 HD
ENDROOT
BRANCH   6  12
ATOM     12  C   UNL     1       0.333  12.376  20.288  0.00  0.00    +0.000 C 
ATOM     13  C   UNL     1       0.571  13.618  19.383  0.00  0.00    +0.000 C 
ATOM     14  C   UNL     1       0.595  15.011  20.006  0.00  0.00    +0.000 C 
ATOM     15  S   UNL     1       1.016  14.997  21.751  0.00  0.00    +0.000 S 
ATOM     16  C   UNL     1      -0.341  13.939  22.232  0.00  0.00    +0.000 A 
ATOM     17  C   UNL     1      -1.036  14.378  23.395  0.00  0.00    +0.000 A 
ATOM     18  C   UNL     1      -2.169  13.700  23.811  0.00  0.00    +0.000 A 
ATOM     19  C   UNL     1      -2.601  12.623  23.051  0.00  0.00    +0.000 A 
ATOM     20  C   UNL     1      -1.885  12.160  21.887  0.00  0.00    +0.000 A 
ATOM     21  C   UNL     1      -0.706  12.795  21.445  0.00  0.00    +0.000 A 
ENDBRANCH   6  12
BRANCH   1  24
ATOM     22  C4* UNL     1       2.730   3.445  18.950  0.00  0.00    +0.000 C 
ATOM     23  O4* UNL     1       2.406   4.677  18.259  0.00  0.00    +0.000 OA
ATOM     24  C1* UNL     1       3.440   5.670  18.502  0.00  0.00    +0.000 C 
ATOM     25  C2* UNL     1       4.287   5.141  19.686  0.00  0.00    +0.000 C 
ATOM     26  C3* UNL     1       4.081   3.619  19.639  0.00  0.00    +0.000 C 
BRANCH  25  27
ATOM     27  O2* UNL     1       5.693   5.404  19.535  0.00  0.00    +0.000 OA
ATOM     28  H2* UNL     1       6.043   5.476  20.457  0.00  0.00    +0.000 HD
ENDBRANCH  25  27
BRANCH  26  29
ATOM     29  O3* UNL     1       5.178   3.061  18.872  0.00  0.00    +0.000 OA
ATOM     30  H3* UNL     1       5.481   2.231  19.284  0.00  0.00    +0.000 HD
ENDBRANCH  26  29
BRANCH  22  31
ATOM     31  C5* UNL     1       1.599   3.112  19.929  0.00  0.00    +0.000 C 
BRANCH  31  32
ATOM     32  O5* UNL     1       0.880   4.281  20.305  0.00  0.00    +0.000 OA
ATOM     33  H5* UNL     1       1.209   5.011  19.747  0.00  0.00    +0.000 HD
ENDBRANCH  31  32
ENDBRANCH  22  31
ENDBRANCH   1  24
TORSDOF 6
ENDMDL
MODEL 2
REMARK VINA RESULT:      -7.6      1.320      1.658
REMARK  Name = 
REMARK  6 active torsions:
REMARK  status: ('A' for Active; 'I' for Inactive)
REMARK    1  A    between atoms: O5*_1  and  C5*_2
REMARK    2  A    between atoms: C5*_2  and  C4*_3
REMARK    3  A    between atoms: C1*_5  and  N_6
REMARK    4  A    between atoms: N_11  and  C_12
REMARK    5  A    between atoms: C2*_26  and  O2*_27
REMARK    6  A    between atoms: C3*_28  and  O3*_29
REMARK                            x       y       z     vdW  Elec       q    Type
REMARK                         _______ _______ _______ _____ _____    ______ ____
ROOT
ATOM      1  N   UNL     1       3.241   5.780  18.322  0.00  0.00    +0.000 N 
ATOM      2  C   UNL     1       3.688   6.459  17.199  0.00  0.00    +0.000 A 
ATOM      3  N   UNL     1       3.275   7.727  17.160  0.00  0.00    +0.000 NA
ATOM      4  C   UNL     1       2.518   7.946  18.310  0.00  0.00    +0.000 A 
ATOM      5  C   UNL     1       1.795   9.134  18.872  0.00  0.00    +0.000 A 
ATOM      6  N   UNL     1       1.510  10.463  18.286  0.00  0.00    +0.000 N 
ATOM      7  N   UNL     1       1.213   8.880  20.082  0.00  0.00    +0.000 NA
ATOM      8  C   UNL     1       1.276   7.638  20.635  0.00  0.00    +0.000 A 
ATOM      9  N   UNL     1       1.877   6.508  20.198  0.00  0.00    +0.000 NA
ATOM     10  C   UNL     1       2.501   6.720  19.033  0.00  0.00    +0.000 A 
ATOM     11  H   UNL     1       2.034  10.491  17.409  0.00  0.00    +0.000 HD
ENDROOT
BRANCH   6  12
ATOM     12  C   UNL     1       1.784  11.720  19.167  0.00  0.00    +0.000 C 
ATOM     13  C   UNL     1       2.297  12.803  18.175  0.00  0.00    +0.000 C 
ATOM     14  C   UNL     1       2.511  14.232  18.665  0.00  0.00    +0.000 C 
ATOM     15  S   UNL     1       2.792  14.337  20.435  0.00  0.00    +0.000 S 
ATOM     16  C   UNL     1       1.242  13.570  20.886  0.00  0.00    +0.000 A 
ATOM     17  C   UNL     1       0.547  14.238  21.935  0.00  0.00    +0.000 A 
ATOM     18  C   UNL     1      -0.713  13.800  22.307  0.00  0.00    +0.000 A 
ATOM     19  C   UNL     1      -1.263  12.732  21.614  0.00  0.00    +0.000 A 
ATOM     20  C   UNL     1      -0.551  12.037  20.569  0.00  0.00    +0.000 A 
ATOM     21  C   UNL     1       0.748  12.422  20.179  0.00  0.00    +0.000 A 
ENDBRANCH   6  12
BRANCH   1  24
ATOM     22  C4* UNL     1       2.472   2.525  19.684  0.00  0.00    +0.000 C 
ATOM     23  O4* UNL     1       2.261   3.637  18.780  0.00  0.00    +0.000 OA
ATOM     24  C1* UNL     1       3.514   4.341  18.556  0.00  0.00    +0.000 C 
ATOM     25  C2* UNL     1       4.496   3.846  19.645  0.00  0.00    +0.000 C 
ATOM     26  C3* UNL     1       3.958   2.459  20.029  0.00  0.00    +0.000 C 
BRANCH  25  27
ATOM     27  O2* UNL     1       5.841   3.683  19.162  0.00  0.00    +0.000 OA
ATOM     28  H2* UNL     1       5.763   3.085  18.378  0.00  0.00    +0.000 HD
ENDBRANCH  25  27
BRANCH  26  29
ATOM     29  O3* UNL     1       4.676   1.484  19.230  0.00  0.00    +0.000 OA
ATOM     30  H3* UNL     1       4.069   1.074  18.586  0.00  0.00    +0.000 HD
ENDBRANCH  26  29
BRANCH  22  31
ATOM     31  C5* UNL     1       1.581   2.711  20.917  0.00  0.00    +0.000 C 
BRANCH  31  32
ATOM     32  O5* UNL     1       0.559   3.671  20.676  0.00  0.00    +0.000 OA
ATOM     33  H5* UNL     1      -0.155   3.213  20.194  0.00  0.00    +0.000 HD
ENDBRANCH  31  32
ENDBRANCH  22  31
ENDBRANCH   1  24
TORSDOF 6
ENDMDL
MODEL 3
REMARK VINA RESULT:      -7.5      1.263      2.120
REMARK  Name = 
REMARK  6 active torsions:
REMARK  status: ('A' for Active; 'I' for Inactive)
REMARK    1  A    between atoms: O5*_1  and  C5*_2
REMARK    2  A    between atoms: C5*_2  and  C4*_3
REMARK    3  A    between atoms: C1*_5  and  N_6
REMARK    4  A    between atoms: N_11  and  C_12
REMARK    5  A    between atoms: C2*_26  and  O2*_27
REMARK    6  A    between atoms: C3*_28  and  O3*_29
REMARK                            x       y       z     vdW  Elec       q    Type
REMARK                         _______ _______ _______ _____ _____    ______ ____
ROOT
ATOM      1  N   UNL     1       2.844   6.979  18.598  0.00  0.00    +0.000 N 
ATOM      2  C   UNL     1       2.919   7.723  17.430  0.00  0.00    +0.000 A 
ATOM      3  N   UNL     1       2.231   8.864  17.495  0.00  0.00    +0.000 NA
ATOM      4  C   UNL     1       1.661   8.926  18.765  0.00  0.00    +0.000 A 
ATOM      5  C   UNL     1       0.801   9.929  19.475  0.00  0.00    +0.000 A 
ATOM      6  N   UNL     1       0.125  11.149  18.980  0.00  0.00    +0.000 N 
ATOM      7  N   UNL     1       0.517   9.571  20.762  0.00  0.00    +0.000 NA
ATOM      8  C   UNL     1       0.956   8.385  21.265  0.00  0.00    +0.000 A 
ATOM      9  N   UNL     1       1.708   7.412  20.703  0.00  0.00    +0.000 NA
ATOM     10  C   UNL     1       2.050   7.740  19.450  0.00  0.00    +0.000 A 
ATOM     11  H   UNL     1       0.464  11.279  18.025  0.00  0.00    +0.000 HD
ENDROOT
BRANCH   6  12
ATOM     12  C   UNL     1       0.261  12.450  19.828  0.00  0.00    +0.000 C 
ATOM     13  C   UNL     1       0.134  13.614  18.804  0.00  0.00    +0.000 C 
ATOM     14  C   UNL     1       0.055  15.053  19.304  0.00  0.00    +0.000 C 
ATOM     15  S   UNL     1       0.784  15.276  20.929  0.00  0.00    +0.000 S 
ATOM     16  C   UNL     1      -0.282  14.096  21.744  0.00  0.00    +0.000 A 
ATOM     17  C   UNL     1      -0.813  14.552  22.984  0.00  0.00    +0.000 A 
ATOM     18  C   UNL     1      -1.732  13.770  23.663  0.00  0.00    +0.000 A 
ATOM     19  C   UNL     1      -2.122  12.571  23.085  0.00  0.00    +0.000 A 
ATOM     20  C   UNL     1      -1.567  12.094  21.841  0.00  0.00    +0.000 A 
ATOM     21  C   UNL     1      -0.602  12.837  21.131  0.00  0.00    +0.000 A 
ENDBRANCH   6  12
BRANCH   1  24
ATOM     22  C4* UNL     1       5.604   4.770  19.335  0.00  0.00    +0.000 C 
ATOM     23  O4* UNL     1       4.572   5.724  19.691  0.00  0.00    +0.000 OA
ATOM     24  C1* UNL     1       3.471   5.643  18.745  0.00  0.00    +0.000 C 
ATOM     25  C2* UNL     1       3.992   4.831  17.534  0.00  0.00    +0.000 C 
ATOM     26  C3* UNL     1       5.128   3.978  18.120  0.00  0.00    +0.000 C 
BRANCH  25  27
ATOM     27  O2* UNL     1       3.005   3.940  16.985  0.00  0.00    +0.000 OA
ATOM     28  H2* UNL     1       2.654   3.435  17.759  0.00  0.00    +0.000 HD
ENDBRANCH  25  27
BRANCH  26  29
ATOM     29  O3* UNL     1       4.559   2.692  18.477  0.00  0.00    +0.000 OA
ATOM     30  H3* UNL     1       4.136   2.750  19.353  0.00  0.00    +0.000 HD
ENDBRANCH  26  29
BRANCH  22  31
ATOM     31  C5* UNL     1       6.912   5.525  19.081  0.00  0.00    +0.000 C 
BRANCH  31  32
ATOM     32  O5* UNL     1       7.754   5.502  20.228  0.00  0.00    +0.000 OA
ATOM     33  H5* UNL     1       8.363   4.747  20.120  0.00  0.00    +0.000 HD
ENDBRANCH  31  32
ENDBRANCH  22  31
ENDBRANCH   1  24
TORSDOF 6
ENDMDL
MODEL 4
REMARK VINA RESULT:      -7.4      2.257      3.344
REMARK  Name = 
REMARK  6 active torsions:
REMARK  status: ('A' for Active; 'I' for Inactive)
REMARK    1  A    between atoms: O5*_1  and  C5*_2
REMARK    2  A    between atoms: C5*_2  and  C4*_3
REMARK    3  A    between atoms: C1*_5  and  N_6
REMARK    4  A    between atoms: N_11  and  C_12
REMARK    5  A    between atoms: C2*_26  and  O2*_27
REMARK    6  A    between atoms: C3*_28  and  O3*_29
REMARK                            x       y       z     vdW  Elec       q    Type
REMARK                         _______ _______ _______ _____ _____    ______ ____
ROOT
ATOM      1  N   UNL     1       2.631   6.434  18.996  0.00  0.00    +0.000 N 
ATOM      2  C   UNL     1       2.091   6.121  20.234  0.00  0.00    +0.000 A 
ATOM      3  N   UNL     1       1.463   7.152  20.803  0.00  0.00    +0.000 NA
ATOM      4  C   UNL     1       1.558   8.226  19.920  0.00  0.00    +0.000 A 
ATOM      5  C   UNL     1       1.063   9.641  19.942  0.00  0.00    +0.000 A 
ATOM      6  N   UNL     1       0.425  10.429  21.021  0.00  0.00    +0.000 N 
ATOM      7  N   UNL     1       1.368  10.331  18.803  0.00  0.00    +0.000 NA
ATOM      8  C   UNL     1       2.097   9.747  17.813  0.00  0.00    +0.000 A 
ATOM      9  N   UNL     1       2.605   8.498  17.711  0.00  0.00    +0.000 NA
ATOM     10  C   UNL     1       2.292   7.768  18.790  0.00  0.00    +0.000 A 
ATOM     11  H   UNL     1       0.249   9.763  21.775  0.00  0.00    +0.000 HD
ENDROOT
BRANCH   6  12
ATOM     12  C   UNL     1      -0.849  11.253  20.664  0.00  0.00    +0.000 C 
ATOM     13  C   UNL     1      -0.386  12.738  20.677  0.00  0.00    +0.000 C 
ATOM     14  C   UNL     1      -1.342  13.830  20.206  0.00  0.00    +0.000 C 
ATOM     15  S   UNL     1      -3.069  13.359  20.335  0.00  0.00    +0.000 S 
ATOM     16  C   UNL     1      -2.922  11.926  19.277  0.00  0.00    +0.000 A 
ATOM     17  C   UNL     1      -3.963  11.807  18.313  0.00  0.00    +0.000 A 
ATOM     18  C   UNL     1      -3.909  10.796  17.370  0.00  0.00    +0.000 A 
ATOM     19  C   UNL     1      -2.812   9.946  17.387  0.00  0.00    +0.000 A 
ATOM     20  C   UNL     1      -1.769  10.048  18.378  0.00  0.00    +0.000 A 
ATOM     21  C   UNL     1      -1.798  11.039  19.381  0.00  0.00    +0.000 A 
ENDBRANCH   6  12
BRANCH   1  24
ATOM     22  C4* UNL     1       3.862   3.133  18.203  0.00  0.00    +0.000 C 
ATOM     23  O4* UNL     1       2.833   4.150  18.288  0.00  0.00    +0.000 OA
ATOM     24  C1* UNL     1       3.432   5.473  18.199  0.00  0.00    +0.000 C 
ATOM     25  C2* UNL     1       4.953   5.281  18.410  0.00  0.00    +0.000 C 
ATOM     26  C3* UNL     1       5.206   3.825  17.988  0.00  0.00    +0.000 C 
BRANCH  25  27
ATOM     27  O2* UNL     1       5.752   6.132  17.569  0.00  0.00    +0.000 OA
ATOM     28  H2* UNL     1       6.076   6.852  18.163  0.00  0.00    +0.000 HD
ENDBRANCH  25  27
BRANCH  26  29
ATOM     29  O3* UNL     1       5.610   3.845  16.596  0.00  0.00    +0.000 OA
ATOM     30  H3* UNL     1       5.851   2.945  16.308  0.00  0.00    +0.000 HD
ENDBRANCH  26  29
BRANCH  22  31
ATOM     31  C5* UNL     1       3.827   2.282  19.477  0.00  0.00    +0.000 C 
BRANCH  31  32
ATOM     32  O5* UNL     1       5.136   2.065  19.991  0.00  0.00    +0.000 OA
ATOM     33  H5* UNL     1       5.145   1.170  20.380  0.00  0.00    +0.000 HD
ENDBRANCH  31  32
ENDBRANCH  22  31
ENDBRANCH   1  24
TORSDOF 6
ENDMDL
MODEL 5
REMARK VINA RESULT:      -7.3      1.333      2.183
REMARK  Name = 
REMARK  6 active torsions:
REMARK  status: ('A' for Active; 'I' for Inactive)
REMARK    1  A    between atoms: O5*_1  and  C5*_2
REMARK    2  A    between atoms: C5*_2  and  C4*_3
REMARK    3  A    between atoms: C1*_5  and  N_6
REMARK    4  A    between atoms: N_11  and  C_12
REMARK    5  A    between atoms: C2*_26  and  O2*_27
REMARK    6  A    between atoms: C3*_28  and  O3*_29
REMARK                            x       y       z     vdW  Elec       q    Type
REMARK                         _______ _______ _______ _____ _____    ______ ____
ROOT
ATOM      1  N   UNL     1       2.869   7.089  18.375  0.00  0.00    +0.000 N 
ATOM      2  C   UNL     1       2.893   7.969  17.304  0.00  0.00    +0.000 A 
ATOM      3  N   UNL     1       2.191   9.080  17.529  0.00  0.00    +0.000 NA
ATOM      4  C   UNL     1       1.664   8.978  18.816  0.00  0.00    +0.000 A 
ATOM      5  C   UNL     1       0.815   9.871  19.669  0.00  0.00    +0.000 A 
ATOM      6  N   UNL     1       0.103  11.129  19.349  0.00  0.00    +0.000 N 
ATOM      7  N   UNL     1       0.580   9.356  20.912  0.00  0.00    +0.000 NA
ATOM      8  C   UNL     1       1.054   8.126  21.254  0.00  0.00    +0.000 A 
ATOM      9  N   UNL     1       1.801   7.243  20.553  0.00  0.00    +0.000 NA
ATOM     10  C   UNL     1       2.094   7.726  19.339  0.00  0.00    +0.000 A 
ATOM     11  H   UNL     1       0.407  11.380  18.406  0.00  0.00    +0.000 HD
ENDROOT
BRANCH   6  12
ATOM     12  C   UNL     1       0.249  12.321  20.343  0.00  0.00    +0.000 C 
ATOM     13  C   UNL     1       0.468  13.571  19.444  0.00  0.00    +0.000 C 
ATOM     14  C   UNL     1       0.486  14.960  20.077  0.00  0.00    +0.000 C 
ATOM     15  S   UNL     1       0.924  14.937  21.817  0.00  0.00    +0.000 S 
ATOM     16  C   UNL     1      -0.420  13.864  22.304  0.00  0.00    +0.000 A 
ATOM     17  C   UNL     1      -1.108  14.289  23.476  0.00  0.00    +0.000 A 
ATOM     18  C   UNL     1      -2.231  13.599  23.898  0.00  0.00    +0.000 A 
ATOM     19  C   UNL     1      -2.661  12.523  23.135  0.00  0.00    +0.000 A 
ATOM     20  C   UNL     1      -1.951  12.074  21.961  0.00  0.00    +0.000 A 
ATOM     21  C   UNL     1      -0.783  12.722  21.512  0.00  0.00    +0.000 A 
ENDBRANCH   6  12
BRANCH   1  24
ATOM     22  C4* UNL     1       5.176   4.658  17.029  0.00  0.00    +0.000 C 
ATOM     23  O4* UNL     1       4.840   5.878  17.736  0.00  0.00    +0.000 OA
ATOM     24  C1* UNL     1       3.522   5.757  18.338  0.00  0.00    +0.000 C 
ATOM     25  C2* UNL     1       2.854   4.521  17.688  0.00  0.00    +0.000 C 
ATOM     26  C3* UNL     1       4.040   3.659  17.227  0.00  0.00    +0.000 C 
BRANCH  25  27
ATOM     27  O2* UNL     1       2.077   3.746  18.618  0.00  0.00    +0.000 OA
ATOM     28  H2* UNL     1       1.849   4.371  19.348  0.00  0.00    +0.000 HD
ENDBRANCH  25  27
BRANCH  26  29
ATOM     29  O3* UNL     1       4.311   2.702  18.282  0.00  0.00    +0.000 OA
ATOM     30  H3* UNL     1       3.528   2.139  18.427  0.00  0.00    +0.000 HD
ENDBRANCH  26  29
BRANCH  22  31
ATOM     31  C5* UNL     1       5.429   4.991  15.555  0.00  0.00    +0.000 C 
BRANCH  31  32
ATOM     32  O5* UNL     1       5.654   6.384  15.371  0.00  0.00    +0.000 OA
ATOM     33  H5* UNL     1       5.029   6.853  15.955  0.00  0.00    +0.000 HD
ENDBRANCH  31  32
ENDBRANCH  22  31
ENDBRANCH   1  24
TORSDOF 6
ENDMDL
MODEL 6
REMARK VINA RESULT:      -7.3      1.660      2.555
REMARK  Name = 
REMARK  6 active torsions:
REMARK  status: ('A' for Active; 'I' for Inactive)
REMARK    1  A    between atoms: O5*_1  and  C5*_2
REMARK    2  A    between atoms: C5*_2  and  C4*_3
REMARK    3  A    between atoms: C1*_5  and  N_6
REMARK    4  A    between atoms: N_11  and  C_12
REMARK    5  A    between atoms: C2*_26  and  O2*_27
REMARK    6  A    between atoms: C3*_28  and  O3*_29
REMARK                            x       y       z     vdW  Elec       q    Type
REMARK                         _______ _______ _______ _____ _____    ______ ____
ROOT
ATOM      1  N   UNL     1       3.188   6.967  18.713  0.00  0.00    +0.000 N 
ATOM      2  C   UNL     1       3.317   7.659  17.518  0.00  0.00    +0.000 A 
ATOM      3  N   UNL     1       2.495   8.706  17.433  0.00  0.00    +0.000 NA
ATOM      4  C   UNL     1       1.771   8.756  18.623  0.00  0.00    +0.000 A 
ATOM      5  C   UNL     1       0.718   9.675  19.166  0.00  0.00    +0.000 A 
ATOM      6  N   UNL     1      -0.033  10.777  18.523  0.00  0.00    +0.000 N 
ATOM      7  N   UNL     1       0.323   9.345  20.431  0.00  0.00    +0.000 NA
ATOM      8  C   UNL     1       0.835   8.248  21.054  0.00  0.00    +0.000 A 
ATOM      9  N   UNL     1       1.760   7.352  20.642  0.00  0.00    +0.000 NA
ATOM     10  C   UNL     1       2.211   7.661  19.420  0.00  0.00    +0.000 A 
ATOM     11  H   UNL     1       0.402  10.904  17.608  0.00  0.00    +0.000 HD
ENDROOT
BRANCH   6  12
ATOM     12  C   UNL     1      -0.157  12.123  19.299  0.00  0.00    +0.000 C 
ATOM     13  C   UNL     1       0.625  13.157  18.441  0.00  0.00    +0.000 C 
ATOM     14  C   UNL     1       0.578  14.636  18.814  0.00  0.00    +0.000 C 
ATOM     15  S   UNL     1       0.196  14.915  20.546  0.00  0.00    +0.000 S 
ATOM     16  C   UNL     1      -1.372  14.060  20.502  0.00  0.00    +0.000 A 
ATOM     17  C   UNL     1      -2.430  14.753  21.156  0.00  0.00    +0.000 A 
ATOM     18  C   UNL     1      -3.716  14.243  21.105  0.00  0.00    +0.000 A 
ATOM     19  C   UNL     1      -3.927  13.076  20.384  0.00  0.00    +0.000 A 
ATOM     20  C   UNL     1      -2.853  12.358  19.742  0.00  0.00    +0.000 A 
ATOM     21  C   UNL     1      -1.521  12.818  19.796  0.00  0.00    +0.000 A 
ENDBRANCH   6  12
BRANCH   1  24
ATOM     22  C4* UNL     1       6.017   4.749  18.369  0.00  0.00    +0.000 C 
ATOM     23  O4* UNL     1       5.367   5.967  18.810  0.00  0.00    +0.000 OA
ATOM     24  C1* UNL     1       3.947   5.728  19.013  0.00  0.00    +0.000 C 
ATOM     25  C2* UNL     1       3.629   4.373  18.336  0.00  0.00    +0.000 C 
ATOM     26  C3* UNL     1       4.976   3.633  18.335  0.00  0.00    +0.000 C 
BRANCH  25  27
ATOM     27  O2* UNL     1       2.686   3.579  19.078  0.00  0.00    +0.000 OA
ATOM     28  H2* UNL     1       2.754   3.901  20.010  0.00  0.00    +0.000 HD
ENDBRANCH  25  27
BRANCH  26  29
ATOM     29  O3* UNL     1       5.008   2.800  19.521  0.00  0.00    +0.000 OA
ATOM     30  H3* UNL     1       4.109   2.488  19.731  0.00  0.00    +0.000 HD
ENDBRANCH  26  29
BRANCH  22  31
ATOM     31  C5* UNL     1       6.668   4.999  17.004  0.00  0.00    +0.000 C 
BRANCH  31  32
ATOM     32  O5* UNL     1       7.953   4.393  16.926  0.00  0.00    +0.000 OA
ATOM     33  H5* UNL     1       7.963   3.661  17.571  0.00  0.00    +0.000 HD
ENDBRANCH  31  32
ENDBRANCH  22  31
ENDBRANCH   1  24
TORSDOF 6
ENDMDL
MODEL 7
REMARK VINA RESULT:      -7.2      4.442      8.853
REMARK  Name = 
REMARK  6 active torsions:
REMARK  status: ('A' for Active; 'I' for Inactive)
REMARK    1  A    between atoms: O5*_1  and  C5*_2
REMARK    2  A    between atoms: C5*_2  and  C4*_3
REMARK    3  A    between atoms: C1*_5  and  N_6
REMARK    4  A    between atoms: N_11  and  C_12
REMARK    5  A    between atoms: C2*_26  and  O2*_27
REMARK    6  A    between atoms: C3*_28  and  O3*_29
REMARK                            x       y       z     vdW  Elec       q    Type
REMARK                         _______ _______ _______ _____ _____    ______ ____
ROOT
ATOM      1  N   UNL     1       0.070  11.434  19.453  0.00  0.00    +0.000 N 
ATOM      2  C   UNL     1       0.907  11.558  18.354  0.00  0.00    +0.000 A 
ATOM      3  N   UNL     1       1.681  10.488  18.168  0.00  0.00    +0.000 NA
ATOM      4  C   UNL     1       1.363   9.573  19.171  0.00  0.00    +0.000 A 
ATOM      5  C   UNL     1       1.844   8.196  19.518  0.00  0.00    +0.000 A 
ATOM      6  N   UNL     1       2.966   7.396  18.978  0.00  0.00    +0.000 N 
ATOM      7  N   UNL     1       1.192   7.658  20.591  0.00  0.00    +0.000 NA
ATOM      8  C   UNL     1       0.252   8.377  21.263  0.00  0.00    +0.000 A 
ATOM      9  N   UNL     1      -0.228   9.623  21.046  0.00  0.00    +0.000 NA
ATOM     10  C   UNL     1       0.352  10.175  19.973  0.00  0.00    +0.000 A 
ATOM     11  H   UNL     1       3.318   7.926  18.180  0.00  0.00    +0.000 HD
ENDROOT
BRANCH   6  12
ATOM     12  C   UNL     1       2.687   5.907  18.610  0.00  0.00    +0.000 C 
ATOM     13  C   UNL     1       3.836   5.509  17.640  0.00  0.00    +0.000 C 
ATOM     14  C   UNL     1       3.981   4.056  17.199  0.00  0.00    +0.000 C 
ATOM     15  S   UNL     1       2.447   3.130  17.304  0.00  0.00    +0.000 S 
ATOM     16  C   UNL     1       2.215   3.406  19.054  0.00  0.00    +0.000 A 
ATOM     17  C   UNL     1       1.841   2.240  19.781  0.00  0.00    +0.000 A 
ATOM     18  C   UNL     1       1.730   2.301  21.160  0.00  0.00    +0.000 A 
ATOM     19  C   UNL     1       2.019   3.504  21.786  0.00  0.00    +0.000 A 
ATOM     20  C   UNL     1       2.374   4.694  21.050  0.00  0.00    +0.000 A 
ATOM     21  C   UNL     1       2.465   4.692  19.643  0.00  0.00    +0.000 A 
ENDBRANCH   6  12
BRANCH   1  24
ATOM     22  C4* UNL     1      -1.458  13.539  21.958  0.00  0.00    +0.000 C 
ATOM     23  O4* UNL     1      -0.346  13.078  21.151  0.00  0.00    +0.000 OA
ATOM     24  C1* UNL     1      -0.836  12.520  19.901  0.00  0.00    +0.000 C 
ATOM     25  C2* UNL     1      -2.360  12.311  20.081  0.00  0.00    +0.000 C 
ATOM     26  C3* UNL     1      -2.747  13.324  21.170  0.00  0.00    +0.000 C 
BRANCH  25  27
ATOM     27  O2* UNL     1      -3.116  12.621  18.897  0.00  0.00    +0.000 OA
ATOM     28  H2* UNL     1      -2.823  13.527  18.633  0.00  0.00    +0.000 HD
ENDBRANCH  25  27
BRANCH  26  29
ATOM     29  O3* UNL     1      -3.199  14.526  20.496  0.00  0.00    +0.000 OA
ATOM     30  H3* UNL     1      -3.251  15.262  21.133  0.00  0.00    +0.000 HD
ENDBRANCH  26  29
BRANCH  22  31
ATOM     31  C5* UNL     1      -1.445  12.791  23.296  0.00  0.00    +0.000 C 
BRANCH  31  32
ATOM     32  O5* UNL     1      -0.662  11.606  23.218  0.00  0.00    +0.000 OA
ATOM     33  H5* UNL     1      -0.483  11.321  24.134  0.00  0.00    +0.000 HD
ENDBRANCH  31  32
ENDBRANCH  22  31
ENDBRANCH   1  24
TORSDOF 6
ENDMDL
MODEL 8
REMARK VINA RESULT:      -7.2      2.195      3.136
REMARK  Name = 
REMARK  6 active torsions:
REMARK  status: ('A' for Active; 'I' for Inactive)
REMARK    1  A    between atoms: O5*_1  and  C5*_2
REMARK    2  A    between atoms: C5*_2  and  C4*_3
REMARK    3  A    between atoms: C1*_5  and  N_6
REMARK    4  A    between atoms: N_11  and  C_12
REMARK    5  A    between atoms: C2*_26  and  O2*_27
REMARK    6  A    between atoms: C3*_28  and  O3*_29
REMARK                            x       y       z     vdW  Elec       q    Type
REMARK                         _______ _______ _______ _____ _____    ______ ____
ROOT
ATOM      1  N   UNL     1       2.545   6.506  19.048  0.00  0.00    +0.000 N 
ATOM      2  C   UNL     1       2.055   6.227  20.315  0.00  0.00    +0.000 A 
ATOM      3  N   UNL     1       1.461   7.278  20.884  0.00  0.00    +0.000 NA
ATOM      4  C   UNL     1       1.529   8.330  19.973  0.00  0.00    +0.000 A 
ATOM      5  C   UNL     1       1.048   9.750  19.983  0.00  0.00    +0.000 A 
ATOM      6  N   UNL     1       0.463  10.570  21.068  0.00  0.00    +0.000 N 
ATOM      7  N   UNL     1       1.311  10.410  18.815  0.00  0.00    +0.000 NA
ATOM      8  C   UNL     1       1.992   9.796  17.810  0.00  0.00    +0.000 A 
ATOM      9  N   UNL     1       2.484   8.539  17.717  0.00  0.00    +0.000 NA
ATOM     10  C   UNL     1       2.210   7.838  18.824  0.00  0.00    +0.000 A 
ATOM     11  H   UNL     1       0.313   9.923  21.845  0.00  0.00    +0.000 HD
ENDROOT
BRANCH   6  12
ATOM     12  C   UNL     1      -0.816  11.398  20.745  0.00  0.00    +0.000 C 
ATOM     13  C   UNL     1      -0.339  12.878  20.701  0.00  0.00    +0.000 C 
ATOM     14  C   UNL     1      -1.304  13.968  20.244  0.00  0.00    +0.000 C 
ATOM     15  S   UNL     1      -3.028  13.520  20.459  0.00  0.00    +0.000 S 
ATOM     16  C   UNL     1      -2.941  12.059  19.432  0.00  0.00    +0.000 A 
ATOM     17  C   UNL     1      -4.023  11.928  18.517  0.00  0.00    +0.000 A 
ATOM     18  C   UNL     1      -4.019  10.893  17.598  0.00  0.00    +0.000 A 
ATOM     19  C   UNL     1      -2.931  10.032  17.589  0.00  0.00    +0.000 A 
ATOM     20  C   UNL     1      -1.845  10.148  18.532  0.00  0.00    +0.000 A 
ATOM     21  C   UNL     1      -1.822  11.163  19.510  0.00  0.00    +0.000 A 
ENDBRANCH   6  12
BRANCH   1  24
ATOM     22  C4* UNL     1       3.001   3.284  17.483  0.00  0.00    +0.000 C 
ATOM     23  O4* UNL     1       2.376   4.584  17.621  0.00  0.00    +0.000 OA
ATOM     24  C1* UNL     1       3.302   5.518  18.242  0.00  0.00    +0.000 C 
ATOM     25  C2* UNL     1       4.452   4.667  18.833  0.00  0.00    +0.000 C 
ATOM     26  C3* UNL     1       4.438   3.384  17.989  0.00  0.00    +0.000 C 
BRANCH  25  27
ATOM     27  O2* UNL     1       5.744   5.283  18.684  0.00  0.00    +0.000 OA
ATOM     28  H2* UNL     1       5.738   5.679  17.779  0.00  0.00    +0.000 HD
ENDBRANCH  25  27
BRANCH  26  29
ATOM     29  O3* UNL     1       5.398   3.564  16.917  0.00  0.00    +0.000 OA
ATOM     30  H3* UNL     1       6.301   3.422  17.255  0.00  0.00    +0.000 HD
ENDBRANCH  26  29
BRANCH  22  31
ATOM     31  C5* UNL     1       2.170   2.249  18.249  0.00  0.00    +0.000 C 
BRANCH  31  32
ATOM     32  O5* UNL     1       0.783   2.564  18.204  0.00  0.00    +0.000 OA
ATOM     33  H5* UNL     1       0.712   3.537  18.189  0.00  0.00    +0.000 HD
ENDBRANCH  31  32
ENDBRANCH  22  31
ENDBRANCH   1  24
TORSDOF 6
ENDMDL
MODEL 9
REMARK VINA RESULT:      -7.2      4.397      9.300
REMARK  Name = 
REMARK  6 active torsions:
REMARK  status: ('A' for Active; 'I' for Inactive)
REMARK    1  A    between atoms: O5*_1  and  C5*_2
REMARK    2  A    between atoms: C5*_2  and  C4*_3
REMARK    3  A    between atoms: C1*_5  and  N_6
REMARK    4  A    between atoms: N_11  and  C_12
REMARK    5  A    between atoms: C2*_26  and  O2*_27
REMARK    6  A    between atoms: C3*_28  and  O3*_29
REMARK                            x       y       z     vdW  Elec       q    Type
REMARK                         _______ _______ _______ _____ _____    ______ ____
ROOT
ATOM      1  N   UNL     1       0.159   9.697  20.623  0.00  0.00    +0.000 N 
ATOM      2  C   UNL     1       0.306   8.600  21.458  0.00  0.00    +0.000 A 
ATOM      3  N   UNL     1       1.100   7.659  20.945  0.00  0.00    +0.000 NA
ATOM      4  C   UNL     1       1.535   8.123  19.704  0.00  0.00    +0.000 A 
ATOM      5  C   UNL     1       2.441   7.572  18.644  0.00  0.00    +0.000 A 
ATOM      6  N   UNL     1       3.063   6.237  18.497  0.00  0.00    +0.000 N 
ATOM      7  N   UNL     1       2.611   8.426  17.591  0.00  0.00    +0.000 NA
ATOM      8  C   UNL     1       1.951   9.616  17.551  0.00  0.00    +0.000 A 
ATOM      9  N   UNL     1       1.103  10.185  18.437  0.00  0.00    +0.000 NA
ATOM     10  C   UNL     1       0.940   9.401  19.510  0.00  0.00    +0.000 A 
ATOM     11  H   UNL     1       2.859   5.745  19.369  0.00  0.00    +0.000 HD
ENDROOT
BRANCH   6  12
ATOM     12  C   UNL     1       4.577   6.175  18.134  0.00  0.00    +0.000 C 
ATOM     13  C   UNL     1       5.280   5.665  19.424  0.00  0.00    +0.000 C 
ATOM     14  C   UNL     1       6.767   5.322  19.387  0.00  0.00    +0.000 C 
ATOM     15  S   UNL     1       7.655   6.173  18.079  0.00  0.00    +0.000 S 
ATOM     16  C   UNL     1       6.656   5.509  16.753  0.00  0.00    +0.000 A 
ATOM     17  C   UNL     1       7.409   5.042  15.638  0.00  0.00    +0.000 A 
ATOM     18  C   UNL     1       6.758   4.413  14.590  0.00  0.00    +0.000 A 
ATOM     19  C   UNL     1       5.386   4.238  14.685  0.00  0.00    +0.000 A 
ATOM     20  C   UNL     1       4.617   4.733  15.802  0.00  0.00    +0.000 A 
ATOM     21  C   UNL     1       5.229   5.411  16.876  0.00  0.00    +0.000 A 
ENDBRANCH   6  12
BRANCH   1  24
ATOM     22  C4* UNL     1      -1.561  12.773  19.835  0.00  0.00    +0.000 C 
ATOM     23  O4* UNL     1      -1.336  11.346  19.725  0.00  0.00    +0.000 OA
ATOM     24  C1* UNL     1      -0.727  10.842  20.946  0.00  0.00    +0.000 C 
ATOM     25  C2* UNL     1      -0.232  12.080  21.732  0.00  0.00    +0.000 C 
ATOM     26  C3* UNL     1      -1.128  13.223  21.228  0.00  0.00    +0.000 C 
BRANCH  25  27
ATOM     27  O2* UNL     1      -0.424  11.960  23.153  0.00  0.00    +0.000 OA
ATOM     28  H2* UNL     1      -0.142  12.831  23.526  0.00  0.00    +0.000 HD
ENDBRANCH  25  27
BRANCH  26  29
ATOM     29  O3* UNL     1      -2.241  13.335  22.152  0.00  0.00    +0.000 OA
ATOM     30  H3* UNL     1      -2.316  14.255  22.467  0.00  0.00    +0.000 HD
ENDBRANCH  26  29
BRANCH  22  31
ATOM     31  C5* UNL     1      -0.796  13.485  18.714  0.00  0.00    +0.000 C 
BRANCH  31  32
ATOM     32  O5* UNL     1      -0.801  12.717  17.516  0.00  0.00    +0.000 OA
ATOM     33  H5* UNL     1      -1.222  13.265  16.828  0.00  0.00    +0.000 HD
ENDBRANCH  31  32
ENDBRANCH  22  31
ENDBRANCH   1  24
TORSDOF 6
ENDMDL
