MODEL 1
REMARK VINA RESULT:      -7.3      0.000      0.000
REMARK  Name = 
REMARK  5 active torsions:
REMARK  status: ('A' for Active; 'I' for Inactive)
REMARK    1  A    between atoms: C_1  and  C_2
REMARK    2  A    between atoms: C_7  and  C_8
REMARK    3  A    between atoms: C_8  and  O_9
REMARK    4  A    between atoms: O_9  and  C_10
REMARK    5  A    between atoms: C_13  and  C_14
REMARK                            x       y       z     vdW  Elec       q    Type
REMARK                         _______ _______ _______ _____ _____    ______ ____
ROOT
ATOM      1  C   UNL     1       5.679   2.521  11.218  0.00  0.00    +0.000 C 
ATOM      2  C   UNL     1       6.161   3.356  12.364  0.00  0.00    +0.000 A 
ATOM      3  C   UNL     1       7.183   4.374  12.121  0.00  0.00    +0.000 A 
ATOM      4  C   UNL     1       7.652   5.157  13.113  0.00  0.00    +0.000 A 
ATOM      5  C   UNL     1       7.151   5.003  14.435  0.00  0.00    +0.000 A 
ATOM      6  N   UNL     1       7.451   5.618  15.558  0.00  0.00    +0.000 NA
ATOM      7  C   UNL     1       6.646   5.047  16.524  0.00  0.00    +0.000 A 
ATOM      8  C   UNL     1       5.855   4.061  15.967  0.00  0.00    +0.000 A 
ATOM      9  N   UNL     1       6.179   4.031  14.634  0.00  0.00    +0.000 N 
ATOM     10  C   UNL     1       5.688   3.213  13.619  0.00  0.00    +0.000 A 
ENDROOT
BRANCH   7  11
ATOM     11  C   UNL     1       6.765   5.467  17.953  0.00  0.00    +0.000 C 
BRANCH  11  12
ATOM     12  O   UNL     1       6.428   4.409  18.861  0.00  0.00    +0.000 OA
BRANCH  12  13
ATOM     13  C   UNL     1       5.116   4.378  19.246  0.00  0.00    +0.000 A 
ATOM     14  C   UNL     1       4.293   5.488  19.415  0.00  0.00    +0.000 A 
ATOM     15  C   UNL     1       2.977   5.317  19.843  0.00  0.00    +0.000 A 
ATOM     16  C   UNL     1       2.505   4.032  20.086  0.00  0.00    +0.000 A 
ATOM     17  C   UNL     1       1.121   3.815  20.619  0.00  0.00    +0.000 C 
ATOM     18  N   UNL     1       3.271   2.933  19.890  0.00  0.00    +0.000 NA
ATOM     19  C   UNL     1       4.545   3.131  19.464  0.00  0.00    +0.000 A 
ENDBRANCH  12  13
ENDBRANCH  11  12
ENDBRANCH   7  11
TORSDOF 3
ENDMDL
MODEL 2
REMARK VINA RESULT:      -7.2      0.663      1.107
REMARK  Name = 
REMARK  5 active torsions:
REMARK  status: ('A' for Active; 'I' for Inactive)
REMARK    1  A    between atoms: C_1  and  C_2
REMARK    2  A    between atoms: C_7  and  C_8
REMARK    3  A    between atoms: C_8  and  O_9
REMARK    4  A    between atoms: O_9  and  C_10
REMARK    5  A    between atoms: C_13  and  C_14
REMARK                            x       y       z     vdW  Elec       q    Type
REMARK                         _______ _______ _______ _____ _____    ______ ____
ROOT
ATOM      1  C   UNL     1       5.577   2.497  11.173  0.00  0.00    +0.000 C 
ATOM      2  C   UNL     1       6.079   3.323  12.318  0.00  0.00    +0.000 A 
ATOM      3  C   UNL     1       7.143   4.297  12.078  0.00  0.00    +0.000 A 
ATOM      4  C   UNL     1       7.631   5.070  13.069  0.00  0.00    +0.000 A 
ATOM      5  C   UNL     1       7.110   4.947  14.386  0.00  0.00    +0.000 A 
ATOM      6  N   UNL     1       7.420   5.560  15.508  0.00  0.00    +0.000 NA
ATOM      7  C   UNL     1       6.583   5.029  16.469  0.00  0.00    +0.000 A 
ATOM      8  C   UNL     1       5.759   4.070  15.911  0.00  0.00    +0.000 A 
ATOM      9  N   UNL     1       6.097   4.016  14.582  0.00  0.00    +0.000 N 
ATOM     10  C   UNL     1       5.586   3.209  13.568  0.00  0.00    +0.000 A 
ENDROOT
BRANCH   7  11
ATOM     11  C   UNL     1       6.702   5.457  17.895  0.00  0.00    +0.000 C 
BRANCH  11  12
ATOM     12  O   UNL     1       6.477   4.374  18.809  0.00  0.00    +0.000 OA
BRANCH  12  13
ATOM     13  C   UNL     1       5.184   4.243  19.238  0.00  0.00    +0.000 A 
ATOM     14  C   UNL     1       4.541   3.042  19.521  0.00  0.00    +0.000 A 
ATOM     15  C   UNL     1       3.205   3.048  19.923  0.00  0.00    +0.000 A 
ATOM     16  C   UNL     1       2.540   4.263  20.041  0.00  0.00    +0.000 A 
ATOM     17  C   UNL     1       1.083   4.304  20.395  0.00  0.00    +0.000 C 
ATOM     18  N   UNL     1       3.152   5.448  19.810  0.00  0.00    +0.000 NA
ATOM     19  C   UNL     1       4.456   5.410  19.430  0.00  0.00    +0.000 A 
ENDBRANCH  12  13
ENDBRANCH  11  12
ENDBRANCH   7  11
TORSDOF 3
ENDMDL
MODEL 3
REMARK VINA RESULT:      -7.2      2.604      6.626
REMARK  Name = 
REMARK  5 active torsions:
REMARK  status: ('A' for Active; 'I' for Inactive)
REMARK    1  A    between atoms: C_1  and  C_2
REMARK    2  A    between atoms: C_7  and  C_8
REMARK    3  A    between atoms: C_8  and  O_9
REMARK    4  A    between atoms: O_9  and  C_10
REMARK    5  A    between atoms: C_13  and  C_14
REMARK                            x       y       z     vdW  Elec       q    Type
REMARK                         _______ _______ _______ _____ _____    ______ ____
ROOT
ATOM      1  C   UNL     1       1.128   2.544  22.107  0.00  0.00    +0.000 C 
ATOM      2  C   UNL     1       1.811   3.248  20.975  0.00  0.00    +0.000 A 
ATOM      3  C   UNL     1       1.665   4.698  20.850  0.00  0.00    +0.000 A 
ATOM      4  C   UNL     1       2.260   5.386  19.854  0.00  0.00    +0.000 A 
ATOM      5  C   UNL     1       3.051   4.700  18.893  0.00  0.00    +0.000 A 
ATOM      6  N   UNL     1       3.708   5.128  17.837  0.00  0.00    +0.000 NA
ATOM      7  C   UNL     1       4.291   4.009  17.278  0.00  0.00    +0.000 A 
ATOM      8  C   UNL     1       3.967   2.883  18.011  0.00  0.00    +0.000 A 
ATOM      9  N   UNL     1       3.173   3.324  19.040  0.00  0.00    +0.000 N 
ATOM     10  C   UNL     1       2.562   2.601  20.062  0.00  0.00    +0.000 A 
ENDROOT
BRANCH   7  11
ATOM     11  C   UNL     1       5.074   4.117  16.011  0.00  0.00    +0.000 C 
BRANCH  11  12
ATOM     12  O   UNL     1       6.489   4.040  16.237  0.00  0.00    +0.000 OA
BRANCH  12  13
ATOM     13  C   UNL     1       7.022   5.106  16.908  0.00  0.00    +0.000 A 
ATOM     14  C   UNL     1       7.557   5.072  18.193  0.00  0.00    +0.000 A 
ATOM     15  C   UNL     1       8.043   6.243  18.774  0.00  0.00    +0.000 A 
ATOM     16  C   UNL     1       7.990   7.430  18.050  0.00  0.00    +0.000 A 
ATOM     17  C   UNL     1       8.432   8.721  18.670  0.00  0.00    +0.000 C 
ATOM     18  N   UNL     1       7.513   7.484  16.785  0.00  0.00    +0.000 NA
ATOM     19  C   UNL     1       7.056   6.325  16.243  0.00  0.00    +0.000 A 
ENDBRANCH  12  13
ENDBRANCH  11  12
ENDBRANCH   7  11
TORSDOF 3
ENDMDL
MODEL 4
REMARK VINA RESULT:      -7.0      2.822      7.326
REMARK  Name = 
REMARK  5 active torsions:
REMARK  status: ('A' for Active; 'I' for Inactive)
REMARK    1  A    between atoms: C_1  and  C_2
REMARK    2  A    between atoms: C_7  and  C_8
REMARK    3  A    between atoms: C_8  and  O_9
REMARK    4  A    between atoms: O_9  and  C_10
REMARK    5  A    between atoms: C_13  and  C_14
REMARK                            x       y       z     vdW  Elec       q    Type
REMARK                         _______ _______ _______ _____ _____    ______ ____
ROOT
ATOM      1  C   UNL     1       0.697  10.930  18.746  0.00  0.00    +0.000 C 
ATOM      2  C   UNL     1       1.246   9.579  19.091  0.00  0.00    +0.000 A 
ATOM      3  C   UNL     1       0.973   9.019  20.414  0.00  0.00    +0.000 A 
ATOM      4  C   UNL     1       1.438   7.807  20.779  0.00  0.00    +0.000 A 
ATOM      5  C   UNL     1       2.214   7.042  19.867  0.00  0.00    +0.000 A 
ATOM      6  N   UNL     1       2.788   5.864  19.984  0.00  0.00    +0.000 NA
ATOM      7  C   UNL     1       3.412   5.629  18.775  0.00  0.00    +0.000 A 
ATOM      8  C   UNL     1       3.216   6.696  17.919  0.00  0.00    +0.000 A 
ATOM      9  N   UNL     1       2.454   7.599  18.617  0.00  0.00    +0.000 N 
ATOM     10  C   UNL     1       1.983   8.851  18.228  0.00  0.00    +0.000 A 
ENDROOT
BRANCH   7  11
ATOM     11  C   UNL     1       4.224   4.392  18.571  0.00  0.00    +0.000 C 
BRANCH  11  12
ATOM     12  O   UNL     1       5.607   4.683  18.322  0.00  0.00    +0.000 OA
BRANCH  12  13
ATOM     13  C   UNL     1       5.962   4.700  17.001  0.00  0.00    +0.000 A 
ATOM     14  C   UNL     1       5.333   3.989  15.983  0.00  0.00    +0.000 A 
ATOM     15  C   UNL     1       5.817   4.072  14.677  0.00  0.00    +0.000 A 
ATOM     16  C   UNL     1       6.921   4.876  14.415  0.00  0.00    +0.000 A 
ATOM     17  C   UNL     1       7.515   4.930  13.039  0.00  0.00    +0.000 C 
ATOM     18  N   UNL     1       7.526   5.609  15.378  0.00  0.00    +0.000 NA
ATOM     19  C   UNL     1       7.026   5.515  16.637  0.00  0.00    +0.000 A 
ENDBRANCH  12  13
ENDBRANCH  11  12
ENDBRANCH   7  11
TORSDOF 3
ENDMDL
MODEL 5
REMARK VINA RESULT:      -6.8      2.906      4.551
REMARK  Name = 
REMARK  5 active torsions:
REMARK  status: ('A' for Active; 'I' for Inactive)
REMARK    1  A    between atoms: C_1  and  C_2
REMARK    2  A    between atoms: C_7  and  C_8
REMARK    3  A    between atoms: C_8  and  O_9
REMARK    4  A    between atoms: O_9  and  C_10
REMARK    5  A    between atoms: C_13  and  C_14
REMARK                            x       y       z     vdW  Elec       q    Type
REMARK                         _______ _______ _______ _____ _____    ______ ____
ROOT
ATOM      1  C   UNL     1       8.548   9.684  18.091  0.00  0.00    +0.000 C 
ATOM      2  C   UNL     1       7.979   8.299  18.067  0.00  0.00    +0.000 A 
ATOM      3  C   UNL     1       8.455   7.319  19.043  0.00  0.00    +0.000 A 
ATOM      4  C   UNL     1       7.976   6.058  19.072  0.00  0.00    +0.000 A 
ATOM      5  C   UNL     1       6.984   5.656  18.137  0.00  0.00    +0.000 A 
ATOM      6  N   UNL     1       6.380   4.503  17.948  0.00  0.00    +0.000 NA
ATOM      7  C   UNL     1       5.513   4.702  16.893  0.00  0.00    +0.000 A 
ATOM      8  C   UNL     1       5.608   6.001  16.432  0.00  0.00    +0.000 A 
ATOM      9  N   UNL     1       6.549   6.610  17.225  0.00  0.00    +0.000 N 
ATOM     10  C   UNL     1       7.037   7.913  17.182  0.00  0.00    +0.000 A 
ENDROOT
BRANCH   7  11
ATOM     11  C   UNL     1       4.696   3.570  16.361  0.00  0.00    +0.000 C 
BRANCH  11  12
ATOM     12  O   UNL     1       3.287   3.824  16.455  0.00  0.00    +0.000 OA
BRANCH  12  13
ATOM     13  C   UNL     1       2.758   3.667  17.707  0.00  0.00    +0.000 A 
ATOM     14  C   UNL     1       2.231   4.684  18.499  0.00  0.00    +0.000 A 
ATOM     15  C   UNL     1       1.749   4.390  19.775  0.00  0.00    +0.000 A 
ATOM     16  C   UNL     1       1.796   3.078  20.231  0.00  0.00    +0.000 A 
ATOM     17  C   UNL     1       1.358   2.738  21.624  0.00  0.00    +0.000 C 
ATOM     18  N   UNL     1       2.265   2.064  19.466  0.00  0.00    +0.000 NA
ATOM     19  C   UNL     1       2.719   2.379  18.226  0.00  0.00    +0.000 A 
ENDBRANCH  12  13
ENDBRANCH  11  12
ENDBRANCH   7  11
TORSDOF 3
ENDMDL
MODEL 6
REMARK VINA RESULT:      -6.7      2.673      6.735
REMARK  Name = 
REMARK  5 active torsions:
REMARK  status: ('A' for Active; 'I' for Inactive)
REMARK    1  A    between atoms: C_1  and  C_2
REMARK    2  A    between atoms: C_7  and  C_8
REMARK    3  A    between atoms: C_8  and  O_9
REMARK    4  A    between atoms: O_9  and  C_10
REMARK    5  A    between atoms: C_13  and  C_14
REMARK                            x       y       z     vdW  Elec       q    Type
REMARK                         _______ _______ _______ _____ _____    ______ ____
ROOT
ATOM      1  C   UNL     1       1.058   7.803  21.205  0.00  0.00    +0.000 C 
ATOM      2  C   UNL     1       1.763   6.730  20.432  0.00  0.00    +0.000 A 
ATOM      3  C   UNL     1       1.740   5.358  20.939  0.00  0.00    +0.000 A 
ATOM      4  C   UNL     1       2.353   4.351  20.284  0.00  0.00    +0.000 A 
ATOM      5  C   UNL     1       3.044   4.613  19.070  0.00  0.00    +0.000 A 
ATOM      6  N   UNL     1       3.724   3.824  18.266  0.00  0.00    +0.000 NA
ATOM      7  C   UNL     1       4.177   4.633  17.243  0.00  0.00    +0.000 A 
ATOM      8  C   UNL     1       3.767   5.937  17.445  0.00  0.00    +0.000 A 
ATOM      9  N   UNL     1       3.046   5.925  18.612  0.00  0.00    +0.000 N 
ATOM     10  C   UNL     1       2.420   6.974  19.280  0.00  0.00    +0.000 A 
ENDROOT
BRANCH   7  11
ATOM     11  C   UNL     1       5.049   4.073  16.166  0.00  0.00    +0.000 C 
BRANCH  11  12
ATOM     12  O   UNL     1       6.406   3.904  16.599  0.00  0.00    +0.000 OA
BRANCH  12  13
ATOM     13  C   UNL     1       6.974   5.016  17.158  0.00  0.00    +0.000 A 
ATOM     14  C   UNL     1       7.410   5.129  18.475  0.00  0.00    +0.000 A 
ATOM     15  C   UNL     1       7.946   6.335  18.927  0.00  0.00    +0.000 A 
ATOM     16  C   UNL     1       8.042   7.405  18.045  0.00  0.00    +0.000 A 
ATOM     17  C   UNL     1       8.541   8.739  18.516  0.00  0.00    +0.000 C 
ATOM     18  N   UNL     1       7.664   7.310  16.749  0.00  0.00    +0.000 NA
ATOM     19  C   UNL     1       7.155   6.120  16.336  0.00  0.00    +0.000 A 
ENDBRANCH  12  13
ENDBRANCH  11  12
ENDBRANCH   7  11
TORSDOF 3
ENDMDL
MODEL 7
REMARK VINA RESULT:      -6.7      3.448      7.466
REMARK  Name = 
REMARK  5 active torsions:
REMARK  status: ('A' for Active; 'I' for Inactive)
REMARK    1  A    between atoms: C_1  and  C_2
REMARK    2  A    between atoms: C_7  and  C_8
REMARK    3  A    between atoms: C_8  and  O_9
REMARK    4  A    between atoms: O_9  and  C_10
REMARK    5  A    between atoms: C_13  and  C_14
REMARK                            x       y       z     vdW  Elec       q    Type
REMARK                         _______ _______ _______ _____ _____    ______ ____
ROOT
ATOM      1  C   UNL     1      -0.316  11.270  20.329  0.00  0.00    +0.000 C 
ATOM      2  C   UNL     1       0.555  10.207  19.734  0.00  0.00    +0.000 A 
ATOM      3  C   UNL     1       1.055  10.380  18.370  0.00  0.00    +0.000 A 
ATOM      4  C   UNL     1       1.846   9.458  17.784  0.00  0.00    +0.000 A 
ATOM      5  C   UNL     1       2.211   8.283  18.495  0.00  0.00    +0.000 A 
ATOM      6  N   UNL     1       2.942   7.245  18.148  0.00  0.00    +0.000 NA
ATOM      7  C   UNL     1       2.948   6.408  19.246  0.00  0.00    +0.000 A 
ATOM      8  C   UNL     1       2.196   6.953  20.269  0.00  0.00    +0.000 A 
ATOM      9  N   UNL     1       1.724   8.148  19.789  0.00  0.00    +0.000 N 
ATOM     10  C   UNL     1       0.904   9.091  20.405  0.00  0.00    +0.000 A 
ENDROOT
BRANCH   7  11
ATOM     11  C   UNL     1       3.642   5.086  19.185  0.00  0.00    +0.000 C 
BRANCH  11  12
ATOM     12  O   UNL     1       5.061   5.224  19.023  0.00  0.00    +0.000 OA
BRANCH  12  13
ATOM     13  C   UNL     1       5.508   5.094  17.736  0.00  0.00    +0.000 A 
ATOM     14  C   UNL     1       4.931   4.293  16.754  0.00  0.00    +0.000 A 
ATOM     15  C   UNL     1       5.507   4.228  15.485  0.00  0.00    +0.000 A 
ATOM     16  C   UNL     1       6.650   4.975  15.222  0.00  0.00    +0.000 A 
ATOM     17  C   UNL     1       7.341   4.871  13.896  0.00  0.00    +0.000 C 
ATOM     18  N   UNL     1       7.208   5.792  16.146  0.00  0.00    +0.000 NA
ATOM     19  C   UNL     1       6.618   5.842  17.369  0.00  0.00    +0.000 A 
ENDBRANCH  12  13
ENDBRANCH  11  12
ENDBRANCH   7  11
TORSDOF 3
ENDMDL
MODEL 8
REMARK VINA RESULT:      -6.6      1.048      1.178
REMARK  Name = 
REMARK  5 active torsions:
REMARK  status: ('A' for Active; 'I' for Inactive)
REMARK    1  A    between atoms: C_1  and  C_2
REMARK    2  A    between atoms: C_7  and  C_8
REMARK    3  A    between atoms: C_8  and  O_9
REMARK    4  A    between atoms: O_9  and  C_10
REMARK    5  A    between atoms: C_13  and  C_14
REMARK                            x       y       z     vdW  Elec       q    Type
REMARK                         _______ _______ _______ _____ _____    ______ ____
ROOT
ATOM      1  C   UNL     1       4.625   2.777  11.065  0.00  0.00    +0.000 C 
ATOM      2  C   UNL     1       5.417   3.440  12.149  0.00  0.00    +0.000 A 
ATOM      3  C   UNL     1       6.733   3.993  11.830  0.00  0.00    +0.000 A 
ATOM      4  C   UNL     1       7.490   4.605  12.763  0.00  0.00    +0.000 A 
ATOM      5  C   UNL     1       7.011   4.723  14.097  0.00  0.00    +0.000 A 
ATOM      6  N   UNL     1       7.553   5.248  15.175  0.00  0.00    +0.000 NA
ATOM      7  C   UNL     1       6.627   5.070  16.183  0.00  0.00    +0.000 A 
ATOM      8  C   UNL     1       5.511   4.416  15.700  0.00  0.00    +0.000 A 
ATOM      9  N   UNL     1       5.757   4.191  14.369  0.00  0.00    +0.000 N 
ATOM     10  C   UNL     1       4.967   3.554  13.415  0.00  0.00    +0.000 A 
ENDROOT
BRANCH   7  11
ATOM     11  C   UNL     1       6.939   5.499  17.580  0.00  0.00    +0.000 C 
BRANCH  11  12
ATOM     12  O   UNL     1       6.027   6.497  18.060  0.00  0.00    +0.000 OA
BRANCH  12  13
ATOM     13  C   UNL     1       4.815   6.016  18.473  0.00  0.00    +0.000 A 
ATOM     14  C   UNL     1       3.571   6.469  18.041  0.00  0.00    +0.000 A 
ATOM     15  C   UNL     1       2.407   5.909  18.568  0.00  0.00    +0.000 A 
ATOM     16  C   UNL     1       2.512   4.897  19.516  0.00  0.00    +0.000 A 
ATOM     17  C   UNL     1       1.285   4.326  20.161  0.00  0.00    +0.000 C 
ATOM     18  N   UNL     1       3.708   4.410  19.925  0.00  0.00    +0.000 NA
ATOM     19  C   UNL     1       4.822   4.969  19.386  0.00  0.00    +0.000 A 
ENDBRANCH  12  13
ENDBRANCH  11  12
ENDBRANCH   7  11
TORSDOF 3
ENDMDL
MODEL 9
REMARK VINA RESULT:      -6.6      1.084      1.364
REMARK  Name = 
REMARK  5 active torsions:
REMARK  status: ('A' for Active; 'I' for Inactive)
REMARK    1  A    between atoms: C_1  and  C_2
REMARK    2  A    between atoms: C_7  and  C_8
REMARK    3  A    between atoms: C_8  and  O_9
REMARK    4  A    between atoms: O_9  and  C_10
REMARK    5  A    between atoms: C_13  and  C_14
REMARK                            x       y       z     vdW  Elec       q    Type
REMARK                         _______ _______ _______ _____ _____    ______ ____
ROOT
ATOM      1  C   UNL     1       5.593   2.621  11.089  0.00  0.00    +0.000 C 
ATOM      2  C   UNL     1       6.082   3.400  12.270  0.00  0.00    +0.000 A 
ATOM      3  C   UNL     1       7.142   4.390  12.079  0.00  0.00    +0.000 A 
ATOM      4  C   UNL     1       7.620   5.123  13.104  0.00  0.00    +0.000 A 
ATOM      5  C   UNL     1       7.091   4.942  14.411  0.00  0.00    +0.000 A 
ATOM      6  N   UNL     1       7.392   5.509  15.560  0.00  0.00    +0.000 NA
ATOM      7  C   UNL     1       6.552   4.933  16.492  0.00  0.00    +0.000 A 
ATOM      8  C   UNL     1       5.737   3.995  15.890  0.00  0.00    +0.000 A 
ATOM      9  N   UNL     1       6.083   3.998  14.561  0.00  0.00    +0.000 N 
ATOM     10  C   UNL     1       5.583   3.232  13.511  0.00  0.00    +0.000 A 
ENDROOT
BRANCH   7  11
ATOM     11  C   UNL     1       6.660   5.302  17.936  0.00  0.00    +0.000 C 
BRANCH  11  12
ATOM     12  O   UNL     1       5.453   5.891  18.440  0.00  0.00    +0.000 OA
BRANCH  12  13
ATOM     13  C   UNL     1       4.428   5.009  18.652  0.00  0.00    +0.000 A 
ATOM     14  C   UNL     1       4.526   3.800  19.334  0.00  0.00    +0.000 A 
ATOM     15  C   UNL     1       3.406   2.977  19.452  0.00  0.00    +0.000 A 
ATOM     16  C   UNL     1       2.202   3.388  18.890  0.00  0.00    +0.000 A 
ATOM     17  C   UNL     1       0.998   2.496  18.931  0.00  0.00    +0.000 C 
ATOM     18  N   UNL     1       2.069   4.577  18.256  0.00  0.00    +0.000 NA
ATOM     19  C   UNL     1       3.175   5.360  18.166  0.00  0.00    +0.000 A 
ENDBRANCH  12  13
ENDBRANCH  11  12
ENDBRANCH   7  11
TORSDOF 3
ENDMDL
