MODEL 1
REMARK VINA RESULT:      -8.9      0.000      0.000
REMARK  Name = 
REMARK  8 active torsions:
REMARK  status: ('A' for Active; 'I' for Inactive)
REMARK    1  A    between atoms: C_2  and  O_3
REMARK    2  A    between atoms: C_2  and  C_4
REMARK    3  A    between atoms: C_4  and  C_5
REMARK    4  A    between atoms: C_5  and  C_6
REMARK    5  A    between atoms: C_11  and  N_12
REMARK    6  A    between atoms: N_15  and  N_16
REMARK    7  A    between atoms: C_19  and  C_20
REMARK    8  A    between atoms: C_23  and  C_24
REMARK                            x       y       z     vdW  Elec       q    Type
REMARK                         _______ _______ _______ _____ _____    ______ ____
ROOT
ATOM      1  N   UNL     1      -1.919  13.264  20.508  0.00  0.00    +0.000 N 
ATOM      2  C   UNL     1      -0.896  12.590  19.929  0.00  0.00    +0.000 A 
ATOM      3  N   UNL     1      -0.531  11.358  20.205  0.00  0.00    +0.000 NA
ATOM      4  C   UNL     1       0.541  10.991  19.417  0.00  0.00    +0.000 A 
ATOM      5  C   UNL     1       1.018  11.994  18.593  0.00  0.00    +0.000 A 
ATOM      6  S   UNL     1       0.044  13.388  18.729  0.00  0.00    +0.000 S 
ATOM      7  H   UNL     1      -2.029  14.216  20.161  0.00  0.00    +0.000 HD
ENDROOT
BRANCH   4   8
ATOM      8  C   UNL     1       1.080   9.635  19.442  0.00  0.00    +0.000 A 
ATOM      9  C   UNL     1       1.704   9.079  18.318  0.00  0.00    +0.000 A 
ATOM     10  C   UNL     1       2.300   7.809  18.385  0.00  0.00    +0.000 A 
ATOM     11  C   UNL     1       2.284   7.066  19.577  0.00  0.00    +0.000 A 
ATOM     12  C   UNL     1       1.597   7.610  20.665  0.00  0.00    +0.000 A 
ATOM     13  C   UNL     1       1.023   8.873  20.609  0.00  0.00    +0.000 A 
BRANCH  11  14
ATOM     14  C   UNL     1       2.968   5.705  19.650  0.00  0.00    +0.000 C 
ATOM     15  C   UNL     1       2.331   4.772  20.700  0.00  0.00    +0.000 C 
ATOM     16  C   UNL     1       0.995   4.183  20.249  0.00  0.00    +0.000 C 
ATOM     17  C   UNL     1       1.091   3.476  18.900  0.00  0.00    +0.000 C 
ATOM     18  C   UNL     1       1.777   4.309  17.828  0.00  0.00    +0.000 C 
ATOM     19  C   UNL     1       3.086   4.946  18.309  0.00  0.00    +0.000 C 
ENDBRANCH  11  14
ENDBRANCH   4   8
BRANCH   1  21
ATOM     20  C   UNL     1      -3.594  13.155  22.042  0.00  0.00    +0.000 C 
ATOM     21  N   UNL     1      -2.337  12.966  21.768  0.00  0.00    +0.000 NA
BRANCH  20  23
ATOM     22  O   UNL     1      -3.828  11.849  24.043  0.00  0.00    +0.000 OA
ATOM     23  C   UNL     1      -3.995  12.915  23.481  0.00  0.00    +0.000 C 
BRANCH  23  24
ATOM     24  O   UNL     1      -4.583  14.003  24.014  0.00  0.00    +0.000 OA
ATOM     25  H   UNL     1      -5.269  14.339  23.386  0.00  0.00    +0.000 HD
ENDBRANCH  23  24
ENDBRANCH  20  23
BRANCH  20  26
ATOM     26  C   UNL     1      -4.682  13.588  21.087  0.00  0.00    +0.000 C 
BRANCH  26  27
ATOM     27  C   UNL     1      -5.430  12.484  20.356  0.00  0.00    +0.000 A 
ATOM     28  C   UNL     1      -4.929  11.985  19.134  0.00  0.00    +0.000 A 
ATOM     29  C   UNL     1      -5.584  10.974  18.427  0.00  0.00    +0.000 A 
ATOM     30  C   UNL     1      -6.764  10.431  18.914  0.00  0.00    +0.000 A 
ATOM     31  C   UNL     1      -7.295  10.901  20.113  0.00  0.00    +0.000 A 
ATOM     32  C   UNL     1      -6.643  11.920  20.839  0.00  0.00    +0.000 A 
BRANCH  32  33
ATOM     33  N   UNL     1      -7.284  12.338  22.110  0.00  0.00    +0.000 N 
ATOM     34  O   UNL     1      -7.181  11.603  23.099  0.00  0.00    +0.000 OA
ATOM     35  O   UNL     1      -7.914  13.406  22.111  0.00  0.00    +0.000 OA
ENDBRANCH  32  33
ENDBRANCH  26  27
ENDBRANCH  20  26
ENDBRANCH   1  21
TORSDOF 8
ENDMDL
MODEL 2
REMARK VINA RESULT:      -8.5      1.513      2.927
REMARK  Name = 
REMARK  8 active torsions:
REMARK  status: ('A' for Active; 'I' for Inactive)
REMARK    1  A    between atoms: C_2  and  O_3
REMARK    2  A    between atoms: C_2  and  C_4
REMARK    3  A    between atoms: C_4  and  C_5
REMARK    4  A    between atoms: C_5  and  C_6
REMARK    5  A    between atoms: C_11  and  N_12
REMARK    6  A    between atoms: N_15  and  N_16
REMARK    7  A    between atoms: C_19  and  C_20
REMARK    8  A    between atoms: C_23  and  C_24
REMARK                            x       y       z     vdW  Elec       q    Type
REMARK                         _______ _______ _______ _____ _____    ______ ____
ROOT
ATOM      1  N   UNL     1      -2.440  12.580  18.660  0.00  0.00    +0.000 N 
ATOM      2  C   UNL     1      -1.294  12.085  19.185  0.00  0.00    +0.000 A 
ATOM      3  N   UNL     1      -0.896  10.834  19.124  0.00  0.00    +0.000 NA
ATOM      4  C   UNL     1       0.323  10.691  19.755  0.00  0.00    +0.000 A 
ATOM      5  C   UNL     1       0.800  11.843  20.352  0.00  0.00    +0.000 A 
ATOM      6  S   UNL     1      -0.243  13.154  20.029  0.00  0.00    +0.000 S 
ATOM      7  H   UNL     1      -2.570  13.576  18.829  0.00  0.00    +0.000 HD
ENDROOT
BRANCH   4   8
ATOM      8  C   UNL     1       1.047   9.423  19.742  0.00  0.00    +0.000 A 
ATOM      9  C   UNL     1       1.075   8.590  20.868  0.00  0.00    +0.000 A 
ATOM     10  C   UNL     1       1.696   7.332  20.811  0.00  0.00    +0.000 A 
ATOM     11  C   UNL     1       2.304   6.879  19.629  0.00  0.00    +0.000 A 
ATOM     12  C   UNL     1       2.323   7.753  18.540  0.00  0.00    +0.000 A 
ATOM     13  C   UNL     1       1.694   8.990  18.586  0.00  0.00    +0.000 A 
BRANCH  11  14
ATOM     14  C   UNL     1       2.941   5.494  19.567  0.00  0.00    +0.000 C 
ATOM     15  C   UNL     1       2.353   4.520  20.608  0.00  0.00    +0.000 C 
ATOM     16  C   UNL     1       0.966   4.003  20.231  0.00  0.00    +0.000 C 
ATOM     17  C   UNL     1       0.932   3.377  18.841  0.00  0.00    +0.000 C 
ATOM     18  C   UNL     1       1.563   4.252  17.768  0.00  0.00    +0.000 C 
ATOM     19  C   UNL     1       2.928   4.815  18.180  0.00  0.00    +0.000 C 
ENDBRANCH  11  14
ENDBRANCH   4   8
BRANCH   1  21
ATOM     20  C   UNL     1      -4.601  12.085  19.168  0.00  0.00    +0.000 C 
ATOM     21  N   UNL     1      -3.535  11.790  18.484  0.00  0.00    +0.000 NA
BRANCH  20  23
ATOM     22  O   UNL     1      -6.280  10.571  19.976  0.00  0.00    +0.000 OA
ATOM     23  C   UNL     1      -5.758  11.121  19.025  0.00  0.00    +0.000 C 
BRANCH  23  24
ATOM     24  O   UNL     1      -6.083  10.933  17.731  0.00  0.00    +0.000 OA
ATOM     25  H   UNL     1      -6.580  11.723  17.406  0.00  0.00    +0.000 HD
ENDBRANCH  23  24
ENDBRANCH  20  23
BRANCH  20  26
ATOM     26  C   UNL     1      -4.801  13.272  20.081  0.00  0.00    +0.000 C 
BRANCH  26  27
ATOM     27  C   UNL     1      -4.643  13.022  21.573  0.00  0.00    +0.000 A 
ATOM     28  C   UNL     1      -3.388  12.635  22.090  0.00  0.00    +0.000 A 
ATOM     29  C   UNL     1      -3.196  12.393  23.452  0.00  0.00    +0.000 A 
ATOM     30  C   UNL     1      -4.252  12.524  24.342  0.00  0.00    +0.000 A 
ATOM     31  C   UNL     1      -5.508  12.897  23.870  0.00  0.00    +0.000 A 
ATOM     32  C   UNL     1      -5.716  13.148  22.497  0.00  0.00    +0.000 A 
BRANCH  32  33
ATOM     33  N   UNL     1      -7.087  13.554  22.100  0.00  0.00    +0.000 N 
ATOM     34  O   UNL     1      -7.914  12.674  21.832  0.00  0.00    +0.000 OA
ATOM     35  O   UNL     1      -7.331  14.768  22.039  0.00  0.00    +0.000 OA
ENDBRANCH  32  33
ENDBRANCH  26  27
ENDBRANCH  20  26
ENDBRANCH   1  21
TORSDOF 8
ENDMDL
MODEL 3
REMARK VINA RESULT:      -8.4      1.670      1.988
REMARK  Name = 
REMARK  8 active torsions:
REMARK  status: ('A' for Active; 'I' for Inactive)
REMARK    1  A    between atoms: C_2  and  O_3
REMARK    2  A    between atoms: C_2  and  C_4
REMARK    3  A    between atoms: C_4  and  C_5
REMARK    4  A    between atoms: C_5  and  C_6
REMARK    5  A    between atoms: C_11  and  N_12
REMARK    6  A    between atoms: N_15  and  N_16
REMARK    7  A    between atoms: C_19  and  C_20
REMARK    8  A    between atoms: C_23  and  C_24
REMARK                            x       y       z     vdW  Elec       q    Type
REMARK                         _______ _______ _______ _____ _____    ______ ____
ROOT
ATOM      1  N   UNL     1      -1.461  13.088  20.266  0.00  0.00    +0.000 N 
ATOM      2  C   UNL     1      -0.451  12.348  19.749  0.00  0.00    +0.000 A 
ATOM      3  N   UNL     1      -0.177  11.099  20.054  0.00  0.00    +0.000 NA
ATOM      4  C   UNL     1       0.912  10.659  19.329  0.00  0.00    +0.000 A 
ATOM      5  C   UNL     1       1.494  11.623  18.526  0.00  0.00    +0.000 A 
ATOM      6  S   UNL     1       0.600  13.074  18.598  0.00  0.00    +0.000 S 
ATOM      7  H   UNL     1      -1.494  14.041  19.907  0.00  0.00    +0.000 HD
ENDROOT
BRANCH   4   8
ATOM      8  C   UNL     1       1.365   9.273  19.394  0.00  0.00    +0.000 A 
ATOM      9  C   UNL     1       1.983   8.658  18.298  0.00  0.00    +0.000 A 
ATOM     10  C   UNL     1       2.497   7.356  18.404  0.00  0.00    +0.000 A 
ATOM     11  C   UNL     1       2.404   6.638  19.609  0.00  0.00    +0.000 A 
ATOM     12  C   UNL     1       1.724   7.245  20.668  0.00  0.00    +0.000 A 
ATOM     13  C   UNL     1       1.231   8.540  20.572  0.00  0.00    +0.000 A 
BRANCH  11  14
ATOM     14  C   UNL     1       3.000   5.240  19.725  0.00  0.00    +0.000 C 
ATOM     15  C   UNL     1       2.292   4.375  20.787  0.00  0.00    +0.000 C 
ATOM     16  C   UNL     1       0.928   3.859  20.331  0.00  0.00    +0.000 C 
ATOM     17  C   UNL     1       0.998   3.114  19.002  0.00  0.00    +0.000 C 
ATOM     18  C   UNL     1       1.749   3.876  17.920  0.00  0.00    +0.000 C 
ATOM     19  C   UNL     1       3.089   4.441  18.405  0.00  0.00    +0.000 C 
ENDBRANCH  11  14
ENDBRANCH   4   8
BRANCH   1  21
ATOM     20  C   UNL     1      -3.238  13.023  21.683  0.00  0.00    +0.000 C 
ATOM     21  N   UNL     1      -1.965  12.829  21.503  0.00  0.00    +0.000 NA
BRANCH  20  23
ATOM     22  O   UNL     1      -3.588  11.788  23.713  0.00  0.00    +0.000 OA
ATOM     23  C   UNL     1      -3.737  12.828  23.098  0.00  0.00    +0.000 C 
BRANCH  23  24
ATOM     24  O   UNL     1      -4.386  13.920  23.544  0.00  0.00    +0.000 OA
ATOM     25  H   UNL     1      -5.152  14.105  22.947  0.00  0.00    +0.000 HD
ENDBRANCH  23  24
ENDBRANCH  20  23
BRANCH  20  26
ATOM     26  C   UNL     1      -4.257  13.421  20.642  0.00  0.00    +0.000 C 
BRANCH  26  27
ATOM     27  C   UNL     1      -5.394  12.442  20.387  0.00  0.00    +0.000 A 
ATOM     28  C   UNL     1      -6.441  12.323  21.326  0.00  0.00    +0.000 A 
ATOM     29  C   UNL     1      -7.504  11.437  21.135  0.00  0.00    +0.000 A 
ATOM     30  C   UNL     1      -7.553  10.636  20.003  0.00  0.00    +0.000 A 
ATOM     31  C   UNL     1      -6.535  10.720  19.056  0.00  0.00    +0.000 A 
ATOM     32  C   UNL     1      -5.457  11.613  19.234  0.00  0.00    +0.000 A 
BRANCH  32  33
ATOM     33  N   UNL     1      -4.434  11.634  18.160  0.00  0.00    +0.000 N 
ATOM     34  O   UNL     1      -3.294  11.227  18.415  0.00  0.00    +0.000 OA
ATOM     35  O   UNL     1      -4.772  12.082  17.054  0.00  0.00    +0.000 OA
ENDBRANCH  32  33
ENDBRANCH  26  27
ENDBRANCH  20  26
ENDBRANCH   1  21
TORSDOF 8
ENDMDL
MODEL 4
REMARK VINA RESULT:      -8.4      1.488      2.857
REMARK  Name = 
REMARK  8 active torsions:
REMARK  status: ('A' for Active; 'I' for Inactive)
REMARK    1  A    between atoms: C_2  and  O_3
REMARK    2  A    between atoms: C_2  and  C_4
REMARK    3  A    between atoms: C_4  and  C_5
REMARK    4  A    between atoms: C_5  and  C_6
REMARK    5  A    between atoms: C_11  and  N_12
REMARK    6  A    between atoms: N_15  and  N_16
REMARK    7  A    between atoms: C_19  and  C_20
REMARK    8  A    between atoms: C_23  and  C_24
REMARK                            x       y       z     vdW  Elec       q    Type
REMARK                         _______ _______ _______ _____ _____    ______ ____
ROOT
ATOM      1  N   UNL     1      -2.593  12.634  18.803  0.00  0.00    +0.000 N 
ATOM      2  C   UNL     1      -1.443  12.095  19.274  0.00  0.00    +0.000 A 
ATOM      3  N   UNL     1      -1.089  10.832  19.178  0.00  0.00    +0.000 NA
ATOM      4  C   UNL     1       0.150  10.641  19.757  0.00  0.00    +0.000 A 
ATOM      5  C   UNL     1       0.687  11.768  20.350  0.00  0.00    +0.000 A 
ATOM      6  S   UNL     1      -0.324  13.117  20.088  0.00  0.00    +0.000 S 
ATOM      7  H   UNL     1      -2.683  13.632  18.991  0.00  0.00    +0.000 HD
ENDROOT
BRANCH   4   8
ATOM      8  C   UNL     1       0.830   9.351  19.696  0.00  0.00    +0.000 A 
ATOM      9  C   UNL     1       1.537   8.954  18.553  0.00  0.00    +0.000 A 
ATOM     10  C   UNL     1       2.263   7.753  18.542  0.00  0.00    +0.000 A 
ATOM     11  C   UNL     1       2.300   6.920  19.673  0.00  0.00    +0.000 A 
ATOM     12  C   UNL     1       1.534   7.302  20.777  0.00  0.00    +0.000 A 
ATOM     13  C   UNL     1       0.829   8.498  20.798  0.00  0.00    +0.000 A 
BRANCH  11  14
ATOM     14  C   UNL     1       3.124   5.637  19.663  0.00  0.00    +0.000 C 
ATOM     15  C   UNL     1       2.595   4.581  20.654  0.00  0.00    +0.000 C 
ATOM     16  C   UNL     1       1.327   3.882  20.167  0.00  0.00    +0.000 C 
ATOM     17  C   UNL     1       1.490   3.273  18.778  0.00  0.00    +0.000 C 
ATOM     18  C   UNL     1       2.077   4.237  17.759  0.00  0.00    +0.000 C 
ATOM     19  C   UNL     1       3.315   4.978  18.279  0.00  0.00    +0.000 C 
ENDBRANCH  11  14
ENDBRANCH   4   8
BRANCH   1  21
ATOM     20  C   UNL     1      -4.739  12.188  19.408  0.00  0.00    +0.000 C 
ATOM     21  N   UNL     1      -3.719  11.883  18.661  0.00  0.00    +0.000 NA
BRANCH  20  23
ATOM     22  O   UNL     1      -6.619  10.956  20.253  0.00  0.00    +0.000 OA
ATOM     23  C   UNL     1      -5.931  11.263  19.298  0.00  0.00    +0.000 C 
BRANCH  23  24
ATOM     24  O   UNL     1      -6.086  10.810  18.039  0.00  0.00    +0.000 OA
ATOM     25  H   UNL     1      -5.459  10.061  17.887  0.00  0.00    +0.000 HD
ENDBRANCH  23  24
ENDBRANCH  20  23
BRANCH  20  26
ATOM     26  C   UNL     1      -4.856  13.351  20.365  0.00  0.00    +0.000 C 
BRANCH  26  27
ATOM     27  C   UNL     1      -4.650  13.047  21.841  0.00  0.00    +0.000 A 
ATOM     28  C   UNL     1      -3.413  12.533  22.286  0.00  0.00    +0.000 A 
ATOM     29  C   UNL     1      -3.180  12.237  23.631  0.00  0.00    +0.000 A 
ATOM     30  C   UNL     1      -4.176  12.439  24.575  0.00  0.00    +0.000 A 
ATOM     31  C   UNL     1      -5.413  12.939  24.175  0.00  0.00    +0.000 A 
ATOM     32  C   UNL     1      -5.662  13.245  22.820  0.00  0.00    +0.000 A 
BRANCH  32  33
ATOM     33  N   UNL     1      -7.006  13.785  22.502  0.00  0.00    +0.000 N 
ATOM     34  O   UNL     1      -7.166  15.011  22.481  0.00  0.00    +0.000 OA
ATOM     35  O   UNL     1      -7.916  12.970  22.289  0.00  0.00    +0.000 OA
ENDBRANCH  32  33
ENDBRANCH  26  27
ENDBRANCH  20  26
ENDBRANCH   1  21
TORSDOF 8
ENDMDL
MODEL 5
REMARK VINA RESULT:      -8.2      4.987     10.439
REMARK  Name = 
REMARK  8 active torsions:
REMARK  status: ('A' for Active; 'I' for Inactive)
REMARK    1  A    between atoms: C_2  and  O_3
REMARK    2  A    between atoms: C_2  and  C_4
REMARK    3  A    between atoms: C_4  and  C_5
REMARK    4  A    between atoms: C_5  and  C_6
REMARK    5  A    between atoms: C_11  and  N_12
REMARK    6  A    between atoms: N_15  and  N_16
REMARK    7  A    between atoms: C_19  and  C_20
REMARK    8  A    between atoms: C_23  and  C_24
REMARK                            x       y       z     vdW  Elec       q    Type
REMARK                         _______ _______ _______ _____ _____    ______ ____
ROOT
ATOM      1  N   UNL     1       2.260   7.677  19.462  0.00  0.00    +0.000 N 
ATOM      2  C   UNL     1       1.447   8.759  19.411  0.00  0.00    +0.000 A 
ATOM      3  N   UNL     1       0.693   9.202  20.391  0.00  0.00    +0.000 NA
ATOM      4  C   UNL     1       0.007  10.331  19.990  0.00  0.00    +0.000 A 
ATOM      5  C   UNL     1       0.207  10.686  18.669  0.00  0.00    +0.000 A 
ATOM      6  S   UNL     1       1.355   9.652  17.944  0.00  0.00    +0.000 S 
ATOM      7  H   UNL     1       2.752   7.493  18.589  0.00  0.00    +0.000 HD
ENDROOT
BRANCH   4   8
ATOM      8  C   UNL     1      -0.824  11.092  20.919  0.00  0.00    +0.000 A 
ATOM      9  C   UNL     1      -0.812  10.822  22.293  0.00  0.00    +0.000 A 
ATOM     10  C   UNL     1      -1.544  11.621  23.186  0.00  0.00    +0.000 A 
ATOM     11  C   UNL     1      -2.305  12.708  22.725  0.00  0.00    +0.000 A 
ATOM     12  C   UNL     1      -2.357  12.917  21.345  0.00  0.00    +0.000 A 
ATOM     13  C   UNL     1      -1.620  12.141  20.461  0.00  0.00    +0.000 A 
BRANCH  11  14
ATOM     14  C   UNL     1      -3.065  13.593  23.707  0.00  0.00    +0.000 C 
ATOM     15  C   UNL     1      -4.119  14.482  23.017  0.00  0.00    +0.000 C 
ATOM     16  C   UNL     1      -5.370  13.714  22.595  0.00  0.00    +0.000 C 
ATOM     17  C   UNL     1      -6.001  12.941  23.748  0.00  0.00    +0.000 C 
ATOM     18  C   UNL     1      -5.006  12.094  24.526  0.00  0.00    +0.000 C 
ATOM     19  C   UNL     1      -3.728  12.856  24.893  0.00  0.00    +0.000 C 
ENDBRANCH  11  14
ENDBRANCH   4   8
BRANCH   1  21
ATOM     20  C   UNL     1       1.977   5.445  19.799  0.00  0.00    +0.000 C 
ATOM     21  N   UNL     1       2.005   6.641  20.309  0.00  0.00    +0.000 NA
BRANCH  20  23
ATOM     22  O   UNL     1       2.220   4.073  21.755  0.00  0.00    +0.000 OA
ATOM     23  C   UNL     1       1.585   4.337  20.751  0.00  0.00    +0.000 C 
BRANCH  23  24
ATOM     24  O   UNL     1       0.492   3.681  20.316  0.00  0.00    +0.000 OA
ATOM     25  H   UNL     1       0.705   2.720  20.235  0.00  0.00    +0.000 HD
ENDBRANCH  23  24
ENDBRANCH  20  23
BRANCH  20  26
ATOM     26  C   UNL     1       2.288   5.052  18.374  0.00  0.00    +0.000 C 
BRANCH  26  27
ATOM     27  C   UNL     1       3.743   5.143  17.941  0.00  0.00    +0.000 A 
ATOM     28  C   UNL     1       4.205   6.296  17.270  0.00  0.00    +0.000 A 
ATOM     29  C   UNL     1       5.531   6.422  16.851  0.00  0.00    +0.000 A 
ATOM     30  C   UNL     1       6.439   5.399  17.083  0.00  0.00    +0.000 A 
ATOM     31  C   UNL     1       6.021   4.242  17.736  0.00  0.00    +0.000 A 
ATOM     32  C   UNL     1       4.685   4.102  18.168  0.00  0.00    +0.000 A 
BRANCH  32  33
ATOM     33  N   UNL     1       4.346   2.838  18.865  0.00  0.00    +0.000 N 
ATOM     34  O   UNL     1       4.798   2.644  20.000  0.00  0.00    +0.000 OA
ATOM     35  O   UNL     1       3.635   2.021  18.261  0.00  0.00    +0.000 OA
ENDBRANCH  32  33
ENDBRANCH  26  27
ENDBRANCH  20  26
ENDBRANCH   1  21
TORSDOF 8
ENDMDL
MODEL 6
REMARK VINA RESULT:      -8.1      5.493     10.479
REMARK  Name = 
REMARK  8 active torsions:
REMARK  status: ('A' for Active; 'I' for Inactive)
REMARK    1  A    between atoms: C_2  and  O_3
REMARK    2  A    between atoms: C_2  and  C_4
REMARK    3  A    between atoms: C_4  and  C_5
REMARK    4  A    between atoms: C_5  and  C_6
REMARK    5  A    between atoms: C_11  and  N_12
REMARK    6  A    between atoms: N_15  and  N_16
REMARK    7  A    between atoms: C_19  and  C_20
REMARK    8  A    between atoms: C_23  and  C_24
REMARK                            x       y       z     vdW  Elec       q    Type
REMARK                         _______ _______ _______ _____ _____    ______ ____
ROOT
ATOM      1  N   UNL     1       2.652   6.439  19.278  0.00  0.00    +0.000 N 
ATOM      2  C   UNL     1       2.096   7.674  19.293  0.00  0.00    +0.000 A 
ATOM      3  N   UNL     1       1.423   8.203  20.290  0.00  0.00    +0.000 NA
ATOM      4  C   UNL     1       1.012   9.480  19.963  0.00  0.00    +0.000 A 
ATOM      5  C   UNL     1       1.329   9.873  18.676  0.00  0.00    +0.000 A 
ATOM      6  S   UNL     1       2.249   8.666  17.896  0.00  0.00    +0.000 S 
ATOM      7  H   UNL     1       3.121   6.213  18.402  0.00  0.00    +0.000 HD
ENDROOT
BRANCH   4   8
ATOM      8  C   UNL     1       0.336  10.337  20.931  0.00  0.00    +0.000 A 
ATOM      9  C   UNL     1       0.250  11.722  20.742  0.00  0.00    +0.000 A 
ATOM     10  C   UNL     1      -0.482  12.523  21.632  0.00  0.00    +0.000 A 
ATOM     11  C   UNL     1      -1.146  11.957  22.734  0.00  0.00    +0.000 A 
ATOM     12  C   UNL     1      -0.991  10.584  22.942  0.00  0.00    +0.000 A 
ATOM     13  C   UNL     1      -0.283   9.787  22.053  0.00  0.00    +0.000 A 
BRANCH  11  14
ATOM     14  C   UNL     1      -1.971  12.830  23.673  0.00  0.00    +0.000 C 
ATOM     15  C   UNL     1      -1.837  14.334  23.361  0.00  0.00    +0.000 C 
ATOM     16  C   UNL     1      -2.619  14.763  22.120  0.00  0.00    +0.000 C 
ATOM     17  C   UNL     1      -4.090  14.365  22.188  0.00  0.00    +0.000 C 
ATOM     18  C   UNL     1      -4.305  12.906  22.564  0.00  0.00    +0.000 C 
ATOM     19  C   UNL     1      -3.471  12.469  23.773  0.00  0.00    +0.000 C 
ENDBRANCH  11  14
ENDBRANCH   4   8
BRANCH   1  21
ATOM     20  C   UNL     1       2.928   4.414  20.275  0.00  0.00    +0.000 C 
ATOM     21  N   UNL     1       2.150   5.429  20.040  0.00  0.00    +0.000 NA
BRANCH  20  23
ATOM     22  O   UNL     1       2.243   3.228  22.247  0.00  0.00    +0.000 OA
ATOM     23  C   UNL     1       2.297   3.266  21.032  0.00  0.00    +0.000 C 
BRANCH  23  24
ATOM     24  O   UNL     1       1.860   2.307  20.194  0.00  0.00    +0.000 OA
ATOM     25  H   UNL     1       0.956   2.546  19.875  0.00  0.00    +0.000 HD
ENDBRANCH  23  24
ENDBRANCH  20  23
BRANCH  20  26
ATOM     26  C   UNL     1       4.376   4.260  19.872  0.00  0.00    +0.000 C 
BRANCH  26  27
ATOM     27  C   UNL     1       4.726   4.596  18.430  0.00  0.00    +0.000 A 
ATOM     28  C   UNL     1       5.627   5.647  18.153  0.00  0.00    +0.000 A 
ATOM     29  C   UNL     1       5.975   5.992  16.845  0.00  0.00    +0.000 A 
ATOM     30  C   UNL     1       5.430   5.304  15.771  0.00  0.00    +0.000 A 
ATOM     31  C   UNL     1       4.531   4.266  16.002  0.00  0.00    +0.000 A 
ATOM     32  C   UNL     1       4.173   3.904  17.318  0.00  0.00    +0.000 A 
BRANCH  32  33
ATOM     33  N   UNL     1       3.220   2.775  17.456  0.00  0.00    +0.000 N 
ATOM     34  O   UNL     1       2.023   2.973  17.214  0.00  0.00    +0.000 OA
ATOM     35  O   UNL     1       3.673   1.683  17.829  0.00  0.00    +0.000 OA
ENDBRANCH  32  33
ENDBRANCH  26  27
ENDBRANCH  20  26
ENDBRANCH   1  21
TORSDOF 8
ENDMDL
MODEL 7
REMARK VINA RESULT:      -8.1      5.088     10.473
REMARK  Name = 
REMARK  8 active torsions:
REMARK  status: ('A' for Active; 'I' for Inactive)
REMARK    1  A    between atoms: C_2  and  O_3
REMARK    2  A    between atoms: C_2  and  C_4
REMARK    3  A    between atoms: C_4  and  C_5
REMARK    4  A    between atoms: C_5  and  C_6
REMARK    5  A    between atoms: C_11  and  N_12
REMARK    6  A    between atoms: N_15  and  N_16
REMARK    7  A    between atoms: C_19  and  C_20
REMARK    8  A    between atoms: C_23  and  C_24
REMARK                            x       y       z     vdW  Elec       q    Type
REMARK                         _______ _______ _______ _____ _____    ______ ____
ROOT
ATOM      1  N   UNL     1       2.371   7.455  19.440  0.00  0.00    +0.000 N 
ATOM      2  C   UNL     1       1.662   8.610  19.458  0.00  0.00    +0.000 A 
ATOM      3  N   UNL     1       1.012   9.098  20.490  0.00  0.00    +0.000 NA
ATOM      4  C   UNL     1       0.414  10.296  20.152  0.00  0.00    +0.000 A 
ATOM      5  C   UNL     1       0.569  10.662  18.828  0.00  0.00    +0.000 A 
ATOM      6  S   UNL     1       1.569   9.543  18.016  0.00  0.00    +0.000 S 
ATOM      7  H   UNL     1       2.791   7.247  18.535  0.00  0.00    +0.000 HD
ENDROOT
BRANCH   4   8
ATOM      8  C   UNL     1      -0.285  11.108  21.143  0.00  0.00    +0.000 A 
ATOM      9  C   UNL     1      -0.500  12.477  20.941  0.00  0.00    +0.000 A 
ATOM     10  C   UNL     1      -1.254  13.226  21.858  0.00  0.00    +0.000 A 
ATOM     11  C   UNL     1      -1.809  12.624  23.000  0.00  0.00    +0.000 A 
ATOM     12  C   UNL     1      -1.526  11.273  23.216  0.00  0.00    +0.000 A 
ATOM     13  C   UNL     1      -0.797  10.525  22.302  0.00  0.00    +0.000 A 
BRANCH  11  14
ATOM     14  C   UNL     1      -2.659  13.439  23.969  0.00  0.00    +0.000 C 
ATOM     15  C   UNL     1      -2.924  14.873  23.469  0.00  0.00    +0.000 C 
ATOM     16  C   UNL     1      -3.965  14.938  22.353  0.00  0.00    +0.000 C 
ATOM     17  C   UNL     1      -5.276  14.259  22.733  0.00  0.00    +0.000 C 
ATOM     18  C   UNL     1      -5.090  12.861  23.305  0.00  0.00    +0.000 C 
ATOM     19  C   UNL     1      -4.002  12.794  24.382  0.00  0.00    +0.000 C 
ENDBRANCH  11  14
ENDBRANCH   4   8
BRANCH   1  21
ATOM     20  C   UNL     1       1.979   5.238  19.764  0.00  0.00    +0.000 C 
ATOM     21  N   UNL     1       2.069   6.428  20.281  0.00  0.00    +0.000 NA
BRANCH  20  23
ATOM     22  O   UNL     1       2.154   3.853  21.718  0.00  0.00    +0.000 OA
ATOM     23  C   UNL     1       1.536   4.145  20.711  0.00  0.00    +0.000 C 
BRANCH  23  24
ATOM     24  O   UNL     1       0.421   3.534  20.267  0.00  0.00    +0.000 OA
ATOM     25  H   UNL     1      -0.042   3.113  21.032  0.00  0.00    +0.000 HD
ENDBRANCH  23  24
ENDBRANCH  20  23
BRANCH  20  26
ATOM     26  C   UNL     1       2.262   4.840  18.335  0.00  0.00    +0.000 C 
BRANCH  26  27
ATOM     27  C   UNL     1       3.709   4.930  17.873  0.00  0.00    +0.000 A 
ATOM     28  C   UNL     1       4.139   6.046  17.125  0.00  0.00    +0.000 A 
ATOM     29  C   UNL     1       5.456   6.170  16.678  0.00  0.00    +0.000 A 
ATOM     30  C   UNL     1       6.387   5.180  16.959  0.00  0.00    +0.000 A 
ATOM     31  C   UNL     1       6.000   4.059  17.689  0.00  0.00    +0.000 A 
ATOM     32  C   UNL     1       4.673   3.922  18.150  0.00  0.00    +0.000 A 
BRANCH  32  33
ATOM     33  N   UNL     1       4.369   2.698  18.930  0.00  0.00    +0.000 N 
ATOM     34  O   UNL     1       3.632   1.840  18.430  0.00  0.00    +0.000 OA
ATOM     35  O   UNL     1       4.859   2.604  20.065  0.00  0.00    +0.000 OA
ENDBRANCH  32  33
ENDBRANCH  26  27
ENDBRANCH  20  26
ENDBRANCH   1  21
TORSDOF 8
ENDMDL
MODEL 8
REMARK VINA RESULT:      -8.1      5.440     10.883
REMARK  Name = 
REMARK  8 active torsions:
REMARK  status: ('A' for Active; 'I' for Inactive)
REMARK    1  A    between atoms: C_2  and  O_3
REMARK    2  A    between atoms: C_2  and  C_4
REMARK    3  A    between atoms: C_4  and  C_5
REMARK    4  A    between atoms: C_5  and  C_6
REMARK    5  A    between atoms: C_11  and  N_12
REMARK    6  A    between atoms: N_15  and  N_16
REMARK    7  A    between atoms: C_19  and  C_20
REMARK    8  A    between atoms: C_23  and  C_24
REMARK                            x       y       z     vdW  Elec       q    Type
REMARK                         _______ _______ _______ _____ _____    ______ ____
ROOT
ATOM      1  N   UNL     1       2.740   6.966  18.828  0.00  0.00    +0.000 N 
ATOM      2  C   UNL     1       2.109   8.156  18.966  0.00  0.00    +0.000 A 
ATOM      3  N   UNL     1       1.455   8.562  20.031  0.00  0.00    +0.000 NA
ATOM      4  C   UNL     1       0.949   9.829  19.825  0.00  0.00    +0.000 A 
ATOM      5  C   UNL     1       1.176  10.340  18.560  0.00  0.00    +0.000 A 
ATOM      6  S   UNL     1       2.129   9.259  17.646  0.00  0.00    +0.000 S 
ATOM      7  H   UNL     1       3.178   6.839  17.916  0.00  0.00    +0.000 HD
ENDROOT
BRANCH   4   8
ATOM      8  C   UNL     1       0.270  10.564  20.888  0.00  0.00    +0.000 A 
ATOM      9  C   UNL     1       0.225  11.964  20.891  0.00  0.00    +0.000 A 
ATOM     10  C   UNL     1      -0.510  12.654  21.868  0.00  0.00    +0.000 A 
ATOM     11  C   UNL     1      -1.217  11.960  22.865  0.00  0.00    +0.000 A 
ATOM     12  C   UNL     1      -1.103  10.568  22.883  0.00  0.00    +0.000 A 
ATOM     13  C   UNL     1      -0.393   9.881  21.907  0.00  0.00    +0.000 A 
BRANCH  11  14
ATOM     14  C   UNL     1      -2.044  12.719  23.897  0.00  0.00    +0.000 C 
ATOM     15  C   UNL     1      -1.878  14.248  23.788  0.00  0.00    +0.000 C 
ATOM     16  C   UNL     1      -2.630  14.851  22.603  0.00  0.00    +0.000 C 
ATOM     17  C   UNL     1      -4.108  14.476  22.594  0.00  0.00    +0.000 C 
ATOM     18  C   UNL     1      -4.356  12.986  22.771  0.00  0.00    +0.000 C 
ATOM     19  C   UNL     1      -3.551  12.378  23.926  0.00  0.00    +0.000 C 
ENDBRANCH  11  14
ENDBRANCH   4   8
BRANCH   1  21
ATOM     20  C   UNL     1       3.259   5.016  19.877  0.00  0.00    +0.000 C 
ATOM     21  N   UNL     1       2.341   5.869  19.529  0.00  0.00    +0.000 NA
BRANCH  20  23
ATOM     22  O   UNL     1       3.404   2.728  20.593  0.00  0.00    +0.000 OA
ATOM     23  C   UNL     1       2.760   3.760  20.558  0.00  0.00    +0.000 C 
BRANCH  23  24
ATOM     24  O   UNL     1       1.524   3.934  21.063  0.00  0.00    +0.000 OA
ATOM     25  H   UNL     1       1.049   4.614  20.525  0.00  0.00    +0.000 HD
ENDBRANCH  23  24
ENDBRANCH  20  23
BRANCH  20  26
ATOM     26  C   UNL     1       4.750   5.143  19.671  0.00  0.00    +0.000 C 
BRANCH  26  27
ATOM     27  C   UNL     1       5.287   4.761  18.301  0.00  0.00    +0.000 A 
ATOM     28  C   UNL     1       4.454   4.085  17.384  0.00  0.00    +0.000 A 
ATOM     29  C   UNL     1       4.905   3.713  16.115  0.00  0.00    +0.000 A 
ATOM     30  C   UNL     1       6.205   3.998  15.723  0.00  0.00    +0.000 A 
ATOM     31  C   UNL     1       7.061   4.657  16.602  0.00  0.00    +0.000 A 
ATOM     32  C   UNL     1       6.617   5.043  17.885  0.00  0.00    +0.000 A 
BRANCH  32  33
ATOM     33  N   UNL     1       7.602   5.752  18.738  0.00  0.00    +0.000 N 
ATOM     34  O   UNL     1       8.073   5.165  19.719  0.00  0.00    +0.000 OA
ATOM     35  O   UNL     1       7.893   6.918  18.431  0.00  0.00    +0.000 OA
ENDBRANCH  32  33
ENDBRANCH  26  27
ENDBRANCH  20  26
ENDBRANCH   1  21
TORSDOF 8
ENDMDL
MODEL 9
REMARK VINA RESULT:      -8.0      5.338     10.398
REMARK  Name = 
REMARK  8 active torsions:
REMARK  status: ('A' for Active; 'I' for Inactive)
REMARK    1  A    between atoms: C_2  and  O_3
REMARK    2  A    between atoms: C_2  and  C_4
REMARK    3  A    between atoms: C_4  and  C_5
REMARK    4  A    between atoms: C_5  and  C_6
REMARK    5  A    between atoms: C_11  and  N_12
REMARK    6  A    between atoms: N_15  and  N_16
REMARK    7  A    between atoms: C_19  and  C_20
REMARK    8  A    between atoms: C_23  and  C_24
REMARK                            x       y       z     vdW  Elec       q    Type
REMARK                         _______ _______ _______ _____ _____    ______ ____
ROOT
ATOM      1  N   UNL     1       2.464   6.707  19.396  0.00  0.00    +0.000 N 
ATOM      2  C   UNL     1       1.979   7.969  19.318  0.00  0.00    +0.000 A 
ATOM      3  N   UNL     1       1.268   8.579  20.239  0.00  0.00    +0.000 NA
ATOM      4  C   UNL     1       0.955   9.859  19.828  0.00  0.00    +0.000 A 
ATOM      5  C   UNL     1       1.384  10.174  18.553  0.00  0.00    +0.000 A 
ATOM      6  S   UNL     1       2.287   8.885  17.895  0.00  0.00    +0.000 S 
ATOM      7  H   UNL     1       2.981   6.415  18.568  0.00  0.00    +0.000 HD
ENDROOT
BRANCH   4   8
ATOM      8  C   UNL     1       0.261  10.796  20.707  0.00  0.00    +0.000 A 
ATOM      9  C   UNL     1      -0.582  10.344  21.731  0.00  0.00    +0.000 A 
ATOM     10  C   UNL     1      -1.169  11.252  22.626  0.00  0.00    +0.000 A 
ATOM     11  C   UNL     1      -0.928  12.632  22.519  0.00  0.00    +0.000 A 
ATOM     12  C   UNL     1      -0.139  13.065  21.451  0.00  0.00    +0.000 A 
ATOM     13  C   UNL     1       0.458  12.169  20.574  0.00  0.00    +0.000 A 
BRANCH  11  14
ATOM     14  C   UNL     1      -1.540  13.605  23.521  0.00  0.00    +0.000 C 
ATOM     15  C   UNL     1      -1.556  15.059  23.007  0.00  0.00    +0.000 C 
ATOM     16  C   UNL     1      -2.637  15.313  21.957  0.00  0.00    +0.000 C 
ATOM     17  C   UNL     1      -4.026  14.903  22.434  0.00  0.00    +0.000 C 
ATOM     18  C   UNL     1      -4.075  13.502  23.024  0.00  0.00    +0.000 C 
ATOM     19  C   UNL     1      -2.951  13.237  24.032  0.00  0.00    +0.000 C 
ENDBRANCH  11  14
ENDBRANCH   4   8
BRANCH   1  21
ATOM     20  C   UNL     1       2.537   4.695  20.455  0.00  0.00    +0.000 C 
ATOM     21  N   UNL     1       1.853   5.761  20.162  0.00  0.00    +0.000 NA
BRANCH  20  23
ATOM     22  O   UNL     1       2.193   3.145  22.256  0.00  0.00    +0.000 OA
ATOM     23  C   UNL     1       1.786   3.623  21.214  0.00  0.00    +0.000 C 
BRANCH  23  24
ATOM     24  O   UNL     1       0.665   3.257  20.564  0.00  0.00    +0.000 OA
ATOM     25  H   UNL     1       0.832   2.409  20.086  0.00  0.00    +0.000 HD
ENDBRANCH  23  24
ENDBRANCH  20  23
BRANCH  20  26
ATOM     26  C   UNL     1       3.983   4.416  20.118  0.00  0.00    +0.000 C 
BRANCH  26  27
ATOM     27  C   UNL     1       4.384   4.550  18.656  0.00  0.00    +0.000 A 
ATOM     28  C   UNL     1       5.263   5.581  18.261  0.00  0.00    +0.000 A 
ATOM     29  C   UNL     1       5.657   5.743  16.931  0.00  0.00    +0.000 A 
ATOM     30  C   UNL     1       5.180   4.885  15.950  0.00  0.00    +0.000 A 
ATOM     31  C   UNL     1       4.305   3.859  16.299  0.00  0.00    +0.000 A 
ATOM     32  C   UNL     1       3.902   3.681  17.639  0.00  0.00    +0.000 A 
BRANCH  32  33
ATOM     33  N   UNL     1       2.979   2.551  17.906  0.00  0.00    +0.000 N 
ATOM     34  O   UNL     1       3.449   1.481  18.313  0.00  0.00    +0.000 OA
ATOM     35  O   UNL     1       1.772   2.731  17.687  0.00  0.00    +0.000 OA
ENDBRANCH  32  33
ENDBRANCH  26  27
ENDBRANCH  20  26
ENDBRANCH   1  21
TORSDOF 8
ENDMDL
