MODEL 1
REMARK VINA RESULT:      -7.2      0.000      0.000
REMARK  Name = 
REMARK  7 active torsions:
REMARK  status: ('A' for Active; 'I' for Inactive)
REMARK    1  A    between atoms: C_1  and  C_2
REMARK    2  A    between atoms: C_2  and  O_3
REMARK    3  A    between atoms: O_3  and  C_4
REMARK    4  A    between atoms: C_4  and  C_6
REMARK    5  A    between atoms: C_6  and  C_7
REMARK    6  A    between atoms: C_12  and  C_14
REMARK    7  A    between atoms: C_14  and  C_15
REMARK                            x       y       z     vdW  Elec       q    Type
REMARK                         _______ _______ _______ _____ _____    ______ ____
ROOT
ATOM      1  C   UNL     1       0.151  10.473  19.817  0.00  0.00    +0.000 A 
ATOM      2  C   UNL     1      -0.257  10.487  21.138  0.00  0.00    +0.000 A 
ATOM      3  S   UNL     1       0.492   9.195  21.994  0.00  0.00    +0.000 S 
ATOM      4  C   UNL     1       1.231   8.694  20.543  0.00  0.00    +0.000 A 
ATOM      5  N   UNL     1       1.987   7.562  20.625  0.00  0.00    +0.000 N 
ATOM      6  C   UNL     1       2.488   6.961  19.487  0.00  0.00    +0.000 C 
ATOM      7  O   UNL     1       2.294   7.314  18.323  0.00  0.00    +0.000 OA
ATOM      8  N   UNL     1       1.000   9.434  19.492  0.00  0.00    +0.000 NA
ATOM      9  H   UNL     1       2.075   7.122  21.530  0.00  0.00    +0.000 HD
ENDROOT
BRANCH   1  10
ATOM     10  C   UNL     1      -0.243  11.399  18.723  0.00  0.00    +0.000 C 
BRANCH  10  11
ATOM     11  C   UNL     1      -1.658  11.163  18.258  0.00  0.00    +0.000 C 
ATOM     12  O   UNL     1      -2.667  11.608  18.787  0.00  0.00    +0.000 OA
BRANCH  11  13
ATOM     13  O   UNL     1      -1.647  10.232  17.256  0.00  0.00    +0.000 OA
BRANCH  13  15
ATOM     14  C   UNL     1      -2.858  10.218  15.201  0.00  0.00    +0.000 C 
ATOM     15  C   UNL     1      -2.925   9.918  16.688  0.00  0.00    +0.000 C 
ENDBRANCH  13  15
ENDBRANCH  11  13
ENDBRANCH  10  11
ENDBRANCH   1  10
BRANCH   6  16
ATOM     16  C   UNL     1       3.346   5.746  19.776  0.00  0.00    +0.000 C 
BRANCH  16  17
ATOM     17  C   UNL     1       3.667   4.973  18.540  0.00  0.00    +0.000 A 
ATOM     18  C   UNL     1       2.885   3.996  17.950  0.00  0.00    +0.000 A 
ATOM     19  N   UNL     1       3.512   3.561  16.815  0.00  0.00    +0.000 N 
ATOM     20  C   UNL     1       4.696   4.241  16.641  0.00  0.00    +0.000 A 
ATOM     21  C   UNL     1       5.649   4.140  15.621  0.00  0.00    +0.000 A 
ATOM     22  C   UNL     1       6.767   4.976  15.697  0.00  0.00    +0.000 A 
ATOM     23  C   UNL     1       6.922   5.874  16.749  0.00  0.00    +0.000 A 
ATOM     24  C   UNL     1       5.959   5.962  17.759  0.00  0.00    +0.000 A 
ATOM     25  C   UNL     1       4.821   5.131  17.709  0.00  0.00    +0.000 A 
ATOM     26  H   UNL     1       3.156   2.858  16.187  0.00  0.00    +0.000 HD
ENDBRANCH  16  17
ENDBRANCH   6  16
TORSDOF 6
ENDMDL
MODEL 2
REMARK VINA RESULT:      -7.0      2.946      8.363
REMARK  Name = 
REMARK  7 active torsions:
REMARK  status: ('A' for Active; 'I' for Inactive)
REMARK    1  A    between atoms: C_1  and  C_2
REMARK    2  A    between atoms: C_2  and  O_3
REMARK    3  A    between atoms: O_3  and  C_4
REMARK    4  A    between atoms: C_4  and  C_6
REMARK    5  A    between atoms: C_6  and  C_7
REMARK    6  A    between atoms: C_12  and  C_14
REMARK    7  A    between atoms: C_14  and  C_15
REMARK                            x       y       z     vdW  Elec       q    Type
REMARK                         _______ _______ _______ _____ _____    ______ ____
ROOT
ATOM      1  C   UNL     1       5.439   5.360  18.752  0.00  0.00    +0.000 A 
ATOM      2  C   UNL     1       4.799   4.193  19.123  0.00  0.00    +0.000 A 
ATOM      3  S   UNL     1       3.094   4.403  19.017  0.00  0.00    +0.000 S 
ATOM      4  C   UNL     1       3.347   6.024  18.559  0.00  0.00    +0.000 A 
ATOM      5  N   UNL     1       2.219   6.769  18.370  0.00  0.00    +0.000 N 
ATOM      6  C   UNL     1       2.296   8.133  18.172  0.00  0.00    +0.000 C 
ATOM      7  O   UNL     1       3.317   8.821  18.184  0.00  0.00    +0.000 OA
ATOM      8  N   UNL     1       4.590   6.403  18.437  0.00  0.00    +0.000 NA
ATOM      9  H   UNL     1       1.329   6.307  18.489  0.00  0.00    +0.000 HD
ENDROOT
BRANCH   1  10
ATOM     10  C   UNL     1       6.900   5.630  18.696  0.00  0.00    +0.000 C 
BRANCH  10  11
ATOM     11  C   UNL     1       7.574   4.895  17.566  0.00  0.00    +0.000 C 
ATOM     12  O   UNL     1       8.416   4.016  17.687  0.00  0.00    +0.000 OA
BRANCH  11  13
ATOM     13  O   UNL     1       7.225   5.484  16.382  0.00  0.00    +0.000 OA
BRANCH  13  15
ATOM     14  C   UNL     1       5.480   4.492  15.094  0.00  0.00    +0.000 C 
ATOM     15  C   UNL     1       6.983   4.586  15.291  0.00  0.00    +0.000 C 
ENDBRANCH  13  15
ENDBRANCH  11  13
ENDBRANCH  10  11
ENDBRANCH   1  10
BRANCH   6  16
ATOM     16  C   UNL     1       0.948   8.783  17.930  0.00  0.00    +0.000 C 
BRANCH  16  17
ATOM     17  C   UNL     1       0.669   9.884  18.898  0.00  0.00    +0.000 A 
ATOM     18  C   UNL     1       0.717  11.242  18.641  0.00  0.00    +0.000 A 
ATOM     19  N   UNL     1       0.357  11.914  19.775  0.00  0.00    +0.000 N 
ATOM     20  C   UNL     1       0.067  11.020  20.781  0.00  0.00    +0.000 A 
ATOM     21  C   UNL     1      -0.356  11.251  22.095  0.00  0.00    +0.000 A 
ATOM     22  C   UNL     1      -0.591  10.135  22.903  0.00  0.00    +0.000 A 
ATOM     23  C   UNL     1      -0.411   8.844  22.414  0.00  0.00    +0.000 A 
ATOM     24  C   UNL     1       0.011   8.633  21.098  0.00  0.00    +0.000 A 
ATOM     25  C   UNL     1       0.256   9.739  20.261  0.00  0.00    +0.000 A 
ATOM     26  H   UNL     1       0.298  12.917  19.864  0.00  0.00    +0.000 HD
ENDBRANCH  16  17
ENDBRANCH   6  16
TORSDOF 6
ENDMDL
MODEL 3
REMARK VINA RESULT:      -6.9      1.315      1.744
REMARK  Name = 
REMARK  7 active torsions:
REMARK  status: ('A' for Active; 'I' for Inactive)
REMARK    1  A    between atoms: C_1  and  C_2
REMARK    2  A    between atoms: C_2  and  O_3
REMARK    3  A    between atoms: O_3  and  C_4
REMARK    4  A    between atoms: C_4  and  C_6
REMARK    5  A    between atoms: C_6  and  C_7
REMARK    6  A    between atoms: C_12  and  C_14
REMARK    7  A    between atoms: C_14  and  C_15
REMARK                            x       y       z     vdW  Elec       q    Type
REMARK                         _______ _______ _______ _____ _____    ______ ____
ROOT
ATOM      1  C   UNL     1       0.914  10.223  19.728  0.00  0.00    +0.000 A 
ATOM      2  C   UNL     1       0.590  10.218  21.073  0.00  0.00    +0.000 A 
ATOM      3  S   UNL     1       1.151   8.764  21.802  0.00  0.00    +0.000 S 
ATOM      4  C   UNL     1       1.707   8.242  20.279  0.00  0.00    +0.000 A 
ATOM      5  N   UNL     1       2.258   6.994  20.245  0.00  0.00    +0.000 N 
ATOM      6  C   UNL     1       2.580   6.394  19.045  0.00  0.00    +0.000 C 
ATOM      7  O   UNL     1       2.385   6.852  17.918  0.00  0.00    +0.000 OA
ATOM      8  N   UNL     1       1.549   9.078  19.289  0.00  0.00    +0.000 NA
ATOM      9  H   UNL     1       2.320   6.487  21.116  0.00  0.00    +0.000 HD
ENDROOT
BRANCH   1  10
ATOM     10  C   UNL     1       0.625  11.274  18.716  0.00  0.00    +0.000 C 
BRANCH  10  11
ATOM     11  C   UNL     1      -0.771  11.826  18.851  0.00  0.00    +0.000 C 
ATOM     12  O   UNL     1      -1.078  12.861  19.427  0.00  0.00    +0.000 OA
BRANCH  11  13
ATOM     13  O   UNL     1      -1.662  10.903  18.377  0.00  0.00    +0.000 OA
BRANCH  13  15
ATOM     14  C   UNL     1      -2.553  10.008  16.354  0.00  0.00    +0.000 C 
ATOM     15  C   UNL     1      -2.356  11.268  17.177  0.00  0.00    +0.000 C 
ENDBRANCH  13  15
ENDBRANCH  11  13
ENDBRANCH  10  11
ENDBRANCH   1  10
BRANCH   6  16
ATOM     16  C   UNL     1       3.229   5.034  19.207  0.00  0.00    +0.000 C 
BRANCH  16  17
ATOM     17  C   UNL     1       4.656   5.033  18.769  0.00  0.00    +0.000 A 
ATOM     18  C   UNL     1       5.765   5.250  19.566  0.00  0.00    +0.000 A 
ATOM     19  N   UNL     1       6.888   5.126  18.796  0.00  0.00    +0.000 N 
ATOM     20  C   UNL     1       6.538   4.825  17.499  0.00  0.00    +0.000 A 
ATOM     21  C   UNL     1       7.347   4.594  16.380  0.00  0.00    +0.000 A 
ATOM     22  C   UNL     1       6.710   4.292  15.174  0.00  0.00    +0.000 A 
ATOM     23  C   UNL     1       5.322   4.223  15.093  0.00  0.00    +0.000 A 
ATOM     24  C   UNL     1       4.530   4.455  16.221  0.00  0.00    +0.000 A 
ATOM     25  C   UNL     1       5.145   4.763  17.451  0.00  0.00    +0.000 A 
ATOM     26  H   UNL     1       7.835   5.225  19.127  0.00  0.00    +0.000 HD
ENDBRANCH  16  17
ENDBRANCH   6  16
TORSDOF 6
ENDMDL
MODEL 4
REMARK VINA RESULT:      -6.9      2.811      8.251
REMARK  Name = 
REMARK  7 active torsions:
REMARK  status: ('A' for Active; 'I' for Inactive)
REMARK    1  A    between atoms: C_1  and  C_2
REMARK    2  A    between atoms: C_2  and  O_3
REMARK    3  A    between atoms: O_3  and  C_4
REMARK    4  A    between atoms: C_4  and  C_6
REMARK    5  A    between atoms: C_6  and  C_7
REMARK    6  A    between atoms: C_12  and  C_14
REMARK    7  A    between atoms: C_14  and  C_15
REMARK                            x       y       z     vdW  Elec       q    Type
REMARK                         _______ _______ _______ _____ _____    ______ ____
ROOT
ATOM      1  C   UNL     1       2.308   6.180  19.861  0.00  0.00    +0.000 A 
ATOM      2  C   UNL     1       2.989   6.176  18.657  0.00  0.00    +0.000 A 
ATOM      3  S   UNL     1       2.892   7.732  17.927  0.00  0.00    +0.000 S 
ATOM      4  C   UNL     1       1.911   8.251  19.220  0.00  0.00    +0.000 A 
ATOM      5  N   UNL     1       1.448   9.531  19.135  0.00  0.00    +0.000 N 
ATOM      6  C   UNL     1       0.506  10.005  20.025  0.00  0.00    +0.000 C 
ATOM      7  O   UNL     1      -0.040   9.367  20.926  0.00  0.00    +0.000 OA
ATOM      8  N   UNL     1       1.691   7.377  20.165  0.00  0.00    +0.000 NA
ATOM      9  H   UNL     1       1.735  10.080  18.337  0.00  0.00    +0.000 HD
ENDROOT
BRANCH   1  10
ATOM     10  C   UNL     1       2.131   5.058  20.821  0.00  0.00    +0.000 C 
BRANCH  10  11
ATOM     11  C   UNL     1       1.778   3.766  20.129  0.00  0.00    +0.000 C 
ATOM     12  O   UNL     1       0.649   3.398  19.836  0.00  0.00    +0.000 OA
BRANCH  11  13
ATOM     13  O   UNL     1       2.900   2.990  20.036  0.00  0.00    +0.000 OA
BRANCH  13  15
ATOM     14  C   UNL     1       3.522   2.620  17.763  0.00  0.00    +0.000 C 
ATOM     15  C   UNL     1       2.887   2.003  18.997  0.00  0.00    +0.000 C 
ENDBRANCH  13  15
ENDBRANCH  11  13
ENDBRANCH  10  11
ENDBRANCH   1  10
BRANCH   6  16
ATOM     16  C   UNL     1       0.150  11.462  19.808  0.00  0.00    +0.000 C 
BRANCH  16  17
ATOM     17  C   UNL     1      -1.286  11.646  19.447  0.00  0.00    +0.000 A 
ATOM     18  C   UNL     1      -2.212  12.426  20.114  0.00  0.00    +0.000 A 
ATOM     19  N   UNL     1      -3.403  12.359  19.446  0.00  0.00    +0.000 N 
ATOM     20  C   UNL     1      -3.278  11.549  18.340  0.00  0.00    +0.000 A 
ATOM     21  C   UNL     1      -4.221  11.206  17.365  0.00  0.00    +0.000 A 
ATOM     22  C   UNL     1      -3.804  10.361  16.333  0.00  0.00    +0.000 A 
ATOM     23  C   UNL     1      -2.499   9.880  16.281  0.00  0.00    +0.000 A 
ATOM     24  C   UNL     1      -1.570  10.234  17.264  0.00  0.00    +0.000 A 
ATOM     25  C   UNL     1      -1.962  11.085  18.317  0.00  0.00    +0.000 A 
ATOM     26  H   UNL     1      -4.248  12.842  19.710  0.00  0.00    +0.000 HD
ENDBRANCH  16  17
ENDBRANCH   6  16
TORSDOF 6
ENDMDL
MODEL 5
REMARK VINA RESULT:      -6.9      0.920      1.114
REMARK  Name = 
REMARK  7 active torsions:
REMARK  status: ('A' for Active; 'I' for Inactive)
REMARK    1  A    between atoms: C_1  and  C_2
REMARK    2  A    between atoms: C_2  and  O_3
REMARK    3  A    between atoms: O_3  and  C_4
REMARK    4  A    between atoms: C_4  and  C_6
REMARK    5  A    between atoms: C_6  and  C_7
REMARK    6  A    between atoms: C_12  and  C_14
REMARK    7  A    between atoms: C_14  and  C_15
REMARK                            x       y       z     vdW  Elec       q    Type
REMARK                         _______ _______ _______ _____ _____    ______ ____
ROOT
ATOM      1  C   UNL     1       0.543  10.570  20.086  0.00  0.00    +0.000 A 
ATOM      2  C   UNL     1       0.064  10.591  21.383  0.00  0.00    +0.000 A 
ATOM      3  S   UNL     1       0.549   9.160  22.207  0.00  0.00    +0.000 S 
ATOM      4  C   UNL     1       1.286   8.612  20.772  0.00  0.00    +0.000 A 
ATOM      5  N   UNL     1       1.850   7.371  20.832  0.00  0.00    +0.000 N 
ATOM      6  C   UNL     1       2.316   6.748  19.692  0.00  0.00    +0.000 C 
ATOM      7  O   UNL     1       2.250   7.179  18.540  0.00  0.00    +0.000 OA
ATOM      8  N   UNL     1       1.236   9.424  19.751  0.00  0.00    +0.000 NA
ATOM      9  H   UNL     1       1.814   6.883  21.716  0.00  0.00    +0.000 HD
ENDROOT
BRANCH   1  10
ATOM     10  C   UNL     1       0.364  11.594  19.022  0.00  0.00    +0.000 C 
BRANCH  10  11
ATOM     11  C   UNL     1      -1.018  12.197  19.038  0.00  0.00    +0.000 C 
ATOM     12  O   UNL     1      -1.302  13.321  19.428  0.00  0.00    +0.000 OA
BRANCH  11  13
ATOM     13  O   UNL     1      -1.929  11.230  18.711  0.00  0.00    +0.000 OA
BRANCH  13  15
ATOM     14  C   UNL     1      -3.049   9.833  17.137  0.00  0.00    +0.000 C 
ATOM     15  C   UNL     1      -2.187  11.070  17.310  0.00  0.00    +0.000 C 
ENDBRANCH  13  15
ENDBRANCH  11  13
ENDBRANCH  10  11
ENDBRANCH   1  10
BRANCH   6  16
ATOM     16  C   UNL     1       2.955   5.401  19.961  0.00  0.00    +0.000 C 
BRANCH  16  17
ATOM     17  C   UNL     1       3.611   4.834  18.746  0.00  0.00    +0.000 A 
ATOM     18  C   UNL     1       2.985   4.190  17.693  0.00  0.00    +0.000 A 
ATOM     19  N   UNL     1       3.929   3.858  16.761  0.00  0.00    +0.000 N 
ATOM     20  C   UNL     1       5.172   4.277  17.179  0.00  0.00    +0.000 A 
ATOM     21  C   UNL     1       6.416   4.169  16.547  0.00  0.00    +0.000 A 
ATOM     22  C   UNL     1       7.525   4.704  17.209  0.00  0.00    +0.000 A 
ATOM     23  C   UNL     1       7.391   5.321  18.450  0.00  0.00    +0.000 A 
ATOM     24  C   UNL     1       6.140   5.421  19.065  0.00  0.00    +0.000 A 
ATOM     25  C   UNL     1       5.004   4.890  18.421  0.00  0.00    +0.000 A 
ATOM     26  H   UNL     1       3.745   3.388  15.888  0.00  0.00    +0.000 HD
ENDBRANCH  16  17
ENDBRANCH   6  16
TORSDOF 6
ENDMDL
MODEL 6
REMARK VINA RESULT:      -6.8      2.717      8.327
REMARK  Name = 
REMARK  7 active torsions:
REMARK  status: ('A' for Active; 'I' for Inactive)
REMARK    1  A    between atoms: C_1  and  C_2
REMARK    2  A    between atoms: C_2  and  O_3
REMARK    3  A    between atoms: O_3  and  C_4
REMARK    4  A    between atoms: C_4  and  C_6
REMARK    5  A    between atoms: C_6  and  C_7
REMARK    6  A    between atoms: C_12  and  C_14
REMARK    7  A    between atoms: C_14  and  C_15
REMARK                            x       y       z     vdW  Elec       q    Type
REMARK                         _______ _______ _______ _____ _____    ______ ____
ROOT
ATOM      1  C   UNL     1       4.837   5.593  16.996  0.00  0.00    +0.000 A 
ATOM      2  C   UNL     1       5.304   4.655  17.899  0.00  0.00    +0.000 A 
ATOM      3  S   UNL     1       4.458   4.808  19.390  0.00  0.00    +0.000 S 
ATOM      4  C   UNL     1       3.605   6.133  18.742  0.00  0.00    +0.000 A 
ATOM      5  N   UNL     1       2.734   6.750  19.593  0.00  0.00    +0.000 N 
ATOM      6  C   UNL     1       2.122   7.936  19.242  0.00  0.00    +0.000 C 
ATOM      7  O   UNL     1       2.300   8.577  18.206  0.00  0.00    +0.000 OA
ATOM      8  N   UNL     1       3.867   6.437  17.500  0.00  0.00    +0.000 NA
ATOM      9  H   UNL     1       2.640   6.368  20.523  0.00  0.00    +0.000 HD
ENDROOT
BRANCH   1  10
ATOM     10  C   UNL     1       5.281   5.822  15.596  0.00  0.00    +0.000 C 
BRANCH  10  11
ATOM     11  C   UNL     1       6.543   5.067  15.266  0.00  0.00    +0.000 C 
ATOM     12  O   UNL     1       7.680   5.516  15.324  0.00  0.00    +0.000 OA
BRANCH  11  13
ATOM     13  O   UNL     1       6.209   3.855  14.727  0.00  0.00    +0.000 OA
BRANCH  13  15
ATOM     14  C   UNL     1       6.327   3.483  12.374  0.00  0.00    +0.000 C 
ATOM     15  C   UNL     1       5.430   3.905  13.524  0.00  0.00    +0.000 C 
ENDBRANCH  13  15
ENDBRANCH  11  13
ENDBRANCH  10  11
ENDBRANCH   1  10
BRANCH   6  16
ATOM     16  C   UNL     1       1.150   8.444  20.288  0.00  0.00    +0.000 C 
BRANCH  16  17
ATOM     17  C   UNL     1       0.702   9.841  20.013  0.00  0.00    +0.000 A 
ATOM     18  C   UNL     1       1.194  10.996  20.593  0.00  0.00    +0.000 A 
ATOM     19  N   UNL     1       0.550  12.070  20.045  0.00  0.00    +0.000 N 
ATOM     20  C   UNL     1      -0.360  11.642  19.104  0.00  0.00    +0.000 A 
ATOM     21  C   UNL     1      -1.222  12.382  18.286  0.00  0.00    +0.000 A 
ATOM     22  C   UNL     1      -2.039  11.673  17.401  0.00  0.00    +0.000 A 
ATOM     23  C   UNL     1      -1.992  10.283  17.338  0.00  0.00    +0.000 A 
ATOM     24  C   UNL     1      -1.124   9.561  18.161  0.00  0.00    +0.000 A 
ATOM     25  C   UNL     1      -0.288  10.250  19.064  0.00  0.00    +0.000 A 
ATOM     26  H   UNL     1       0.721  13.035  20.280  0.00  0.00    +0.000 HD
ENDBRANCH  16  17
ENDBRANCH   6  16
TORSDOF 6
ENDMDL
MODEL 7
REMARK VINA RESULT:      -6.7      1.617      2.956
REMARK  Name = 
REMARK  7 active torsions:
REMARK  status: ('A' for Active; 'I' for Inactive)
REMARK    1  A    between atoms: C_1  and  C_2
REMARK    2  A    between atoms: C_2  and  O_3
REMARK    3  A    between atoms: O_3  and  C_4
REMARK    4  A    between atoms: C_4  and  C_6
REMARK    5  A    between atoms: C_6  and  C_7
REMARK    6  A    between atoms: C_12  and  C_14
REMARK    7  A    between atoms: C_14  and  C_15
REMARK                            x       y       z     vdW  Elec       q    Type
REMARK                         _______ _______ _______ _____ _____    ______ ____
ROOT
ATOM      1  C   UNL     1      -0.703  10.821  18.924  0.00  0.00    +0.000 A 
ATOM      2  C   UNL     1      -0.980  10.722  20.275  0.00  0.00    +0.000 A 
ATOM      3  S   UNL     1       0.167   9.684  21.031  0.00  0.00    +0.000 S 
ATOM      4  C   UNL     1       0.881   9.405  19.510  0.00  0.00    +0.000 A 
ATOM      5  N   UNL     1       1.922   8.523  19.498  0.00  0.00    +0.000 N 
ATOM      6  C   UNL     1       2.463   8.082  18.307  0.00  0.00    +0.000 C 
ATOM      7  O   UNL     1       2.077   8.369  17.173  0.00  0.00    +0.000 OA
ATOM      8  N   UNL     1       0.364  10.053  18.501  0.00  0.00    +0.000 NA
ATOM      9  H   UNL     1       2.207   8.124  20.381  0.00  0.00    +0.000 HD
ENDROOT
BRANCH   1  10
ATOM     10  C   UNL     1      -1.431  11.604  17.890  0.00  0.00    +0.000 C 
BRANCH  10  11
ATOM     11  C   UNL     1      -2.925  11.554  18.085  0.00  0.00    +0.000 C 
ATOM     12  O   UNL     1      -3.532  11.958  19.068  0.00  0.00    +0.000 OA
BRANCH  11  13
ATOM     13  O   UNL     1      -3.483  10.829  17.067  0.00  0.00    +0.000 OA
BRANCH  13  15
ATOM     14  C   UNL     1      -3.056   9.761  14.978  0.00  0.00    +0.000 C 
ATOM     15  C   UNL     1      -2.919  11.050  15.768  0.00  0.00    +0.000 C 
ENDBRANCH  13  15
ENDBRANCH  11  13
ENDBRANCH  10  11
ENDBRANCH   1  10
BRANCH   6  16
ATOM     16  C   UNL     1       3.642   7.148  18.491  0.00  0.00    +0.000 C 
BRANCH  16  17
ATOM     17  C   UNL     1       3.310   5.739  18.128  0.00  0.00    +0.000 A 
ATOM     18  C   UNL     1       3.818   5.018  17.062  0.00  0.00    +0.000 A 
ATOM     19  N   UNL     1       3.295   3.756  17.099  0.00  0.00    +0.000 N 
ATOM     20  C   UNL     1       2.450   3.628  18.179  0.00  0.00    +0.000 A 
ATOM     21  C   UNL     1       1.714   2.521  18.618  0.00  0.00    +0.000 A 
ATOM     22  C   UNL     1       0.939   2.678  19.771  0.00  0.00    +0.000 A 
ATOM     23  C   UNL     1       0.904   3.891  20.453  0.00  0.00    +0.000 A 
ATOM     24  C   UNL     1       1.647   4.985  20.001  0.00  0.00    +0.000 A 
ATOM     25  C   UNL     1       2.438   4.856  18.841  0.00  0.00    +0.000 A 
ATOM     26  H   UNL     1       3.505   3.019  16.445  0.00  0.00    +0.000 HD
ENDBRANCH  16  17
ENDBRANCH   6  16
TORSDOF 6
ENDMDL
MODEL 8
REMARK VINA RESULT:      -6.7      2.571      3.455
REMARK  Name = 
REMARK  7 active torsions:
REMARK  status: ('A' for Active; 'I' for Inactive)
REMARK    1  A    between atoms: C_1  and  C_2
REMARK    2  A    between atoms: C_2  and  O_3
REMARK    3  A    between atoms: O_3  and  C_4
REMARK    4  A    between atoms: C_4  and  C_6
REMARK    5  A    between atoms: C_6  and  C_7
REMARK    6  A    between atoms: C_12  and  C_14
REMARK    7  A    between atoms: C_14  and  C_15
REMARK                            x       y       z     vdW  Elec       q    Type
REMARK                         _______ _______ _______ _____ _____    ______ ____
ROOT
ATOM      1  C   UNL     1       1.053   9.078  20.195  0.00  0.00    +0.000 A 
ATOM      2  C   UNL     1       1.324   9.782  19.036  0.00  0.00    +0.000 A 
ATOM      3  S   UNL     1       2.150   8.768  17.917  0.00  0.00    +0.000 S 
ATOM      4  C   UNL     1       2.138   7.520  19.076  0.00  0.00    +0.000 A 
ATOM      5  N   UNL     1       2.770   6.367  18.711  0.00  0.00    +0.000 N 
ATOM      6  C   UNL     1       2.981   5.354  19.625  0.00  0.00    +0.000 C 
ATOM      7  O   UNL     1       2.689   5.372  20.821  0.00  0.00    +0.000 OA
ATOM      8  N   UNL     1       1.533   7.783  20.202  0.00  0.00    +0.000 NA
ATOM      9  H   UNL     1       3.172   6.327  17.785  0.00  0.00    +0.000 HD
ENDROOT
BRANCH   1  10
ATOM     10  C   UNL     1       0.361   9.556  21.421  0.00  0.00    +0.000 C 
BRANCH  10  11
ATOM     11  C   UNL     1       0.149  11.048  21.411  0.00  0.00    +0.000 C 
ATOM     12  O   UNL     1       1.006  11.893  21.628  0.00  0.00    +0.000 OA
BRANCH  11  13
ATOM     13  O   UNL     1      -1.189  11.307  21.292  0.00  0.00    +0.000 OA
BRANCH  13  15
ATOM     14  C   UNL     1      -2.504  12.013  23.151  0.00  0.00    +0.000 C 
ATOM     15  C   UNL     1      -1.659  12.475  21.977  0.00  0.00    +0.000 C 
ENDBRANCH  13  15
ENDBRANCH  11  13
ENDBRANCH  10  11
ENDBRANCH   1  10
BRANCH   6  16
ATOM     16  C   UNL     1       3.650   4.133  19.028  0.00  0.00    +0.000 C 
BRANCH  16  17
ATOM     17  C   UNL     1       5.014   4.436  18.502  0.00  0.00    +0.000 A 
ATOM     18  C   UNL     1       6.145   4.713  19.248  0.00  0.00    +0.000 A 
ATOM     19  N   UNL     1       7.198   4.896  18.396  0.00  0.00    +0.000 N 
ATOM     20  C   UNL     1       6.781   4.739  17.093  0.00  0.00    +0.000 A 
ATOM     21  C   UNL     1       7.510   4.817  15.901  0.00  0.00    +0.000 A 
ATOM     22  C   UNL     1       6.819   4.597  14.706  0.00  0.00    +0.000 A 
ATOM     23  C   UNL     1       5.456   4.310  14.707  0.00  0.00    +0.000 A 
ATOM     24  C   UNL     1       4.745   4.235  15.908  0.00  0.00    +0.000 A 
ATOM     25  C   UNL     1       5.416   4.452  17.128  0.00  0.00    +0.000 A 
ATOM     26  H   UNL     1       8.144   5.101  18.675  0.00  0.00    +0.000 HD
ENDBRANCH  16  17
ENDBRANCH   6  16
TORSDOF 6
ENDMDL
MODEL 9
REMARK VINA RESULT:      -6.7      6.528      9.455
REMARK  Name = 
REMARK  7 active torsions:
REMARK  status: ('A' for Active; 'I' for Inactive)
REMARK    1  A    between atoms: C_1  and  C_2
REMARK    2  A    between atoms: C_2  and  O_3
REMARK    3  A    between atoms: O_3  and  C_4
REMARK    4  A    between atoms: C_4  and  C_6
REMARK    5  A    between atoms: C_6  and  C_7
REMARK    6  A    between atoms: C_12  and  C_14
REMARK    7  A    between atoms: C_14  and  C_15
REMARK                            x       y       z     vdW  Elec       q    Type
REMARK                         _______ _______ _______ _____ _____    ______ ____
ROOT
ATOM      1  C   UNL     1       6.638   6.046  16.898  0.00  0.00    +0.000 A 
ATOM      2  C   UNL     1       7.078   4.989  17.674  0.00  0.00    +0.000 A 
ATOM      3  S   UNL     1       8.062   5.578  18.957  0.00  0.00    +0.000 S 
ATOM      4  C   UNL     1       7.879   7.156  18.342  0.00  0.00    +0.000 A 
ATOM      5  N   UNL     1       8.560   8.133  19.008  0.00  0.00    +0.000 N 
ATOM      6  C   UNL     1       8.633   9.416  18.502  0.00  0.00    +0.000 C 
ATOM      7  O   UNL     1       8.166   9.812  17.434  0.00  0.00    +0.000 OA
ATOM      8  N   UNL     1       7.113   7.281  17.292  0.00  0.00    +0.000 NA
ATOM      9  H   UNL     1       9.095   7.861  19.820  0.00  0.00    +0.000 HD
ENDROOT
BRANCH   1  10
ATOM     10  C   UNL     1       5.771   6.002  15.691  0.00  0.00    +0.000 C 
BRANCH  10  11
ATOM     11  C   UNL     1       4.979   4.723  15.603  0.00  0.00    +0.000 C 
ATOM     12  O   UNL     1       4.433   4.155  16.539  0.00  0.00    +0.000 OA
BRANCH  11  13
ATOM     13  O   UNL     1       5.111   4.203  14.345  0.00  0.00    +0.000 OA
BRANCH  13  15
ATOM     14  C   UNL     1       6.388   3.556  12.438  0.00  0.00    +0.000 C 
ATOM     15  C   UNL     1       6.452   4.129  13.842  0.00  0.00    +0.000 C 
ENDBRANCH  13  15
ENDBRANCH  11  13
ENDBRANCH  10  11
ENDBRANCH   1  10
BRANCH   6  16
ATOM     16  C   UNL     1       9.384  10.376  19.401  0.00  0.00    +0.000 C 
BRANCH  16  17
ATOM     17  C   UNL     1      10.122  11.416  18.627  0.00  0.00    +0.000 A 
ATOM     18  C   UNL     1      11.253  11.225  17.854  0.00  0.00    +0.000 A 
ATOM     19  N   UNL     1      11.597  12.416  17.279  0.00  0.00    +0.000 N 
ATOM     20  C   UNL     1      10.705  13.395  17.655  0.00  0.00    +0.000 A 
ATOM     21  C   UNL     1      10.653  14.748  17.300  0.00  0.00    +0.000 A 
ATOM     22  C   UNL     1       9.613  15.515  17.831  0.00  0.00    +0.000 A 
ATOM     23  C   UNL     1       8.665  14.950  18.680  0.00  0.00    +0.000 A 
ATOM     24  C   UNL     1       8.732  13.596  19.023  0.00  0.00    +0.000 A 
ATOM     25  C   UNL     1       9.771  12.798  18.502  0.00  0.00    +0.000 A 
ATOM     26  H   UNL     1      12.378  12.559  16.658  0.00  0.00    +0.000 HD
ENDBRANCH  16  17
ENDBRANCH   6  16
TORSDOF 6
ENDMDL
