MODEL 1
REMARK VINA RESULT:      -8.2      0.000      0.000
REMARK  Name = 
REMARK  6 active torsions:
REMARK  status: ('A' for Active; 'I' for Inactive)
REMARK    1  A    between atoms: C_1  and  C_2
REMARK    2  A    between atoms: C_2  and  C_3
REMARK    3  A    between atoms: C_3  and  N_4
REMARK    4  A    between atoms: C_3  and  C_21
REMARK    5  A    between atoms: N_4  and  C_5
REMARK    6  A    between atoms: C_7  and  C_8
REMARK                            x       y       z     vdW  Elec       q    Type
REMARK                         _______ _______ _______ _____ _____    ______ ____
ROOT
ATOM      1  C   UNL     1       2.879   6.002  18.344  0.00  0.00    +0.000 A 
ATOM      2  N   UNL     1       2.557   7.171  18.935  0.00  0.00    +0.000 NA
ATOM      3  C   UNL     1       1.779   7.132  20.036  0.00  0.00    +0.000 A 
ATOM      4  N   UNL     1       1.356   6.013  20.631  0.00  0.00    +0.000 NA
ATOM      5  C   UNL     1       1.714   4.859  20.062  0.00  0.00    +0.000 A 
ATOM      6  C   UNL     1       2.432   4.790  18.870  0.00  0.00    +0.000 A 
ATOM      7  C   UNL     1       2.791   3.406  18.381  0.00  0.00    +0.000 C 
ATOM      8  C   UNL     1       3.882   2.765  19.245  0.00  0.00    +0.000 C 
ATOM      9  N   UNL     1       3.321   2.035  20.390  0.00  0.00    +0.000 NA
ATOM     10  C   UNL     1       2.648   2.905  21.371  0.00  0.00    +0.000 C 
ATOM     11  C   UNL     1       1.382   3.607  20.849  0.00  0.00    +0.000 C 
ATOM     12  H   UNL     1       4.077   1.539  20.864  0.00  0.00    +0.000 HD
ENDROOT
BRANCH   3  13
ATOM     13  C   UNL     1       1.394   8.396  20.653  0.00  0.00    +0.000 A 
ATOM     14  C   UNL     1       1.205   8.823  21.956  0.00  0.00    +0.000 A 
ATOM     15  C   UNL     1       0.791  10.179  21.890  0.00  0.00    +0.000 A 
ATOM     16  C   UNL     1       0.763  10.504  20.556  0.00  0.00    +0.000 A 
ATOM     17  O   UNL     1       1.129   9.439  19.801  0.00  0.00    +0.000 OA
ENDBRANCH   3  13
BRANCH   1  18
ATOM     18  N   UNL     1       3.716   6.175  17.278  0.00  0.00    +0.000 N 
ATOM     19  H   UNL     1       3.609   7.106  16.888  0.00  0.00    +0.000 HD
BRANCH  18  20
ATOM     20  C   UNL     1       4.919   5.448  16.904  0.00  0.00    +0.000 C 
BRANCH  20  21
ATOM     21  C   UNL     1       6.081   5.856  17.788  0.00  0.00    +0.000 A 
ATOM     22  C   UNL     1       6.978   6.881  17.458  0.00  0.00    +0.000 A 
ATOM     23  C   UNL     1       8.067   7.143  18.293  0.00  0.00    +0.000 A 
ATOM     24  C   UNL     1       8.206   6.386  19.443  0.00  0.00    +0.000 A 
ATOM     25  N   UNL     1       7.358   5.399  19.807  0.00  0.00    +0.000 NA
ATOM     26  C   UNL     1       6.319   5.165  18.979  0.00  0.00    +0.000 A 
ENDBRANCH  20  21
BRANCH  20  28
ATOM     27  C   UNL     1       5.722   4.387  14.703  0.00  0.00    +0.000 C 
ATOM     28  C   UNL     1       5.241   5.654  15.403  0.00  0.00    +0.000 C 
ENDBRANCH  20  28
ENDBRANCH  18  20
ENDBRANCH   1  18
TORSDOF 5
ENDMDL
MODEL 2
REMARK VINA RESULT:      -8.1      1.208      1.543
REMARK  Name = 
REMARK  6 active torsions:
REMARK  status: ('A' for Active; 'I' for Inactive)
REMARK    1  A    between atoms: C_1  and  C_2
REMARK    2  A    between atoms: C_2  and  C_3
REMARK    3  A    between atoms: C_3  and  N_4
REMARK    4  A    between atoms: C_3  and  C_21
REMARK    5  A    between atoms: N_4  and  C_5
REMARK    6  A    between atoms: C_7  and  C_8
REMARK                            x       y       z     vdW  Elec       q    Type
REMARK                         _______ _______ _______ _____ _____    ______ ____
ROOT
ATOM      1  C   UNL     1       3.428   5.150  17.700  0.00  0.00    +0.000 A 
ATOM      2  N   UNL     1       3.144   6.467  17.760  0.00  0.00    +0.000 NA
ATOM      3  C   UNL     1       2.234   6.878  18.668  0.00  0.00    +0.000 A 
ATOM      4  N   UNL     1       1.641   6.086  19.565  0.00  0.00    +0.000 NA
ATOM      5  C   UNL     1       1.960   4.789  19.524  0.00  0.00    +0.000 A 
ATOM      6  C   UNL     1       2.810   4.246  18.564  0.00  0.00    +0.000 A 
ATOM      7  C   UNL     1       3.099   2.767  18.682  0.00  0.00    +0.000 C 
ATOM      8  C   UNL     1       4.012   2.462  19.874  0.00  0.00    +0.000 C 
ATOM      9  N   UNL     1       3.249   2.243  21.111  0.00  0.00    +0.000 NA
ATOM     10  C   UNL     1       2.542   3.446  21.587  0.00  0.00    +0.000 C 
ATOM     11  C   UNL     1       1.420   3.944  20.660  0.00  0.00    +0.000 C 
ATOM     12  H   UNL     1       3.891   1.936  21.842  0.00  0.00    +0.000 HD
ENDROOT
BRANCH   3  13
ATOM     13  C   UNL     1       1.893   8.295  18.708  0.00  0.00    +0.000 A 
ATOM     14  C   UNL     1       1.966   9.337  17.800  0.00  0.00    +0.000 A 
ATOM     15  C   UNL     1       1.508  10.502  18.470  0.00  0.00    +0.000 A 
ATOM     16  C   UNL     1       1.171  10.102  19.740  0.00  0.00    +0.000 A 
ATOM     17  O   UNL     1       1.395   8.774  19.894  0.00  0.00    +0.000 OA
ENDBRANCH   3  13
BRANCH   1  18
ATOM     18  N   UNL     1       4.403   4.874  16.783  0.00  0.00    +0.000 N 
ATOM     19  H   UNL     1       4.188   5.309  15.892  0.00  0.00    +0.000 HD
BRANCH  18  20
ATOM     20  C   UNL     1       5.777   4.438  16.980  0.00  0.00    +0.000 C 
BRANCH  20  21
ATOM     21  C   UNL     1       6.616   5.569  17.541  0.00  0.00    +0.000 A 
ATOM     22  C   UNL     1       6.697   6.836  16.949  0.00  0.00    +0.000 A 
ATOM     23  C   UNL     1       7.554   7.799  17.489  0.00  0.00    +0.000 A 
ATOM     24  C   UNL     1       8.281   7.467  18.619  0.00  0.00    +0.000 A 
ATOM     25  N   UNL     1       8.221   6.264  19.231  0.00  0.00    +0.000 NA
ATOM     26  C   UNL     1       7.391   5.354  18.684  0.00  0.00    +0.000 A 
ENDBRANCH  20  21
BRANCH  20  28
ATOM     27  C   UNL     1       5.599   4.310  14.417  0.00  0.00    +0.000 C 
ATOM     28  C   UNL     1       6.372   3.884  15.662  0.00  0.00    +0.000 C 
ENDBRANCH  20  28
ENDBRANCH  18  20
ENDBRANCH   1  18
TORSDOF 5
ENDMDL
MODEL 3
REMARK VINA RESULT:      -8.0      1.842      3.241
REMARK  Name = 
REMARK  6 active torsions:
REMARK  status: ('A' for Active; 'I' for Inactive)
REMARK    1  A    between atoms: C_1  and  C_2
REMARK    2  A    between atoms: C_2  and  C_3
REMARK    3  A    between atoms: C_3  and  N_4
REMARK    4  A    between atoms: C_3  and  C_21
REMARK    5  A    between atoms: N_4  and  C_5
REMARK    6  A    between atoms: C_7  and  C_8
REMARK                            x       y       z     vdW  Elec       q    Type
REMARK                         _______ _______ _______ _____ _____    ______ ____
ROOT
ATOM      1  C   UNL     1       3.799   4.672  18.090  0.00  0.00    +0.000 A 
ATOM      2  N   UNL     1       3.529   5.988  17.972  0.00  0.00    +0.000 NA
ATOM      3  C   UNL     1       2.491   6.487  18.675  0.00  0.00    +0.000 A 
ATOM      4  N   UNL     1       1.747   5.788  19.537  0.00  0.00    +0.000 NA
ATOM      5  C   UNL     1       2.049   4.494  19.677  0.00  0.00    +0.000 A 
ATOM      6  C   UNL     1       3.036   3.858  18.926  0.00  0.00    +0.000 A 
ATOM      7  C   UNL     1       3.279   2.399  19.236  0.00  0.00    +0.000 C 
ATOM      8  C   UNL     1       3.981   2.215  20.585  0.00  0.00    +0.000 C 
ATOM      9  N   UNL     1       3.024   2.120  21.696  0.00  0.00    +0.000 NA
ATOM     10  C   UNL     1       2.268   3.363  21.929  0.00  0.00    +0.000 C 
ATOM     11  C   UNL     1       1.319   3.766  20.787  0.00  0.00    +0.000 C 
ATOM     12  H   UNL     1       3.535   1.888  22.549  0.00  0.00    +0.000 HD
ENDROOT
BRANCH   3  13
ATOM     13  C   UNL     1       2.169   7.901  18.519  0.00  0.00    +0.000 A 
ATOM     14  C   UNL     1       2.396   8.844  17.532  0.00  0.00    +0.000 A 
ATOM     15  C   UNL     1       1.860  10.071  18.003  0.00  0.00    +0.000 A 
ATOM     16  C   UNL     1       1.327   9.804  19.241  0.00  0.00    +0.000 A 
ATOM     17  O   UNL     1       1.504   8.498  19.560  0.00  0.00    +0.000 OA
ENDBRANCH   3  13
BRANCH   1  18
ATOM     18  N   UNL     1       4.905   4.306  17.376  0.00  0.00    +0.000 N 
ATOM     19  H   UNL     1       4.727   3.456  16.852  0.00  0.00    +0.000 HD
BRANCH  18  20
ATOM     20  C   UNL     1       6.057   5.095  16.964  0.00  0.00    +0.000 C 
BRANCH  20  21
ATOM     21  C   UNL     1       6.354   4.870  15.495  0.00  0.00    +0.000 A 
ATOM     22  C   UNL     1       5.617   3.999  14.683  0.00  0.00    +0.000 A 
ATOM     23  C   UNL     1       6.005   3.793  13.356  0.00  0.00    +0.000 A 
ATOM     24  C   UNL     1       7.104   4.486  12.882  0.00  0.00    +0.000 A 
ATOM     25  N   UNL     1       7.835   5.347  13.625  0.00  0.00    +0.000 NA
ATOM     26  C   UNL     1       7.440   5.522  14.902  0.00  0.00    +0.000 A 
ENDBRANCH  20  21
BRANCH  20  28
ATOM     27  C   UNL     1       7.672   5.918  18.789  0.00  0.00    +0.000 C 
ATOM     28  C   UNL     1       7.286   4.778  17.852  0.00  0.00    +0.000 C 
ENDBRANCH  20  28
ENDBRANCH  18  20
ENDBRANCH   1  18
TORSDOF 5
ENDMDL
MODEL 4
REMARK VINA RESULT:      -8.0      0.769      1.054
REMARK  Name = 
REMARK  6 active torsions:
REMARK  status: ('A' for Active; 'I' for Inactive)
REMARK    1  A    between atoms: C_1  and  C_2
REMARK    2  A    between atoms: C_2  and  C_3
REMARK    3  A    between atoms: C_3  and  N_4
REMARK    4  A    between atoms: C_3  and  C_21
REMARK    5  A    between atoms: N_4  and  C_5
REMARK    6  A    between atoms: C_7  and  C_8
REMARK                            x       y       z     vdW  Elec       q    Type
REMARK                         _______ _______ _______ _____ _____    ______ ____
ROOT
ATOM      1  C   UNL     1       3.014   5.791  18.260  0.00  0.00    +0.000 A 
ATOM      2  N   UNL     1       2.663   6.978  18.796  0.00  0.00    +0.000 NA
ATOM      3  C   UNL     1       1.891   6.969  19.903  0.00  0.00    +0.000 A 
ATOM      4  N   UNL     1       1.502   5.869  20.552  0.00  0.00    +0.000 NA
ATOM      5  C   UNL     1       1.890   4.699  20.036  0.00  0.00    +0.000 A 
ATOM      6  C   UNL     1       2.604   4.593  18.844  0.00  0.00    +0.000 A 
ATOM      7  C   UNL     1       2.998   3.198  18.419  0.00  0.00    +0.000 C 
ATOM      8  C   UNL     1       4.111   2.629  19.305  0.00  0.00    +0.000 C 
ATOM      9  N   UNL     1       3.576   1.939  20.487  0.00  0.00    +0.000 NA
ATOM     10  C   UNL     1       2.883   2.835  21.430  0.00  0.00    +0.000 C 
ATOM     11  C   UNL     1       1.596   3.477  20.883  0.00  0.00    +0.000 C 
ATOM     12  H   UNL     1       4.347   1.486  20.979  0.00  0.00    +0.000 HD
ENDROOT
BRANCH   3  13
ATOM     13  C   UNL     1       1.475   8.250  20.462  0.00  0.00    +0.000 A 
ATOM     14  C   UNL     1       1.220   8.715  21.740  0.00  0.00    +0.000 A 
ATOM     15  C   UNL     1       0.808  10.067  21.613  0.00  0.00    +0.000 A 
ATOM     16  C   UNL     1       0.846  10.352  20.270  0.00  0.00    +0.000 A 
ATOM     17  O   UNL     1       1.251   9.266  19.566  0.00  0.00    +0.000 OA
ENDBRANCH   3  13
BRANCH   1  18
ATOM     18  N   UNL     1       3.841   5.936  17.181  0.00  0.00    +0.000 N 
ATOM     19  H   UNL     1       3.693   6.836  16.737  0.00  0.00    +0.000 HD
BRANCH  18  20
ATOM     20  C   UNL     1       5.075   5.241  16.846  0.00  0.00    +0.000 C 
BRANCH  20  21
ATOM     21  C   UNL     1       6.264   5.940  17.474  0.00  0.00    +0.000 A 
ATOM     22  C   UNL     1       6.973   5.425  18.567  0.00  0.00    +0.000 A 
ATOM     23  C   UNL     1       8.011   6.170  19.133  0.00  0.00    +0.000 A 
ATOM     24  C   UNL     1       8.319   7.394  18.567  0.00  0.00    +0.000 A 
ATOM     25  N   UNL     1       7.673   7.922  17.504  0.00  0.00    +0.000 NA
ATOM     26  C   UNL     1       6.673   7.183  16.983  0.00  0.00    +0.000 A 
ENDBRANCH  20  21
BRANCH  20  28
ATOM     27  C   UNL     1       6.094   3.926  14.884  0.00  0.00    +0.000 C 
ATOM     28  C   UNL     1       5.232   5.110  15.311  0.00  0.00    +0.000 C 
ENDBRANCH  20  28
ENDBRANCH  18  20
ENDBRANCH   1  18
TORSDOF 5
ENDMDL
MODEL 5
REMARK VINA RESULT:      -7.9      1.140      2.447
REMARK  Name = 
REMARK  6 active torsions:
REMARK  status: ('A' for Active; 'I' for Inactive)
REMARK    1  A    between atoms: C_1  and  C_2
REMARK    2  A    between atoms: C_2  and  C_3
REMARK    3  A    between atoms: C_3  and  N_4
REMARK    4  A    between atoms: C_3  and  C_21
REMARK    5  A    between atoms: N_4  and  C_5
REMARK    6  A    between atoms: C_7  and  C_8
REMARK                            x       y       z     vdW  Elec       q    Type
REMARK                         _______ _______ _______ _____ _____    ______ ____
ROOT
ATOM      1  C   UNL     1       2.953   6.016  18.535  0.00  0.00    +0.000 A 
ATOM      2  N   UNL     1       2.601   7.180  19.119  0.00  0.00    +0.000 NA
ATOM      3  C   UNL     1       1.761   7.131  20.174  0.00  0.00    +0.000 A 
ATOM      4  N   UNL     1       1.302   6.008  20.731  0.00  0.00    +0.000 NA
ATOM      5  C   UNL     1       1.689   4.858  20.170  0.00  0.00    +0.000 A 
ATOM      6  C   UNL     1       2.474   4.800  19.020  0.00  0.00    +0.000 A 
ATOM      7  C   UNL     1       2.856   3.420  18.538  0.00  0.00    +0.000 C 
ATOM      8  C   UNL     1       3.895   2.766  19.456  0.00  0.00    +0.000 C 
ATOM      9  N   UNL     1       3.267   2.026  20.559  0.00  0.00    +0.000 NA
ATOM     10  C   UNL     1       2.542   2.888  21.509  0.00  0.00    +0.000 C 
ATOM     11  C   UNL     1       1.309   3.599  20.924  0.00  0.00    +0.000 C 
ATOM     12  H   UNL     1       3.993   1.522  21.070  0.00  0.00    +0.000 HD
ENDROOT
BRANCH   3  13
ATOM     13  C   UNL     1       1.345   8.390  20.781  0.00  0.00    +0.000 A 
ATOM     14  C   UNL     1       1.117   8.813  22.079  0.00  0.00    +0.000 A 
ATOM     15  C   UNL     1       0.688  10.164  22.003  0.00  0.00    +0.000 A 
ATOM     16  C   UNL     1       0.691  10.490  20.669  0.00  0.00    +0.000 A 
ATOM     17  O   UNL     1       1.089   9.430  19.923  0.00  0.00    +0.000 OA
ENDBRANCH   3  13
BRANCH   1  18
ATOM     18  N   UNL     1       3.850   6.198  17.520  0.00  0.00    +0.000 N 
ATOM     19  H   UNL     1       3.419   6.695  16.748  0.00  0.00    +0.000 HD
BRANCH  18  20
ATOM     20  C   UNL     1       5.305   6.159  17.538  0.00  0.00    +0.000 C 
BRANCH  20  21
ATOM     21  C   UNL     1       5.832   5.495  16.281  0.00  0.00    +0.000 A 
ATOM     22  C   UNL     1       5.200   4.411  15.658  0.00  0.00    +0.000 A 
ATOM     23  C   UNL     1       5.794   3.810  14.545  0.00  0.00    +0.000 A 
ATOM     24  C   UNL     1       6.987   4.332  14.080  0.00  0.00    +0.000 A 
ATOM     25  N   UNL     1       7.623   5.384  14.640  0.00  0.00    +0.000 NA
ATOM     26  C   UNL     1       7.030   5.940  15.715  0.00  0.00    +0.000 A 
ENDBRANCH  20  21
BRANCH  20  28
ATOM     27  C   UNL     1       7.284   5.746  19.128  0.00  0.00    +0.000 C 
ATOM     28  C   UNL     1       5.820   5.453  18.817  0.00  0.00    +0.000 C 
ENDBRANCH  20  28
ENDBRANCH  18  20
ENDBRANCH   1  18
TORSDOF 5
ENDMDL
MODEL 6
REMARK VINA RESULT:      -7.9      1.480      1.846
REMARK  Name = 
REMARK  6 active torsions:
REMARK  status: ('A' for Active; 'I' for Inactive)
REMARK    1  A    between atoms: C_1  and  C_2
REMARK    2  A    between atoms: C_2  and  C_3
REMARK    3  A    between atoms: C_3  and  N_4
REMARK    4  A    between atoms: C_3  and  C_21
REMARK    5  A    between atoms: N_4  and  C_5
REMARK    6  A    between atoms: C_7  and  C_8
REMARK                            x       y       z     vdW  Elec       q    Type
REMARK                         _______ _______ _______ _____ _____    ______ ____
ROOT
ATOM      1  C   UNL     1       3.604   5.083  17.423  0.00  0.00    +0.000 A 
ATOM      2  N   UNL     1       3.304   6.394  17.525  0.00  0.00    +0.000 NA
ATOM      3  C   UNL     1       2.424   6.770  18.477  0.00  0.00    +0.000 A 
ATOM      4  N   UNL     1       1.877   5.948  19.376  0.00  0.00    +0.000 NA
ATOM      5  C   UNL     1       2.212   4.657  19.292  0.00  0.00    +0.000 A 
ATOM      6  C   UNL     1       3.033   4.149  18.287  0.00  0.00    +0.000 A 
ATOM      7  C   UNL     1       3.347   2.673  18.359  0.00  0.00    +0.000 C 
ATOM      8  C   UNL     1       4.309   2.353  19.508  0.00  0.00    +0.000 C 
ATOM      9  N   UNL     1       3.597   2.094  20.767  0.00  0.00    +0.000 NA
ATOM     10  C   UNL     1       2.892   3.274  21.298  0.00  0.00    +0.000 C 
ATOM     11  C   UNL     1       1.728   3.777  20.427  0.00  0.00    +0.000 C 
ATOM     12  H   UNL     1       4.271   1.779  21.465  0.00  0.00    +0.000 HD
ENDROOT
BRANCH   3  13
ATOM     13  C   UNL     1       2.065   8.180  18.564  0.00  0.00    +0.000 A 
ATOM     14  C   UNL     1       1.442   8.966  19.517  0.00  0.00    +0.000 A 
ATOM     15  C   UNL     1       1.354  10.276  18.978  0.00  0.00    +0.000 A 
ATOM     16  C   UNL     1       1.938  10.218  17.736  0.00  0.00    +0.000 A 
ATOM     17  O   UNL     1       2.374   8.960  17.477  0.00  0.00    +0.000 OA
ENDBRANCH   3  13
BRANCH   1  18
ATOM     18  N   UNL     1       4.547   4.843  16.463  0.00  0.00    +0.000 N 
ATOM     19  H   UNL     1       4.313   5.328  15.604  0.00  0.00    +0.000 HD
BRANCH  18  20
ATOM     20  C   UNL     1       5.919   4.377  16.595  0.00  0.00    +0.000 C 
BRANCH  20  21
ATOM     21  C   UNL     1       6.764   5.414  17.308  0.00  0.00    +0.000 A 
ATOM     22  C   UNL     1       7.377   5.189  18.548  0.00  0.00    +0.000 A 
ATOM     23  C   UNL     1       8.076   6.225  19.173  0.00  0.00    +0.000 A 
ATOM     24  C   UNL     1       8.159   7.443  18.521  0.00  0.00    +0.000 A 
ATOM     25  N   UNL     1       7.598   7.699  17.319  0.00  0.00    +0.000 NA
ATOM     26  C   UNL     1       6.925   6.683  16.743  0.00  0.00    +0.000 A 
ENDBRANCH  20  21
BRANCH  20  28
ATOM     27  C   UNL     1       5.486   4.052  14.080  0.00  0.00    +0.000 C 
ATOM     28  C   UNL     1       6.510   4.012  15.210  0.00  0.00    +0.000 C 
ENDBRANCH  20  28
ENDBRANCH  18  20
ENDBRANCH   1  18
TORSDOF 5
ENDMDL
MODEL 7
REMARK VINA RESULT:      -7.7      2.136      5.922
REMARK  Name = 
REMARK  6 active torsions:
REMARK  status: ('A' for Active; 'I' for Inactive)
REMARK    1  A    between atoms: C_1  and  C_2
REMARK    2  A    between atoms: C_2  and  C_3
REMARK    3  A    between atoms: C_3  and  N_4
REMARK    4  A    between atoms: C_3  and  C_21
REMARK    5  A    between atoms: N_4  and  C_5
REMARK    6  A    between atoms: C_7  and  C_8
REMARK                            x       y       z     vdW  Elec       q    Type
REMARK                         _______ _______ _______ _____ _____    ______ ____
ROOT
ATOM      1  C   UNL     1       2.718   5.697  20.062  0.00  0.00    +0.000 A 
ATOM      2  N   UNL     1       3.900   6.195  19.643  0.00  0.00    +0.000 NA
ATOM      3  C   UNL     1       4.855   5.321  19.260  0.00  0.00    +0.000 A 
ATOM      4  N   UNL     1       4.695   3.997  19.198  0.00  0.00    +0.000 NA
ATOM      5  C   UNL     1       3.507   3.517  19.576  0.00  0.00    +0.000 A 
ATOM      6  C   UNL     1       2.489   4.322  20.082  0.00  0.00    +0.000 A 
ATOM      7  C   UNL     1       1.192   3.627  20.427  0.00  0.00    +0.000 C 
ATOM      8  C   UNL     1       0.427   3.197  19.171  0.00  0.00    +0.000 C 
ATOM      9  N   UNL     1       0.829   1.860  18.711  0.00  0.00    +0.000 NA
ATOM     10  C   UNL     1       2.224   1.794  18.239  0.00  0.00    +0.000 C 
ATOM     11  C   UNL     1       3.286   2.039  19.326  0.00  0.00    +0.000 C 
ATOM     12  H   UNL     1       0.216   1.579  17.945  0.00  0.00    +0.000 HD
ENDROOT
BRANCH   3  13
ATOM     13  C   UNL     1       6.148   5.853  18.846  0.00  0.00    +0.000 A 
ATOM     14  C   UNL     1       7.434   5.778  19.349  0.00  0.00    +0.000 A 
ATOM     15  C   UNL     1       8.258   6.555  18.494  0.00  0.00    +0.000 A 
ATOM     16  C   UNL     1       7.432   7.047  17.513  0.00  0.00    +0.000 A 
ATOM     17  O   UNL     1       6.158   6.627  17.712  0.00  0.00    +0.000 OA
ENDBRANCH   3  13
BRANCH   1  18
ATOM     18  N   UNL     1       1.822   6.683  20.365  0.00  0.00    +0.000 N 
ATOM     19  H   UNL     1       1.237   6.406  21.146  0.00  0.00    +0.000 HD
BRANCH  18  20
ATOM     20  C   UNL     1       1.844   8.101  20.040  0.00  0.00    +0.000 C 
BRANCH  20  21
ATOM     21  C   UNL     1       0.978   8.881  21.010  0.00  0.00    +0.000 A 
ATOM     22  C   UNL     1      -0.144   9.623  20.617  0.00  0.00    +0.000 A 
ATOM     23  C   UNL     1      -0.843  10.375  21.565  0.00  0.00    +0.000 A 
ATOM     24  C   UNL     1      -0.410  10.336  22.878  0.00  0.00    +0.000 A 
ATOM     25  N   UNL     1       0.655   9.622  23.303  0.00  0.00    +0.000 NA
ATOM     26  C   UNL     1       1.314   8.911  22.366  0.00  0.00    +0.000 A 
ENDBRANCH  20  21
BRANCH  20  28
ATOM     27  C   UNL     1       2.579   8.625  17.631  0.00  0.00    +0.000 C 
ATOM     28  C   UNL     1       1.413   8.335  18.571  0.00  0.00    +0.000 C 
ENDBRANCH  20  28
ENDBRANCH  18  20
ENDBRANCH   1  18
TORSDOF 5
ENDMDL
MODEL 8
REMARK VINA RESULT:      -7.7      1.714      3.177
REMARK  Name = 
REMARK  6 active torsions:
REMARK  status: ('A' for Active; 'I' for Inactive)
REMARK    1  A    between atoms: C_1  and  C_2
REMARK    2  A    between atoms: C_2  and  C_3
REMARK    3  A    between atoms: C_3  and  N_4
REMARK    4  A    between atoms: C_3  and  C_21
REMARK    5  A    between atoms: N_4  and  C_5
REMARK    6  A    between atoms: C_7  and  C_8
REMARK                            x       y       z     vdW  Elec       q    Type
REMARK                         _______ _______ _______ _____ _____    ______ ____
ROOT
ATOM      1  C   UNL     1       4.092   5.108  18.079  0.00  0.00    +0.000 A 
ATOM      2  N   UNL     1       3.688   6.395  18.059  0.00  0.00    +0.000 NA
ATOM      3  C   UNL     1       2.549   6.712  18.711  0.00  0.00    +0.000 A 
ATOM      4  N   UNL     1       1.824   5.857  19.437  0.00  0.00    +0.000 NA
ATOM      5  C   UNL     1       2.256   4.593  19.484  0.00  0.00    +0.000 A 
ATOM      6  C   UNL     1       3.362   4.141  18.768  0.00  0.00    +0.000 A 
ATOM      7  C   UNL     1       3.741   2.691  18.963  0.00  0.00    +0.000 C 
ATOM      8  C   UNL     1       4.354   2.446  20.346  0.00  0.00    +0.000 C 
ATOM      9  N   UNL     1       3.330   2.143  21.356  0.00  0.00    +0.000 NA
ATOM     10  C   UNL     1       2.425   3.272  21.635  0.00  0.00    +0.000 C 
ATOM     11  C   UNL     1       1.528   3.686  20.456  0.00  0.00    +0.000 C 
ATOM     12  H   UNL     1       3.796   1.880  22.226  0.00  0.00    +0.000 HD
ENDROOT
BRANCH   3  13
ATOM     13  C   UNL     1       2.086   8.093  18.656  0.00  0.00    +0.000 A 
ATOM     14  C   UNL     1       2.161   9.105  17.716  0.00  0.00    +0.000 A 
ATOM     15  C   UNL     1       1.540  10.247  18.288  0.00  0.00    +0.000 A 
ATOM     16  C   UNL     1       1.113   9.863  19.535  0.00  0.00    +0.000 A 
ATOM     17  O   UNL     1       1.433   8.565  19.767  0.00  0.00    +0.000 OA
ENDBRANCH   3  13
BRANCH   1  18
ATOM     18  N   UNL     1       5.284   4.932  17.434  0.00  0.00    +0.000 N 
ATOM     19  H   UNL     1       5.520   3.946  17.384  0.00  0.00    +0.000 HD
BRANCH  18  20
ATOM     20  C   UNL     1       6.000   5.819  16.530  0.00  0.00    +0.000 C 
BRANCH  20  21
ATOM     21  C   UNL     1       6.240   5.137  15.198  0.00  0.00    +0.000 A 
ATOM     22  C   UNL     1       7.392   5.336  14.426  0.00  0.00    +0.000 A 
ATOM     23  C   UNL     1       7.499   4.727  13.172  0.00  0.00    +0.000 A 
ATOM     24  C   UNL     1       6.459   3.919  12.748  0.00  0.00    +0.000 A 
ATOM     25  N   UNL     1       5.338   3.688  13.466  0.00  0.00    +0.000 NA
ATOM     26  C   UNL     1       5.260   4.293  14.668  0.00  0.00    +0.000 A 
ENDBRANCH  20  21
BRANCH  20  28
ATOM     27  C   UNL     1       7.501   5.856  18.619  0.00  0.00    +0.000 C 
ATOM     28  C   UNL     1       7.325   6.304  17.171  0.00  0.00    +0.000 C 
ENDBRANCH  20  28
ENDBRANCH  18  20
ENDBRANCH   1  18
TORSDOF 5
ENDMDL
MODEL 9
REMARK VINA RESULT:      -7.7      1.559      2.835
REMARK  Name = 
REMARK  6 active torsions:
REMARK  status: ('A' for Active; 'I' for Inactive)
REMARK    1  A    between atoms: C_1  and  C_2
REMARK    2  A    between atoms: C_2  and  C_3
REMARK    3  A    between atoms: C_3  and  N_4
REMARK    4  A    between atoms: C_3  and  C_21
REMARK    5  A    between atoms: N_4  and  C_5
REMARK    6  A    between atoms: C_7  and  C_8
REMARK                            x       y       z     vdW  Elec       q    Type
REMARK                         _______ _______ _______ _____ _____    ______ ____
ROOT
ATOM      1  C   UNL     1       4.044   5.348  18.849  0.00  0.00    +0.000 A 
ATOM      2  N   UNL     1       3.575   6.611  18.901  0.00  0.00    +0.000 NA
ATOM      3  C   UNL     1       2.350   6.811  19.430  0.00  0.00    +0.000 A 
ATOM      4  N   UNL     1       1.588   5.857  19.971  0.00  0.00    +0.000 NA
ATOM      5  C   UNL     1       2.079   4.614  19.952  0.00  0.00    +0.000 A 
ATOM      6  C   UNL     1       3.288   4.285  19.343  0.00  0.00    +0.000 A 
ATOM      7  C   UNL     1       3.719   2.840  19.444  0.00  0.00    +0.000 C 
ATOM      8  C   UNL     1       4.169   2.480  20.864  0.00  0.00    +0.000 C 
ATOM      9  N   UNL     1       3.047   2.032  21.701  0.00  0.00    +0.000 NA
ATOM     10  C   UNL     1       2.054   3.088  21.969  0.00  0.00    +0.000 C 
ATOM     11  C   UNL     1       1.288   3.583  20.730  0.00  0.00    +0.000 C 
ATOM     12  H   UNL     1       3.416   1.702  22.593  0.00  0.00    +0.000 HD
ENDROOT
BRANCH   3  13
ATOM     13  C   UNL     1       1.822   8.170  19.450  0.00  0.00    +0.000 A 
ATOM     14  C   UNL     1       1.125   8.928  20.374  0.00  0.00    +0.000 A 
ATOM     15  C   UNL     1       0.867  10.185  19.768  0.00  0.00    +0.000 A 
ATOM     16  C   UNL     1       1.431  10.128  18.517  0.00  0.00    +0.000 A 
ATOM     17  O   UNL     1       2.014   8.919  18.316  0.00  0.00    +0.000 OA
ENDBRANCH   3  13
BRANCH   1  18
ATOM     18  N   UNL     1       5.314   5.288  18.348  0.00  0.00    +0.000 N 
ATOM     19  H   UNL     1       5.684   4.347  18.425  0.00  0.00    +0.000 HD
BRANCH  18  20
ATOM     20  C   UNL     1       6.002   6.185  17.432  0.00  0.00    +0.000 C 
BRANCH  20  21
ATOM     21  C   UNL     1       6.172   5.529  16.076  0.00  0.00    +0.000 A 
ATOM     22  C   UNL     1       5.205   4.698  15.494  0.00  0.00    +0.000 A 
ATOM     23  C   UNL     1       5.474   4.072  14.275  0.00  0.00    +0.000 A 
ATOM     24  C   UNL     1       6.692   4.319  13.668  0.00  0.00    +0.000 A 
ATOM     25  N   UNL     1       7.647   5.124  14.185  0.00  0.00    +0.000 NA
ATOM     26  C   UNL     1       7.362   5.710  15.365  0.00  0.00    +0.000 A 
ENDBRANCH  20  21
BRANCH  20  28
ATOM     27  C   UNL     1       7.845   5.765  19.176  0.00  0.00    +0.000 C 
ATOM     28  C   UNL     1       7.360   6.638  18.023  0.00  0.00    +0.000 C 
ENDBRANCH  20  28
ENDBRANCH  18  20
ENDBRANCH   1  18
TORSDOF 5
ENDMDL
