MODEL 1
REMARK VINA RESULT:      -7.4      0.000      0.000
REMARK  Name = 
REMARK  7 active torsions:
REMARK  status: ('A' for Active; 'I' for Inactive)
REMARK    1  A    between atoms: C_1  and  C_2
REMARK    2  A    between atoms: C_2  and  C_3
REMARK    3  A    between atoms: C_3  and  N_4
REMARK    4  A    between atoms: C_6  and  C_7
REMARK    5  A    between atoms: C_7  and  N_8
REMARK    6  A    between atoms: N_8  and  C_9
REMARK    7  A    between atoms: C_15  and  C_16
REMARK                            x       y       z     vdW  Elec       q    Type
REMARK                         _______ _______ _______ _____ _____    ______ ____
ROOT
ATOM      1  N   UNL     1       2.806   6.491  18.831  0.00  0.00    +0.000 N 
ATOM      2  H   UNL     1       2.078   6.377  18.134  0.00  0.00    +0.000 HD
ENDROOT
BRANCH   1   3
ATOM      3  C   UNL     1       4.054   6.008  18.430  0.00  0.00    +0.000 A 
ATOM      4  C   UNL     1       4.896   5.435  19.391  0.00  0.00    +0.000 A 
ATOM      5  N   UNL     1       6.168   5.008  19.221  0.00  0.00    +0.000 NA
ATOM      6  C   UNL     1       6.513   5.012  17.925  0.00  0.00    +0.000 A 
ATOM      7  N   UNL     1       7.742   4.649  17.435  0.00  0.00    +0.000 N 
ATOM      8  N   UNL     1       7.759   4.534  16.090  0.00  0.00    +0.000 NA
ATOM      9  C   UNL     1       6.504   4.862  15.741  0.00  0.00    +0.000 A 
ATOM     10  C   UNL     1       5.997   4.457  14.406  0.00  0.00    +0.000 C 
ATOM     11  C   UNL     1       5.765   5.376  16.825  0.00  0.00    +0.000 A 
ATOM     12  C   UNL     1       4.499   5.962  17.091  0.00  0.00    +0.000 A 
ATOM     13  H   UNL     1       8.575   4.398  17.960  0.00  0.00    +0.000 HD
ENDBRANCH   1   3
BRANCH   1  14
ATOM     14  C   UNL     1       2.293   6.305  20.170  0.00  0.00    +0.000 C 
BRANCH  14  17
ATOM     15  N   UNL     1       1.495   2.885  20.163  0.00  0.00    +0.000 N 
ATOM     16  C   UNL     1       0.899   4.114  20.027  0.00  0.00    +0.000 A 
ATOM     17  C   UNL     1       1.832   4.951  20.617  0.00  0.00    +0.000 A 
ATOM     18  C   UNL     1       2.438   4.112  21.582  0.00  0.00    +0.000 A 
ATOM     19  N   UNL     1       2.265   2.822  21.270  0.00  0.00    +0.000 NA
BRANCH  15  20
ATOM     20  C   UNL     1       1.520   1.827  19.164  0.00  0.00    +0.000 C 
BRANCH  20  22
ATOM     21  C   UNL     1       3.045   2.816  17.400  0.00  0.00    +0.000 C 
ATOM     22  C   UNL     1       2.863   1.695  18.418  0.00  0.00    +0.000 C 
ENDBRANCH  20  22
ENDBRANCH  15  20
ENDBRANCH  14  17
ENDBRANCH   1  14
TORSDOF 5
ENDMDL
MODEL 2
REMARK VINA RESULT:      -7.2      2.027      3.711
REMARK  Name = 
REMARK  7 active torsions:
REMARK  status: ('A' for Active; 'I' for Inactive)
REMARK    1  A    between atoms: C_1  and  C_2
REMARK    2  A    between atoms: C_2  and  C_3
REMARK    3  A    between atoms: C_3  and  N_4
REMARK    4  A    between atoms: C_6  and  C_7
REMARK    5  A    between atoms: C_7  and  N_8
REMARK    6  A    between atoms: N_8  and  C_9
REMARK    7  A    between atoms: C_15  and  C_16
REMARK                            x       y       z     vdW  Elec       q    Type
REMARK                         _______ _______ _______ _____ _____    ______ ____
ROOT
ATOM      1  N   UNL     1       5.372   3.540  17.198  0.00  0.00    +0.000 N 
ATOM      2  H   UNL     1       5.723   3.971  18.046  0.00  0.00    +0.000 HD
ENDROOT
BRANCH   1   3
ATOM      3  C   UNL     1       5.983   4.007  16.031  0.00  0.00    +0.000 A 
ATOM      4  C   UNL     1       7.025   4.938  16.141  0.00  0.00    +0.000 A 
ATOM      5  N   UNL     1       7.665   5.577  15.137  0.00  0.00    +0.000 NA
ATOM      6  C   UNL     1       7.321   5.075  13.942  0.00  0.00    +0.000 A 
ATOM      7  N   UNL     1       7.789   5.524  12.733  0.00  0.00    +0.000 N 
ATOM      8  N   UNL     1       7.458   4.712  11.706  0.00  0.00    +0.000 NA
ATOM      9  C   UNL     1       6.742   3.744  12.302  0.00  0.00    +0.000 A 
ATOM     10  C   UNL     1       6.552   2.450  11.602  0.00  0.00    +0.000 C 
ATOM     11  C   UNL     1       6.449   4.048  13.647  0.00  0.00    +0.000 A 
ATOM     12  C   UNL     1       5.695   3.531  14.734  0.00  0.00    +0.000 A 
ATOM     13  H   UNL     1       8.391   6.322  12.553  0.00  0.00    +0.000 HD
ENDBRANCH   1   3
BRANCH   1  14
ATOM     14  C   UNL     1       3.952   3.279  17.282  0.00  0.00    +0.000 C 
BRANCH  14  17
ATOM     15  N   UNL     1       1.648   4.805  19.451  0.00  0.00    +0.000 N 
ATOM     16  C   UNL     1       1.701   4.163  18.238  0.00  0.00    +0.000 A 
ATOM     17  C   UNL     1       3.038   4.292  17.904  0.00  0.00    +0.000 A 
ATOM     18  C   UNL     1       3.403   5.505  18.534  0.00  0.00    +0.000 A 
ATOM     19  N   UNL     1       2.558   5.798  19.530  0.00  0.00    +0.000 NA
BRANCH  15  20
ATOM     20  C   UNL     1       0.897   4.373  20.620  0.00  0.00    +0.000 C 
BRANCH  20  22
ATOM     21  C   UNL     1       2.544   2.742  21.642  0.00  0.00    +0.000 C 
ATOM     22  C   UNL     1       1.156   2.910  21.031  0.00  0.00    +0.000 C 
ENDBRANCH  20  22
ENDBRANCH  15  20
ENDBRANCH  14  17
ENDBRANCH   1  14
TORSDOF 5
ENDMDL
MODEL 3
REMARK VINA RESULT:      -6.8      1.825      6.133
REMARK  Name = 
REMARK  7 active torsions:
REMARK  status: ('A' for Active; 'I' for Inactive)
REMARK    1  A    between atoms: C_1  and  C_2
REMARK    2  A    between atoms: C_2  and  C_3
REMARK    3  A    between atoms: C_3  and  N_4
REMARK    4  A    between atoms: C_6  and  C_7
REMARK    5  A    between atoms: C_7  and  N_8
REMARK    6  A    between atoms: N_8  and  C_9
REMARK    7  A    between atoms: C_15  and  C_16
REMARK                            x       y       z     vdW  Elec       q    Type
REMARK                         _______ _______ _______ _____ _____    ______ ____
ROOT
ATOM      1  N   UNL     1       6.143   4.499  19.139  0.00  0.00    +0.000 N 
ATOM      2  H   UNL     1       6.855   3.778  19.098  0.00  0.00    +0.000 HD
ENDROOT
BRANCH   1   3
ATOM      3  C   UNL     1       4.841   4.018  18.982  0.00  0.00    +0.000 A 
ATOM      4  C   UNL     1       4.499   3.376  17.785  0.00  0.00    +0.000 A 
ATOM      5  N   UNL     1       3.277   2.937  17.408  0.00  0.00    +0.000 NA
ATOM      6  C   UNL     1       2.400   3.009  18.420  0.00  0.00    +0.000 A 
ATOM      7  N   UNL     1       1.077   2.652  18.345  0.00  0.00    +0.000 N 
ATOM      8  N   UNL     1       0.473   2.615  19.552  0.00  0.00    +0.000 NA
ATOM      9  C   UNL     1       1.452   2.984  20.394  0.00  0.00    +0.000 A 
ATOM     10  C   UNL     1       1.321   2.666  21.837  0.00  0.00    +0.000 C 
ATOM     11  C   UNL     1       2.595   3.448  19.713  0.00  0.00    +0.000 A 
ATOM     12  C   UNL     1       3.856   4.041  19.992  0.00  0.00    +0.000 A 
ATOM     13  H   UNL     1       0.555   2.357  17.525  0.00  0.00    +0.000 HD
ENDBRANCH   1   3
BRANCH   1  14
ATOM     14  C   UNL     1       6.597   5.730  18.530  0.00  0.00    +0.000 C 
BRANCH  14  17
ATOM     15  N   UNL     1       6.345   4.993  15.106  0.00  0.00    +0.000 N 
ATOM     16  C   UNL     1       7.289   5.186  16.083  0.00  0.00    +0.000 A 
ATOM     17  C   UNL     1       6.572   5.885  17.039  0.00  0.00    +0.000 A 
ATOM     18  C   UNL     1       5.617   6.585  16.265  0.00  0.00    +0.000 A 
ATOM     19  N   UNL     1       5.445   5.997  15.074  0.00  0.00    +0.000 NA
BRANCH  15  20
ATOM     20  C   UNL     1       6.148   3.778  14.329  0.00  0.00    +0.000 C 
BRANCH  20  22
ATOM     21  C   UNL     1       5.388   3.211  11.980  0.00  0.00    +0.000 C 
ATOM     22  C   UNL     1       6.430   3.941  12.821  0.00  0.00    +0.000 C 
ENDBRANCH  20  22
ENDBRANCH  15  20
ENDBRANCH  14  17
ENDBRANCH   1  14
TORSDOF 5
ENDMDL
MODEL 4
REMARK VINA RESULT:      -6.8      0.934      1.214
REMARK  Name = 
REMARK  7 active torsions:
REMARK  status: ('A' for Active; 'I' for Inactive)
REMARK    1  A    between atoms: C_1  and  C_2
REMARK    2  A    between atoms: C_2  and  C_3
REMARK    3  A    between atoms: C_3  and  N_4
REMARK    4  A    between atoms: C_6  and  C_7
REMARK    5  A    between atoms: C_7  and  N_8
REMARK    6  A    between atoms: N_8  and  C_9
REMARK    7  A    between atoms: C_15  and  C_16
REMARK                            x       y       z     vdW  Elec       q    Type
REMARK                         _______ _______ _______ _____ _____    ______ ____
ROOT
ATOM      1  N   UNL     1       3.289   6.706  19.188  0.00  0.00    +0.000 N 
ATOM      2  H   UNL     1       2.819   7.350  18.561  0.00  0.00    +0.000 HD
ENDROOT
BRANCH   1   3
ATOM      3  C   UNL     1       4.426   6.110  18.639  0.00  0.00    +0.000 A 
ATOM      4  C   UNL     1       5.288   5.397  19.482  0.00  0.00    +0.000 A 
ATOM      5  N   UNL     1       6.479   4.841  19.162  0.00  0.00    +0.000 NA
ATOM      6  C   UNL     1       6.691   4.876  17.838  0.00  0.00    +0.000 A 
ATOM      7  N   UNL     1       7.815   4.404  17.208  0.00  0.00    +0.000 N 
ATOM      8  N   UNL     1       7.684   4.359  15.864  0.00  0.00    +0.000 NA
ATOM      9  C   UNL     1       6.447   4.841  15.662  0.00  0.00    +0.000 A 
ATOM     10  C   UNL     1       5.766   4.566  14.373  0.00  0.00    +0.000 C 
ATOM     11  C   UNL     1       5.884   5.377  16.839  0.00  0.00    +0.000 A 
ATOM     12  C   UNL     1       4.727   6.085  17.260  0.00  0.00    +0.000 A 
ATOM     13  H   UNL     1       8.662   4.035  17.631  0.00  0.00    +0.000 HD
ENDBRANCH   1   3
BRANCH   1  14
ATOM     14  C   UNL     1       2.345   5.976  20.005  0.00  0.00    +0.000 C 
BRANCH  14  17
ATOM     15  N   UNL     1       1.747   2.917  18.387  0.00  0.00    +0.000 N 
ATOM     16  C   UNL     1       1.676   4.270  18.161  0.00  0.00    +0.000 A 
ATOM     17  C   UNL     1       1.643   4.773  19.450  0.00  0.00    +0.000 A 
ATOM     18  C   UNL     1       1.014   3.735  20.176  0.00  0.00    +0.000 A 
ATOM     19  N   UNL     1       1.120   2.568  19.530  0.00  0.00    +0.000 NA
BRANCH  15  20
ATOM     20  C   UNL     1       2.568   1.965  17.654  0.00  0.00    +0.000 C 
BRANCH  20  22
ATOM     21  C   UNL     1       4.281   2.089  19.516  0.00  0.00    +0.000 C 
ATOM     22  C   UNL     1       3.555   1.173  18.536  0.00  0.00    +0.000 C 
ENDBRANCH  20  22
ENDBRANCH  15  20
ENDBRANCH  14  17
ENDBRANCH   1  14
TORSDOF 5
ENDMDL
MODEL 5
REMARK VINA RESULT:      -6.8      1.509      2.110
REMARK  Name = 
REMARK  7 active torsions:
REMARK  status: ('A' for Active; 'I' for Inactive)
REMARK    1  A    between atoms: C_1  and  C_2
REMARK    2  A    between atoms: C_2  and  C_3
REMARK    3  A    between atoms: C_3  and  N_4
REMARK    4  A    between atoms: C_6  and  C_7
REMARK    5  A    between atoms: C_7  and  N_8
REMARK    6  A    between atoms: N_8  and  C_9
REMARK    7  A    between atoms: C_15  and  C_16
REMARK                            x       y       z     vdW  Elec       q    Type
REMARK                         _______ _______ _______ _____ _____    ______ ____
ROOT
ATOM      1  N   UNL     1       2.488   6.537  20.486  0.00  0.00    +0.000 N 
ATOM      2  H   UNL     1       2.364   7.458  20.892  0.00  0.00    +0.000 HD
ENDROOT
BRANCH   1   3
ATOM      3  C   UNL     1       3.258   6.531  19.321  0.00  0.00    +0.000 A 
ATOM      4  C   UNL     1       2.915   7.405  18.281  0.00  0.00    +0.000 A 
ATOM      5  N   UNL     1       3.469   7.475  17.049  0.00  0.00    +0.000 NA
ATOM      6  C   UNL     1       4.568   6.711  16.966  0.00  0.00    +0.000 A 
ATOM      7  N   UNL     1       5.341   6.562  15.842  0.00  0.00    +0.000 N 
ATOM      8  N   UNL     1       6.503   5.917  16.085  0.00  0.00    +0.000 NA
ATOM      9  C   UNL     1       6.430   5.642  17.397  0.00  0.00    +0.000 A 
ATOM     10  C   UNL     1       7.674   5.320  18.138  0.00  0.00    +0.000 C 
ATOM     11  C   UNL     1       5.155   5.921  17.931  0.00  0.00    +0.000 A 
ATOM     12  C   UNL     1       4.434   5.771  19.146  0.00  0.00    +0.000 A 
ATOM     13  H   UNL     1       5.170   6.932  14.912  0.00  0.00    +0.000 HD
ENDBRANCH   1   3
BRANCH   1  14
ATOM     14  C   UNL     1       1.301   5.724  20.640  0.00  0.00    +0.000 C 
BRANCH  14  17
ATOM     15  N   UNL     1       1.987   2.354  19.932  0.00  0.00    +0.000 N 
ATOM     16  C   UNL     1       0.943   3.245  19.942  0.00  0.00    +0.000 A 
ATOM     17  C   UNL     1       1.422   4.237  20.781  0.00  0.00    +0.000 A 
ATOM     18  C   UNL     1       2.280   3.524  21.651  0.00  0.00    +0.000 A 
ATOM     19  N   UNL     1       2.667   2.368  21.097  0.00  0.00    +0.000 NA
BRANCH  15  20
ATOM     20  C   UNL     1       2.487   1.629  18.774  0.00  0.00    +0.000 C 
BRANCH  20  22
ATOM     21  C   UNL     1       2.727   3.413  16.992  0.00  0.00    +0.000 C 
ATOM     22  C   UNL     1       3.468   2.436  17.900  0.00  0.00    +0.000 C 
ENDBRANCH  20  22
ENDBRANCH  15  20
ENDBRANCH  14  17
ENDBRANCH   1  14
TORSDOF 5
ENDMDL
MODEL 6
REMARK VINA RESULT:      -6.8      3.278      4.883
REMARK  Name = 
REMARK  7 active torsions:
REMARK  status: ('A' for Active; 'I' for Inactive)
REMARK    1  A    between atoms: C_1  and  C_2
REMARK    2  A    between atoms: C_2  and  C_3
REMARK    3  A    between atoms: C_3  and  N_4
REMARK    4  A    between atoms: C_6  and  C_7
REMARK    5  A    between atoms: C_7  and  N_8
REMARK    6  A    between atoms: N_8  and  C_9
REMARK    7  A    between atoms: C_15  and  C_16
REMARK                            x       y       z     vdW  Elec       q    Type
REMARK                         _______ _______ _______ _____ _____    ______ ____
ROOT
ATOM      1  N   UNL     1       2.543   6.804  18.185  0.00  0.00    +0.000 N 
ATOM      2  H   UNL     1       1.998   6.531  18.995  0.00  0.00    +0.000 HD
ENDROOT
BRANCH   1   3
ATOM      3  C   UNL     1       3.794   6.186  18.110  0.00  0.00    +0.000 A 
ATOM      4  C   UNL     1       4.236   5.424  19.200  0.00  0.00    +0.000 A 
ATOM      5  N   UNL     1       5.445   4.839  19.357  0.00  0.00    +0.000 NA
ATOM      6  C   UNL     1       6.166   4.900  18.228  0.00  0.00    +0.000 A 
ATOM      7  N   UNL     1       7.437   4.408  18.077  0.00  0.00    +0.000 N 
ATOM      8  N   UNL     1       7.850   4.401  16.791  0.00  0.00    +0.000 NA
ATOM      9  C   UNL     1       6.804   4.928  16.133  0.00  0.00    +0.000 A 
ATOM     10  C   UNL     1       6.685   4.708  14.671  0.00  0.00    +0.000 C 
ATOM     11  C   UNL     1       5.831   5.451  17.009  0.00  0.00    +0.000 A 
ATOM     12  C   UNL     1       4.616   6.186  16.963  0.00  0.00    +0.000 A 
ATOM     13  H   UNL     1       8.040   4.002  18.787  0.00  0.00    +0.000 HD
ENDBRANCH   1   3
BRANCH   1  14
ATOM     14  C   UNL     1       2.343   8.198  17.854  0.00  0.00    +0.000 C 
BRANCH  14  17
ATOM     15  N   UNL     1      -0.126  10.182  19.372  0.00  0.00    +0.000 N 
ATOM     16  C   UNL     1       0.979  10.295  18.566  0.00  0.00    +0.000 A 
ATOM     17  C   UNL     1       1.641   9.105  18.819  0.00  0.00    +0.000 A 
ATOM     18  C   UNL     1       1.265   8.816  20.152  0.00  0.00    +0.000 A 
ATOM     19  N   UNL     1       0.135   9.455  20.479  0.00  0.00    +0.000 NA
BRANCH  15  20
ATOM     20  C   UNL     1      -1.485  10.572  19.028  0.00  0.00    +0.000 C 
BRANCH  20  22
ATOM     21  C   UNL     1      -2.422   9.828  16.795  0.00  0.00    +0.000 C 
ATOM     22  C   UNL     1      -1.681  10.933  17.541  0.00  0.00    +0.000 C 
ENDBRANCH  20  22
ENDBRANCH  15  20
ENDBRANCH  14  17
ENDBRANCH   1  14
TORSDOF 5
ENDMDL
MODEL 7
REMARK VINA RESULT:      -6.8      2.152      4.098
REMARK  Name = 
REMARK  7 active torsions:
REMARK  status: ('A' for Active; 'I' for Inactive)
REMARK    1  A    between atoms: C_1  and  C_2
REMARK    2  A    between atoms: C_2  and  C_3
REMARK    3  A    between atoms: C_3  and  N_4
REMARK    4  A    between atoms: C_6  and  C_7
REMARK    5  A    between atoms: C_7  and  N_8
REMARK    6  A    between atoms: N_8  and  C_9
REMARK    7  A    between atoms: C_15  and  C_16
REMARK                            x       y       z     vdW  Elec       q    Type
REMARK                         _______ _______ _______ _____ _____    ______ ____
ROOT
ATOM      1  N   UNL     1       4.401   3.985  18.581  0.00  0.00    +0.000 N 
ATOM      2  H   UNL     1       4.546   3.043  18.927  0.00  0.00    +0.000 HD
ENDROOT
BRANCH   1   3
ATOM      3  C   UNL     1       5.253   4.340  17.533  0.00  0.00    +0.000 A 
ATOM      4  C   UNL     1       6.565   4.729  17.833  0.00  0.00    +0.000 A 
ATOM      5  N   UNL     1       7.499   5.200  16.976  0.00  0.00    +0.000 NA
ATOM      6  C   UNL     1       7.094   5.084  15.703  0.00  0.00    +0.000 A 
ATOM      7  N   UNL     1       7.813   5.488  14.607  0.00  0.00    +0.000 N 
ATOM      8  N   UNL     1       7.281   5.061  13.441  0.00  0.00    +0.000 NA
ATOM      9  C   UNL     1       6.185   4.392  13.835  0.00  0.00    +0.000 A 
ATOM     10  C   UNL     1       5.559   3.421  12.904  0.00  0.00    +0.000 C 
ATOM     11  C   UNL     1       5.915   4.569  15.207  0.00  0.00    +0.000 A 
ATOM     12  C   UNL     1       4.920   4.240  16.166  0.00  0.00    +0.000 A 
ATOM     13  H   UNL     1       8.699   5.986  14.588  0.00  0.00    +0.000 HD
ENDBRANCH   1   3
BRANCH   1  14
ATOM     14  C   UNL     1       4.058   4.897  19.651  0.00  0.00    +0.000 C 
BRANCH  14  17
ATOM     15  N   UNL     1       1.733   7.454  20.275  0.00  0.00    +0.000 N 
ATOM     16  C   UNL     1       1.849   6.087  20.331  0.00  0.00    +0.000 A 
ATOM     17  C   UNL     1       2.918   5.856  19.483  0.00  0.00    +0.000 A 
ATOM     18  C   UNL     1       2.823   6.924  18.561  0.00  0.00    +0.000 A 
ATOM     19  N   UNL     1       2.120   7.939  19.077  0.00  0.00    +0.000 NA
BRANCH  15  20
ATOM     20  C   UNL     1       1.457   8.340  21.396  0.00  0.00    +0.000 C 
BRANCH  20  22
ATOM     21  C   UNL     1      -0.329  10.044  20.831  0.00  0.00    +0.000 C 
ATOM     22  C   UNL     1      -0.028   8.729  21.542  0.00  0.00    +0.000 C 
ENDBRANCH  20  22
ENDBRANCH  15  20
ENDBRANCH  14  17
ENDBRANCH   1  14
TORSDOF 5
ENDMDL
MODEL 8
REMARK VINA RESULT:      -6.7      2.640      4.421
REMARK  Name = 
REMARK  7 active torsions:
REMARK  status: ('A' for Active; 'I' for Inactive)
REMARK    1  A    between atoms: C_1  and  C_2
REMARK    2  A    between atoms: C_2  and  C_3
REMARK    3  A    between atoms: C_3  and  N_4
REMARK    4  A    between atoms: C_6  and  C_7
REMARK    5  A    between atoms: C_7  and  N_8
REMARK    6  A    between atoms: N_8  and  C_9
REMARK    7  A    between atoms: C_15  and  C_16
REMARK                            x       y       z     vdW  Elec       q    Type
REMARK                         _______ _______ _______ _____ _____    ______ ____
ROOT
ATOM      1  N   UNL     1       2.436   5.192  18.711  0.00  0.00    +0.000 N 
ATOM      2  H   UNL     1       1.847   4.385  18.534  0.00  0.00    +0.000 HD
ENDROOT
BRANCH   1   3
ATOM      3  C   UNL     1       3.772   5.008  18.349  0.00  0.00    +0.000 A 
ATOM      4  C   UNL     1       4.682   4.574  19.322  0.00  0.00    +0.000 A 
ATOM      5  N   UNL     1       6.021   4.436  19.193  0.00  0.00    +0.000 NA
ATOM      6  C   UNL     1       6.405   4.585  17.917  0.00  0.00    +0.000 A 
ATOM      7  N   UNL     1       7.700   4.517  17.470  0.00  0.00    +0.000 N 
ATOM      8  N   UNL     1       7.791   4.483  16.124  0.00  0.00    +0.000 NA
ATOM      9  C   UNL     1       6.509   4.556  15.730  0.00  0.00    +0.000 A 
ATOM     10  C   UNL     1       6.150   4.127  14.356  0.00  0.00    +0.000 C 
ATOM     11  C   UNL     1       5.638   4.841  16.800  0.00  0.00    +0.000 A 
ATOM     12  C   UNL     1       4.266   5.130  17.032  0.00  0.00    +0.000 A 
ATOM     13  H   UNL     1       8.548   4.421  18.022  0.00  0.00    +0.000 HD
ENDBRANCH   1   3
BRANCH   1  14
ATOM     14  C   UNL     1       2.045   5.880  19.922  0.00  0.00    +0.000 C 
BRANCH  14  17
ATOM     15  N   UNL     1       1.139   9.196  19.202  0.00  0.00    +0.000 N 
ATOM     16  C   UNL     1       2.104   8.268  18.896  0.00  0.00    +0.000 A 
ATOM     17  C   UNL     1       1.988   7.377  19.949  0.00  0.00    +0.000 A 
ATOM     18  C   UNL     1       1.536   8.200  21.008  0.00  0.00    +0.000 A 
ATOM     19  N   UNL     1       0.965   9.315  20.535  0.00  0.00    +0.000 NA
BRANCH  15  20
ATOM     20  C   UNL     1       0.228   9.830  18.261  0.00  0.00    +0.000 C 
BRANCH  20  22
ATOM     21  C   UNL     1      -1.768  11.353  17.918  0.00  0.00    +0.000 C 
ATOM     22  C   UNL     1      -0.990  10.508  18.922  0.00  0.00    +0.000 C 
ENDBRANCH  20  22
ENDBRANCH  15  20
ENDBRANCH  14  17
ENDBRANCH   1  14
TORSDOF 5
ENDMDL
MODEL 9
REMARK VINA RESULT:      -6.7      1.981      3.726
REMARK  Name = 
REMARK  7 active torsions:
REMARK  status: ('A' for Active; 'I' for Inactive)
REMARK    1  A    between atoms: C_1  and  C_2
REMARK    2  A    between atoms: C_2  and  C_3
REMARK    3  A    between atoms: C_3  and  N_4
REMARK    4  A    between atoms: C_6  and  C_7
REMARK    5  A    between atoms: C_7  and  N_8
REMARK    6  A    between atoms: N_8  and  C_9
REMARK    7  A    between atoms: C_15  and  C_16
REMARK                            x       y       z     vdW  Elec       q    Type
REMARK                         _______ _______ _______ _____ _____    ______ ____
ROOT
ATOM      1  N   UNL     1       4.954   4.939  17.092  0.00  0.00    +0.000 N 
ATOM      2  H   UNL     1       4.025   5.335  17.014  0.00  0.00    +0.000 HD
ENDROOT
BRANCH   1   3
ATOM      3  C   UNL     1       5.660   4.909  15.888  0.00  0.00    +0.000 A 
ATOM      4  C   UNL     1       6.966   5.418  15.857  0.00  0.00    +0.000 A 
ATOM      5  N   UNL     1       7.765   5.569  14.777  0.00  0.00    +0.000 NA
ATOM      6  C   UNL     1       7.235   4.981  13.694  0.00  0.00    +0.000 A 
ATOM      7  N   UNL     1       7.800   4.976  12.444  0.00  0.00    +0.000 N 
ATOM      8  N   UNL     1       7.178   4.136  11.589  0.00  0.00    +0.000 NA
ATOM      9  C   UNL     1       6.183   3.626  12.333  0.00  0.00    +0.000 A 
ATOM     10  C   UNL     1       5.532   2.364  11.902  0.00  0.00    +0.000 C 
ATOM     11  C   UNL     1       6.050   4.287  13.571  0.00  0.00    +0.000 A 
ATOM     12  C   UNL     1       5.190   4.305  14.702  0.00  0.00    +0.000 A 
ATOM     13  H   UNL     1       8.640   5.457  12.135  0.00  0.00    +0.000 HD
ENDBRANCH   1   3
BRANCH   1  14
ATOM     14  C   UNL     1       4.989   3.849  18.043  0.00  0.00    +0.000 C 
BRANCH  14  17
ATOM     15  N   UNL     1       2.001   2.531  19.334  0.00  0.00    +0.000 N 
ATOM     16  C   UNL     1       3.358   2.327  19.378  0.00  0.00    +0.000 A 
ATOM     17  C   UNL     1       3.783   2.981  18.234  0.00  0.00    +0.000 A 
ATOM     18  C   UNL     1       2.669   2.855  17.370  0.00  0.00    +0.000 A 
ATOM     19  N   UNL     1       1.550   2.620  18.065  0.00  0.00    +0.000 NA
BRANCH  15  20
ATOM     20  C   UNL     1       1.142   2.849  20.465  0.00  0.00    +0.000 C 
BRANCH  20  22
ATOM     21  C   UNL     1       1.938   5.245  20.668  0.00  0.00    +0.000 C 
ATOM     22  C   UNL     1       0.724   4.331  20.542  0.00  0.00    +0.000 C 
ENDBRANCH  20  22
ENDBRANCH  15  20
ENDBRANCH  14  17
ENDBRANCH   1  14
TORSDOF 5
ENDMDL
