MODEL 1
REMARK VINA RESULT:      -7.9      0.000      0.000
REMARK  Name = 
REMARK  12 active torsions:
REMARK  status: ('A' for Active; 'I' for Inactive)
REMARK    1  A    between atoms: C_1  and  N_2
REMARK    2  A    between atoms: N_2  and  C_3
REMARK    3  A    between atoms: N_2  and  C_4
REMARK    4  A    between atoms: C_4  and  C_5
REMARK    5  A    between atoms: C_5  and  C_6
REMARK    6  A    between atoms: C_6  and  C_7
REMARK    7  A    between atoms: C_7  and  C_8
REMARK    8  A    between atoms: N_10  and  C_11
REMARK    9  A    between atoms: C_14  and  N_15
REMARK   10  A    between atoms: N_15  and  C_16
REMARK   11  A    between atoms: C_16  and  N_18
REMARK   12  A    between atoms: C_19  and  C_21
REMARK                            x       y       z     vdW  Elec       q    Type
REMARK                         _______ _______ _______ _____ _____    ______ ____
ROOT
ATOM      1  C   UNL     1       7.891   7.917  17.896  0.00  0.00    +0.000 A 
ATOM      2  C   UNL     1       8.362   7.075  18.902  0.00  0.00    +0.000 A 
ATOM      3  C   UNL     1       7.751   5.836  19.136  0.00  0.00    +0.000 A 
ATOM      4  C   UNL     1       6.643   5.427  18.384  0.00  0.00    +0.000 A 
ATOM      5  C   UNL     1       6.218   6.241  17.339  0.00  0.00    +0.000 A 
ATOM      6  C   UNL     1       6.820   7.486  17.111  0.00  0.00    +0.000 A 
ENDROOT
BRANCH   1   9
ATOM      7  C   UNL     1       8.958  10.078  18.544  0.00  0.00    +0.000 C 
ATOM      8  O   UNL     1       9.113   9.875  19.746  0.00  0.00    +0.000 OA
ATOM      9  N   UNL     1       8.427   9.192  17.625  0.00  0.00    +0.000 N 
ATOM     10  H   UNL     1       8.498   9.453  16.648  0.00  0.00    +0.000 HD
BRANCH   7  11
ATOM     11  C   UNL     1       9.409  11.380  17.919  0.00  0.00    +0.000 C 
BRANCH  11  12
ATOM     12  C   UNL     1      10.928  11.524  17.936  0.00  0.00    +0.000 C 
BRANCH  12  13
ATOM     13  C   UNL     1      11.381  12.898  18.442  0.00  0.00    +0.000 C 
BRANCH  13  14
ATOM     14  C   UNL     1      10.648  13.384  19.702  0.00  0.00    +0.000 C 
BRANCH  14  16
ATOM     15  C   UNL     1      10.080  15.167  18.151  0.00  0.00    +0.000 C 
ATOM     16  N   UNL     1       9.927  14.656  19.517  0.00  0.00    +0.000 NA
ATOM     17  C   UNL     1       8.501  14.471  19.811  0.00  0.00    +0.000 C 
ENDBRANCH  14  16
ENDBRANCH  13  14
ENDBRANCH  12  13
ENDBRANCH  11  12
ENDBRANCH   7  11
ENDBRANCH   1   9
BRANCH   4  18
ATOM     18  N   UNL     1       6.043   4.200  18.744  0.00  0.00    +0.000 N 
ATOM     19  H   UNL     1       6.666   3.391  18.678  0.00  0.00    +0.000 HD
BRANCH  18  20
ATOM     20  C   UNL     1       4.829   3.911  19.329  0.00  0.00    +0.000 C 
ATOM     21  S   UNL     1       4.171   2.431  19.743  0.00  0.00    +0.000 S 
BRANCH  20  22
ATOM     22  N   UNL     1       4.020   5.013  19.577  0.00  0.00    +0.000 N 
ATOM     23  C   UNL     1       3.024   5.534  18.769  0.00  0.00    +0.000 C 
ATOM     24  O   UNL     1       2.666   5.018  17.711  0.00  0.00    +0.000 OA
ATOM     25  H   UNL     1       4.252   5.482  20.442  0.00  0.00    +0.000 HD
BRANCH  23  26
ATOM     26  C   UNL     1       2.374   6.796  19.204  0.00  0.00    +0.000 A 
ATOM     27  C   UNL     1       2.260   7.814  18.244  0.00  0.00    +0.000 A 
ATOM     28  C   UNL     1       1.645   9.017  18.567  0.00  0.00    +0.000 A 
ATOM     29  F   UNL     1       1.559   9.975  17.637  0.00  0.00    +0.000 F 
ATOM     30  C   UNL     1       1.133   9.223  19.837  0.00  0.00    +0.000 A 
ATOM     31  F   UNL     1       0.540  10.384  20.144  0.00  0.00    +0.000 F 
ATOM     32  C   UNL     1       1.230   8.212  20.783  0.00  0.00    +0.000 A 
ATOM     33  F   UNL     1       0.715   8.392  22.009  0.00  0.00    +0.000 F 
ATOM     34  C   UNL     1       1.847   6.993  20.484  0.00  0.00    +0.000 A 
ENDBRANCH  23  26
ENDBRANCH  20  22
ENDBRANCH  18  20
ENDBRANCH   4  18
TORSDOF 10
ENDMDL
MODEL 2
REMARK VINA RESULT:      -7.6      6.420      9.308
REMARK  Name = 
REMARK  12 active torsions:
REMARK  status: ('A' for Active; 'I' for Inactive)
REMARK    1  A    between atoms: C_1  and  N_2
REMARK    2  A    between atoms: N_2  and  C_3
REMARK    3  A    between atoms: N_2  and  C_4
REMARK    4  A    between atoms: C_4  and  C_5
REMARK    5  A    between atoms: C_5  and  C_6
REMARK    6  A    between atoms: C_6  and  C_7
REMARK    7  A    between atoms: C_7  and  C_8
REMARK    8  A    between atoms: N_10  and  C_11
REMARK    9  A    between atoms: C_14  and  N_15
REMARK   10  A    between atoms: N_15  and  C_16
REMARK   11  A    between atoms: C_16  and  N_18
REMARK   12  A    between atoms: C_19  and  C_21
REMARK                            x       y       z     vdW  Elec       q    Type
REMARK                         _______ _______ _______ _____ _____    ______ ____
ROOT
ATOM      1  C   UNL     1       1.297   7.285  20.702  0.00  0.00    +0.000 A 
ATOM      2  C   UNL     1       2.033   7.761  19.619  0.00  0.00    +0.000 A 
ATOM      3  C   UNL     1       2.922   6.918  18.938  0.00  0.00    +0.000 A 
ATOM      4  C   UNL     1       3.106   5.591  19.342  0.00  0.00    +0.000 A 
ATOM      5  C   UNL     1       2.321   5.102  20.381  0.00  0.00    +0.000 A 
ATOM      6  C   UNL     1       1.442   5.946  21.072  0.00  0.00    +0.000 A 
ENDROOT
BRANCH   1   9
ATOM      7  C   UNL     1       0.753   9.137  22.283  0.00  0.00    +0.000 C 
ATOM      8  O   UNL     1       1.877   9.606  22.441  0.00  0.00    +0.000 OA
ATOM      9  N   UNL     1       0.414   8.079  21.460  0.00  0.00    +0.000 N 
ATOM     10  H   UNL     1      -0.576   7.903  21.330  0.00  0.00    +0.000 HD
BRANCH   7  11
ATOM     11  C   UNL     1      -0.441   9.748  22.985  0.00  0.00    +0.000 C 
BRANCH  11  12
ATOM     12  C   UNL     1      -0.658  11.202  22.577  0.00  0.00    +0.000 C 
BRANCH  12  13
ATOM     13  C   UNL     1      -1.944  11.792  23.168  0.00  0.00    +0.000 C 
BRANCH  13  14
ATOM     14  C   UNL     1      -2.874  12.448  22.136  0.00  0.00    +0.000 C 
BRANCH  14  16
ATOM     15  C   UNL     1      -4.480  13.002  23.874  0.00  0.00    +0.000 C 
ATOM     16  N   UNL     1      -4.294  12.446  22.530  0.00  0.00    +0.000 NA
ATOM     17  C   UNL     1      -5.082  13.224  21.568  0.00  0.00    +0.000 C 
ENDBRANCH  14  16
ENDBRANCH  13  14
ENDBRANCH  12  13
ENDBRANCH  11  12
ENDBRANCH   7  11
ENDBRANCH   1   9
BRANCH   4  18
ATOM     18  N   UNL     1       4.081   4.840  18.648  0.00  0.00    +0.000 N 
ATOM     19  H   UNL     1       5.044   5.134  18.826  0.00  0.00    +0.000 HD
BRANCH  18  20
ATOM     20  C   UNL     1       3.989   3.679  17.911  0.00  0.00    +0.000 C 
ATOM     21  S   UNL     1       3.301   2.210  18.317  0.00  0.00    +0.000 S 
BRANCH  20  22
ATOM     22  N   UNL     1       4.590   3.729  16.659  0.00  0.00    +0.000 N 
ATOM     23  C   UNL     1       5.859   4.183  16.343  0.00  0.00    +0.000 C 
ATOM     24  O   UNL     1       6.679   4.549  17.184  0.00  0.00    +0.000 OA
ATOM     25  H   UNL     1       3.973   3.427  15.917  0.00  0.00    +0.000 HD
BRANCH  23  26
ATOM     26  C   UNL     1       6.232   4.244  14.908  0.00  0.00    +0.000 A 
ATOM     27  C   UNL     1       7.327   5.054  14.571  0.00  0.00    +0.000 A 
ATOM     28  C   UNL     1       7.751   5.147  13.252  0.00  0.00    +0.000 A 
ATOM     29  F   UNL     1       8.792   5.935  12.956  0.00  0.00    +0.000 F 
ATOM     30  C   UNL     1       7.102   4.439  12.256  0.00  0.00    +0.000 A 
ATOM     31  F   UNL     1       7.515   4.530  10.985  0.00  0.00    +0.000 F 
ATOM     32  C   UNL     1       6.028   3.624  12.588  0.00  0.00    +0.000 A 
ATOM     33  F   UNL     1       5.407   2.913  11.634  0.00  0.00    +0.000 F 
ATOM     34  C   UNL     1       5.580   3.516  13.908  0.00  0.00    +0.000 A 
ENDBRANCH  23  26
ENDBRANCH  20  22
ENDBRANCH  18  20
ENDBRANCH   4  18
TORSDOF 10
ENDMDL
MODEL 3
REMARK VINA RESULT:      -7.6      0.767      1.169
REMARK  Name = 
REMARK  12 active torsions:
REMARK  status: ('A' for Active; 'I' for Inactive)
REMARK    1  A    between atoms: C_1  and  N_2
REMARK    2  A    between atoms: N_2  and  C_3
REMARK    3  A    between atoms: N_2  and  C_4
REMARK    4  A    between atoms: C_4  and  C_5
REMARK    5  A    between atoms: C_5  and  C_6
REMARK    6  A    between atoms: C_6  and  C_7
REMARK    7  A    between atoms: C_7  and  C_8
REMARK    8  A    between atoms: N_10  and  C_11
REMARK    9  A    between atoms: C_14  and  N_15
REMARK   10  A    between atoms: N_15  and  C_16
REMARK   11  A    between atoms: C_16  and  N_18
REMARK   12  A    between atoms: C_19  and  C_21
REMARK                            x       y       z     vdW  Elec       q    Type
REMARK                         _______ _______ _______ _____ _____    ______ ____
ROOT
ATOM      1  C   UNL     1       7.962   7.780  17.811  0.00  0.00    +0.000 A 
ATOM      2  C   UNL     1       8.217   7.017  18.948  0.00  0.00    +0.000 A 
ATOM      3  C   UNL     1       7.564   5.793  19.144  0.00  0.00    +0.000 A 
ATOM      4  C   UNL     1       6.627   5.322  18.217  0.00  0.00    +0.000 A 
ATOM      5  C   UNL     1       6.424   6.054  17.053  0.00  0.00    +0.000 A 
ATOM      6  C   UNL     1       7.067   7.285  16.860  0.00  0.00    +0.000 A 
ENDROOT
BRANCH   1   9
ATOM      7  C   UNL     1       8.983   9.949  18.505  0.00  0.00    +0.000 C 
ATOM      8  O   UNL     1       8.990   9.789  19.724  0.00  0.00    +0.000 OA
ATOM      9  N   UNL     1       8.549   9.036  17.561  0.00  0.00    +0.000 N 
ATOM     10  H   UNL     1       8.740   9.260  16.591  0.00  0.00    +0.000 HD
BRANCH   7  11
ATOM     11  C   UNL     1       9.528  11.221  17.893  0.00  0.00    +0.000 C 
BRANCH  11  12
ATOM     12  C   UNL     1       8.599  12.408  18.125  0.00  0.00    +0.000 C 
BRANCH  12  13
ATOM     13  C   UNL     1       9.364  13.712  18.377  0.00  0.00    +0.000 C 
BRANCH  13  14
ATOM     14  C   UNL     1      10.851  13.520  18.715  0.00  0.00    +0.000 C 
BRANCH  14  16
ATOM     15  C   UNL     1      12.330  13.557  16.786  0.00  0.00    +0.000 C 
ATOM     16  N   UNL     1      11.759  14.336  17.889  0.00  0.00    +0.000 NA
ATOM     17  C   UNL     1      11.038  15.493  17.346  0.00  0.00    +0.000 C 
ENDBRANCH  14  16
ENDBRANCH  13  14
ENDBRANCH  12  13
ENDBRANCH  11  12
ENDBRANCH   7  11
ENDBRANCH   1   9
BRANCH   4  18
ATOM     18  N   UNL     1       5.958   4.119  18.537  0.00  0.00    +0.000 N 
ATOM     19  H   UNL     1       6.451   3.272  18.241  0.00  0.00    +0.000 HD
BRANCH  18  20
ATOM     20  C   UNL     1       4.855   3.865  19.322  0.00  0.00    +0.000 C 
ATOM     21  S   UNL     1       4.345   2.430  20.014  0.00  0.00    +0.000 S 
BRANCH  20  22
ATOM     22  N   UNL     1       4.025   4.957  19.539  0.00  0.00    +0.000 N 
ATOM     23  C   UNL     1       3.184   5.580  18.632  0.00  0.00    +0.000 C 
ATOM     24  O   UNL     1       3.005   5.177  17.483  0.00  0.00    +0.000 OA
ATOM     25  H   UNL     1       4.111   5.335  20.473  0.00  0.00    +0.000 HD
BRANCH  23  26
ATOM     26  C   UNL     1       2.481   6.810  19.075  0.00  0.00    +0.000 A 
ATOM     27  C   UNL     1       2.374   7.850  18.140  0.00  0.00    +0.000 A 
ATOM     28  C   UNL     1       1.712   9.026  18.471  0.00  0.00    +0.000 A 
ATOM     29  F   UNL     1       1.635  10.007  17.565  0.00  0.00    +0.000 F 
ATOM     30  C   UNL     1       1.145   9.181  19.724  0.00  0.00    +0.000 A 
ATOM     31  F   UNL     1       0.507  10.315  20.039  0.00  0.00    +0.000 F 
ATOM     32  C   UNL     1       1.235   8.146  20.646  0.00  0.00    +0.000 A 
ATOM     33  F   UNL     1       0.667   8.277  21.854  0.00  0.00    +0.000 F 
ATOM     34  C   UNL     1       1.899   6.955  20.338  0.00  0.00    +0.000 A 
ENDBRANCH  23  26
ENDBRANCH  20  22
ENDBRANCH  18  20
ENDBRANCH   4  18
TORSDOF 10
ENDMDL
MODEL 4
REMARK VINA RESULT:      -7.6      4.978      7.337
REMARK  Name = 
REMARK  12 active torsions:
REMARK  status: ('A' for Active; 'I' for Inactive)
REMARK    1  A    between atoms: C_1  and  N_2
REMARK    2  A    between atoms: N_2  and  C_3
REMARK    3  A    between atoms: N_2  and  C_4
REMARK    4  A    between atoms: C_4  and  C_5
REMARK    5  A    between atoms: C_5  and  C_6
REMARK    6  A    between atoms: C_6  and  C_7
REMARK    7  A    between atoms: C_7  and  C_8
REMARK    8  A    between atoms: N_10  and  C_11
REMARK    9  A    between atoms: C_14  and  N_15
REMARK   10  A    between atoms: N_15  and  C_16
REMARK   11  A    between atoms: C_16  and  N_18
REMARK   12  A    between atoms: C_19  and  C_21
REMARK                            x       y       z     vdW  Elec       q    Type
REMARK                         _______ _______ _______ _____ _____    ______ ____
ROOT
ATOM      1  C   UNL     1       2.530   5.734  18.564  0.00  0.00    +0.000 A 
ATOM      2  C   UNL     1       2.074   5.368  19.829  0.00  0.00    +0.000 A 
ATOM      3  C   UNL     1       1.669   6.345  20.748  0.00  0.00    +0.000 A 
ATOM      4  C   UNL     1       1.735   7.706  20.427  0.00  0.00    +0.000 A 
ATOM      5  C   UNL     1       2.128   8.062  19.141  0.00  0.00    +0.000 A 
ATOM      6  C   UNL     1       2.545   7.088  18.224  0.00  0.00    +0.000 A 
ENDROOT
BRANCH   1   9
ATOM      7  C   UNL     1       4.107   4.005  17.695  0.00  0.00    +0.000 C 
ATOM      8  O   UNL     1       4.852   3.903  18.667  0.00  0.00    +0.000 OA
ATOM      9  N   UNL     1       2.990   4.814  17.600  0.00  0.00    +0.000 N 
ATOM     10  H   UNL     1       2.399   4.680  16.787  0.00  0.00    +0.000 HD
BRANCH   7  11
ATOM     11  C   UNL     1       4.336   3.164  16.459  0.00  0.00    +0.000 C 
BRANCH  11  12
ATOM     12  C   UNL     1       5.701   3.434  15.831  0.00  0.00    +0.000 C 
BRANCH  12  13
ATOM     13  C   UNL     1       5.887   4.906  15.445  0.00  0.00    +0.000 C 
BRANCH  13  14
ATOM     14  C   UNL     1       7.285   5.469  15.747  0.00  0.00    +0.000 C 
BRANCH  14  16
ATOM     15  C   UNL     1       6.014   7.089  17.039  0.00  0.00    +0.000 C 
ATOM     16  N   UNL     1       7.311   6.426  16.868  0.00  0.00    +0.000 NA
ATOM     17  C   UNL     1       7.672   5.733  18.110  0.00  0.00    +0.000 C 
ENDBRANCH  14  16
ENDBRANCH  13  14
ENDBRANCH  12  13
ENDBRANCH  11  12
ENDBRANCH   7  11
ENDBRANCH   1   9
BRANCH   4  18
ATOM     18  N   UNL     1       1.383   8.622  21.443  0.00  0.00    +0.000 N 
ATOM     19  H   UNL     1       2.164   8.914  22.036  0.00  0.00    +0.000 HD
BRANCH  18  20
ATOM     20  C   UNL     1       0.222   9.326  21.680  0.00  0.00    +0.000 C 
ATOM     21  S   UNL     1      -0.381   9.937  23.115  0.00  0.00    +0.000 S 
BRANCH  20  22
ATOM     22  N   UNL     1      -0.582   9.524  20.564  0.00  0.00    +0.000 N 
ATOM     23  C   UNL     1      -0.568  10.595  19.686  0.00  0.00    +0.000 C 
ATOM     24  O   UNL     1       0.247  11.513  19.746  0.00  0.00    +0.000 OA
ATOM     25  H   UNL     1      -1.273   8.796  20.445  0.00  0.00    +0.000 HD
BRANCH  23  26
ATOM     26  C   UNL     1      -1.612  10.634  18.631  0.00  0.00    +0.000 A 
ATOM     27  C   UNL     1      -2.723  11.457  18.868  0.00  0.00    +0.000 A 
ATOM     28  C   UNL     1      -3.732  11.565  17.920  0.00  0.00    +0.000 A 
ATOM     29  F   UNL     1      -4.786  12.348  18.175  0.00  0.00    +0.000 F 
ATOM     30  C   UNL     1      -3.650  10.865  16.728  0.00  0.00    +0.000 A 
ATOM     31  F   UNL     1      -4.624  10.972  15.816  0.00  0.00    +0.000 F 
ATOM     32  C   UNL     1      -2.544  10.062  16.483  0.00  0.00    +0.000 A 
ATOM     33  F   UNL     1      -2.443   9.400  15.321  0.00  0.00    +0.000 F 
ATOM     34  C   UNL     1      -1.517   9.935  17.424  0.00  0.00    +0.000 A 
ENDBRANCH  23  26
ENDBRANCH  20  22
ENDBRANCH  18  20
ENDBRANCH   4  18
TORSDOF 10
ENDMDL
MODEL 5
REMARK VINA RESULT:      -7.4      1.382      1.559
REMARK  Name = 
REMARK  12 active torsions:
REMARK  status: ('A' for Active; 'I' for Inactive)
REMARK    1  A    between atoms: C_1  and  N_2
REMARK    2  A    between atoms: N_2  and  C_3
REMARK    3  A    between atoms: N_2  and  C_4
REMARK    4  A    between atoms: C_4  and  C_5
REMARK    5  A    between atoms: C_5  and  C_6
REMARK    6  A    between atoms: C_6  and  C_7
REMARK    7  A    between atoms: C_7  and  C_8
REMARK    8  A    between atoms: N_10  and  C_11
REMARK    9  A    between atoms: C_14  and  N_15
REMARK   10  A    between atoms: N_15  and  C_16
REMARK   11  A    between atoms: C_16  and  N_18
REMARK   12  A    between atoms: C_19  and  C_21
REMARK                            x       y       z     vdW  Elec       q    Type
REMARK                         _______ _______ _______ _____ _____    ______ ____
ROOT
ATOM      1  C   UNL     1       8.020   7.258  18.496  0.00  0.00    +0.000 A 
ATOM      2  C   UNL     1       7.849   6.129  19.294  0.00  0.00    +0.000 A 
ATOM      3  C   UNL     1       6.942   5.127  18.924  0.00  0.00    +0.000 A 
ATOM      4  C   UNL     1       6.173   5.248  17.761  0.00  0.00    +0.000 A 
ATOM      5  C   UNL     1       6.394   6.345  16.935  0.00  0.00    +0.000 A 
ATOM      6  C   UNL     1       7.291   7.354  17.309  0.00  0.00    +0.000 A 
ENDROOT
BRANCH   1   9
ATOM      7  C   UNL     1       8.718   9.654  18.480  0.00  0.00    +0.000 C 
ATOM      8  O   UNL     1       7.755  10.142  17.894  0.00  0.00    +0.000 OA
ATOM      9  N   UNL     1       8.883   8.324  18.820  0.00  0.00    +0.000 N 
ATOM     10  H   UNL     1       9.665   8.103  19.426  0.00  0.00    +0.000 HD
BRANCH   7  11
ATOM     11  C   UNL     1       9.856  10.532  18.952  0.00  0.00    +0.000 C 
BRANCH  11  12
ATOM     12  C   UNL     1       9.900  11.860  18.202  0.00  0.00    +0.000 C 
BRANCH  12  13
ATOM     13  C   UNL     1      11.304  12.194  17.683  0.00  0.00    +0.000 C 
BRANCH  13  14
ATOM     14  C   UNL     1      11.358  13.399  16.730  0.00  0.00    +0.000 C 
BRANCH  14  16
ATOM     15  C   UNL     1      10.298  15.347  17.724  0.00  0.00    +0.000 C 
ATOM     16  N   UNL     1      11.570  14.687  17.412  0.00  0.00    +0.000 NA
ATOM     17  C   UNL     1      12.329  14.479  18.651  0.00  0.00    +0.000 C 
ENDBRANCH  14  16
ENDBRANCH  13  14
ENDBRANCH  12  13
ENDBRANCH  11  12
ENDBRANCH   7  11
ENDBRANCH   1   9
BRANCH   4  18
ATOM     18  N   UNL     1       5.227   4.229  17.510  0.00  0.00    +0.000 N 
ATOM     19  H   UNL     1       5.638   3.323  17.271  0.00  0.00    +0.000 HD
BRANCH  18  20
ATOM     20  C   UNL     1       3.862   4.182  17.693  0.00  0.00    +0.000 C 
ATOM     21  S   UNL     1       2.793   2.924  17.423  0.00  0.00    +0.000 S 
BRANCH  20  22
ATOM     22  N   UNL     1       3.286   5.367  18.131  0.00  0.00    +0.000 N 
ATOM     23  C   UNL     1       2.927   5.711  19.423  0.00  0.00    +0.000 C 
ATOM     24  O   UNL     1       3.151   5.002  20.403  0.00  0.00    +0.000 OA
ATOM     25  H   UNL     1       3.085   6.007  17.374  0.00  0.00    +0.000 HD
BRANCH  23  26
ATOM     26  C   UNL     1       2.217   7.000  19.622  0.00  0.00    +0.000 A 
ATOM     27  C   UNL     1       2.246   7.910  18.555  0.00  0.00    +0.000 A 
ATOM     28  C   UNL     1       1.588   9.129  18.654  0.00  0.00    +0.000 A 
ATOM     29  F   UNL     1       1.640   9.984  17.626  0.00  0.00    +0.000 F 
ATOM     30  C   UNL     1       0.891   9.457  19.804  0.00  0.00    +0.000 A 
ATOM     31  F   UNL     1       0.256  10.633  19.896  0.00  0.00    +0.000 F 
ATOM     32  C   UNL     1       0.847   8.551  20.856  0.00  0.00    +0.000 A 
ATOM     33  F   UNL     1       0.154   8.848  21.966  0.00  0.00    +0.000 F 
ATOM     34  C   UNL     1       1.505   7.319  20.781  0.00  0.00    +0.000 A 
ENDBRANCH  23  26
ENDBRANCH  20  22
ENDBRANCH  18  20
ENDBRANCH   4  18
TORSDOF 10
ENDMDL
MODEL 6
REMARK VINA RESULT:      -7.4      6.030      9.099
REMARK  Name = 
REMARK  12 active torsions:
REMARK  status: ('A' for Active; 'I' for Inactive)
REMARK    1  A    between atoms: C_1  and  N_2
REMARK    2  A    between atoms: N_2  and  C_3
REMARK    3  A    between atoms: N_2  and  C_4
REMARK    4  A    between atoms: C_4  and  C_5
REMARK    5  A    between atoms: C_5  and  C_6
REMARK    6  A    between atoms: C_6  and  C_7
REMARK    7  A    between atoms: C_7  and  C_8
REMARK    8  A    between atoms: N_10  and  C_11
REMARK    9  A    between atoms: C_14  and  N_15
REMARK   10  A    between atoms: N_15  and  C_16
REMARK   11  A    between atoms: C_16  and  N_18
REMARK   12  A    between atoms: C_19  and  C_21
REMARK                            x       y       z     vdW  Elec       q    Type
REMARK                         _______ _______ _______ _____ _____    ______ ____
ROOT
ATOM      1  C   UNL     1       2.504   7.089  18.752  0.00  0.00    +0.000 A 
ATOM      2  C   UNL     1       1.991   7.359  20.019  0.00  0.00    +0.000 A 
ATOM      3  C   UNL     1       1.317   8.561  20.272  0.00  0.00    +0.000 A 
ATOM      4  C   UNL     1       1.163   9.524  19.268  0.00  0.00    +0.000 A 
ATOM      5  C   UNL     1       1.618   9.222  17.989  0.00  0.00    +0.000 A 
ATOM      6  C   UNL     1       2.304   8.027  17.737  0.00  0.00    +0.000 A 
ENDROOT
BRANCH   1   9
ATOM      7  C   UNL     1       4.452   5.858  17.795  0.00  0.00    +0.000 C 
ATOM      8  O   UNL     1       5.152   6.812  17.462  0.00  0.00    +0.000 OA
ATOM      9  N   UNL     1       3.226   5.923  18.430  0.00  0.00    +0.000 N 
ATOM     10  H   UNL     1       2.841   5.047  18.766  0.00  0.00    +0.000 HD
BRANCH   7  11
ATOM     11  C   UNL     1       4.927   4.439  17.566  0.00  0.00    +0.000 C 
BRANCH  11  12
ATOM     12  C   UNL     1       3.783   3.514  17.162  0.00  0.00    +0.000 C 
BRANCH  12  13
ATOM     13  C   UNL     1       3.651   2.304  18.093  0.00  0.00    +0.000 C 
BRANCH  13  14
ATOM     14  C   UNL     1       3.237   2.652  19.532  0.00  0.00    +0.000 C 
BRANCH  14  16
ATOM     15  C   UNL     1       0.920   2.473  18.822  0.00  0.00    +0.000 C 
ATOM     16  N   UNL     1       1.882   3.218  19.640  0.00  0.00    +0.000 NA
ATOM     17  C   UNL     1       1.443   3.204  21.041  0.00  0.00    +0.000 C 
ENDBRANCH  14  16
ENDBRANCH  13  14
ENDBRANCH  12  13
ENDBRANCH  11  12
ENDBRANCH   7  11
ENDBRANCH   1   9
BRANCH   4  18
ATOM     18  N   UNL     1       0.541  10.738  19.635  0.00  0.00    +0.000 N 
ATOM     19  H   UNL     1       1.190  11.471  19.932  0.00  0.00    +0.000 HD
BRANCH  18  20
ATOM     20  C   UNL     1      -0.759  11.176  19.507  0.00  0.00    +0.000 C 
ATOM     21  S   UNL     1      -1.838  10.959  18.247  0.00  0.00    +0.000 S 
BRANCH  20  22
ATOM     22  N   UNL     1      -1.228  11.943  20.566  0.00  0.00    +0.000 N 
ATOM     23  C   UNL     1      -0.894  11.837  21.905  0.00  0.00    +0.000 C 
ATOM     24  O   UNL     1      -0.045  11.058  22.335  0.00  0.00    +0.000 OA
ATOM     25  H   UNL     1      -1.925  12.618  20.282  0.00  0.00    +0.000 HD
BRANCH  23  26
ATOM     26  C   UNL     1      -1.622  12.701  22.868  0.00  0.00    +0.000 A 
ATOM     27  C   UNL     1      -0.956  13.852  23.316  0.00  0.00    +0.000 A 
ATOM     28  C   UNL     1      -1.577  14.723  24.201  0.00  0.00    +0.000 A 
ATOM     29  F   UNL     1      -0.916  15.807  24.621  0.00  0.00    +0.000 F 
ATOM     30  C   UNL     1      -2.863  14.469  24.647  0.00  0.00    +0.000 A 
ATOM     31  F   UNL     1      -3.460  15.312  25.499  0.00  0.00    +0.000 F 
ATOM     32  C   UNL     1      -3.531  13.340  24.192  0.00  0.00    +0.000 A 
ATOM     33  F   UNL     1      -4.787  13.097  24.598  0.00  0.00    +0.000 F 
ATOM     34  C   UNL     1      -2.926  12.446  23.304  0.00  0.00    +0.000 A 
ENDBRANCH  23  26
ENDBRANCH  20  22
ENDBRANCH  18  20
ENDBRANCH   4  18
TORSDOF 10
ENDMDL
MODEL 7
REMARK VINA RESULT:      -7.3      0.657      1.318
REMARK  Name = 
REMARK  12 active torsions:
REMARK  status: ('A' for Active; 'I' for Inactive)
REMARK    1  A    between atoms: C_1  and  N_2
REMARK    2  A    between atoms: N_2  and  C_3
REMARK    3  A    between atoms: N_2  and  C_4
REMARK    4  A    between atoms: C_4  and  C_5
REMARK    5  A    between atoms: C_5  and  C_6
REMARK    6  A    between atoms: C_6  and  C_7
REMARK    7  A    between atoms: C_7  and  C_8
REMARK    8  A    between atoms: N_10  and  C_11
REMARK    9  A    between atoms: C_14  and  N_15
REMARK   10  A    between atoms: N_15  and  C_16
REMARK   11  A    between atoms: C_16  and  N_18
REMARK   12  A    between atoms: C_19  and  C_21
REMARK                            x       y       z     vdW  Elec       q    Type
REMARK                         _______ _______ _______ _____ _____    ______ ____
ROOT
ATOM      1  C   UNL     1       7.902   7.899  17.900  0.00  0.00    +0.000 A 
ATOM      2  C   UNL     1       6.736   7.522  17.238  0.00  0.00    +0.000 A 
ATOM      3  C   UNL     1       6.095   6.318  17.556  0.00  0.00    +0.000 A 
ATOM      4  C   UNL     1       6.621   5.458  18.527  0.00  0.00    +0.000 A 
ATOM      5  C   UNL     1       7.748   5.868  19.231  0.00  0.00    +0.000 A 
ATOM      6  C   UNL     1       8.398   7.066  18.906  0.00  0.00    +0.000 A 
ENDROOT
BRANCH   1   9
ATOM      7  C   UNL     1       9.058  10.023  18.517  0.00  0.00    +0.000 C 
ATOM      8  O   UNL     1       8.943   9.969  19.739  0.00  0.00    +0.000 OA
ATOM      9  N   UNL     1       8.625   9.074  17.610  0.00  0.00    +0.000 N 
ATOM     10  H   UNL     1       8.920   9.195  16.648  0.00  0.00    +0.000 HD
BRANCH   7  11
ATOM     11  C   UNL     1       9.772  11.186  17.862  0.00  0.00    +0.000 C 
BRANCH  11  12
ATOM     12  C   UNL     1       8.884  12.424  17.777  0.00  0.00    +0.000 C 
BRANCH  12  13
ATOM     13  C   UNL     1       9.672  13.724  17.973  0.00  0.00    +0.000 C 
BRANCH  13  14
ATOM     14  C   UNL     1      10.228  13.922  19.392  0.00  0.00    +0.000 C 
BRANCH  14  16
ATOM     15  C   UNL     1       9.750  12.868  21.529  0.00  0.00    +0.000 C 
ATOM     16  N   UNL     1       9.229  13.721  20.456  0.00  0.00    +0.000 NA
ATOM     17  C   UNL     1       8.824  15.015  21.014  0.00  0.00    +0.000 C 
ENDBRANCH  14  16
ENDBRANCH  13  14
ENDBRANCH  12  13
ENDBRANCH  11  12
ENDBRANCH   7  11
ENDBRANCH   1   9
BRANCH   4  18
ATOM     18  N   UNL     1       5.953   4.229  18.724  0.00  0.00    +0.000 N 
ATOM     19  H   UNL     1       6.529   3.403  18.546  0.00  0.00    +0.000 HD
BRANCH  18  20
ATOM     20  C   UNL     1       4.725   3.932  19.275  0.00  0.00    +0.000 C 
ATOM     21  S   UNL     1       4.038   2.445  19.610  0.00  0.00    +0.000 S 
BRANCH  20  22
ATOM     22  N   UNL     1       3.927   5.034  19.559  0.00  0.00    +0.000 N 
ATOM     23  C   UNL     1       2.925   5.582  18.776  0.00  0.00    +0.000 C 
ATOM     24  O   UNL     1       2.550   5.094  17.712  0.00  0.00    +0.000 OA
ATOM     25  H   UNL     1       4.173   5.480  20.432  0.00  0.00    +0.000 HD
BRANCH  23  26
ATOM     26  C   UNL     1       2.291   6.838  19.249  0.00  0.00    +0.000 A 
ATOM     27  C   UNL     1       2.157   7.873  18.311  0.00  0.00    +0.000 A 
ATOM     28  C   UNL     1       1.555   9.072  18.670  0.00  0.00    +0.000 A 
ATOM     29  F   UNL     1       1.450  10.047  17.760  0.00  0.00    +0.000 F 
ATOM     30  C   UNL     1       1.075   9.257  19.955  0.00  0.00    +0.000 A 
ATOM     31  F   UNL     1       0.493  10.414  20.298  0.00  0.00    +0.000 F 
ATOM     32  C   UNL     1       1.191   8.229  20.881  0.00  0.00    +0.000 A 
ATOM     33  F   UNL     1       0.706   8.388  22.123  0.00  0.00    +0.000 F 
ATOM     34  C   UNL     1       1.796   7.014  20.545  0.00  0.00    +0.000 A 
ENDBRANCH  23  26
ENDBRANCH  20  22
ENDBRANCH  18  20
ENDBRANCH   4  18
TORSDOF 10
ENDMDL
MODEL 8
REMARK VINA RESULT:      -7.3      6.133      9.163
REMARK  Name = 
REMARK  12 active torsions:
REMARK  status: ('A' for Active; 'I' for Inactive)
REMARK    1  A    between atoms: C_1  and  N_2
REMARK    2  A    between atoms: N_2  and  C_3
REMARK    3  A    between atoms: N_2  and  C_4
REMARK    4  A    between atoms: C_4  and  C_5
REMARK    5  A    between atoms: C_5  and  C_6
REMARK    6  A    between atoms: C_6  and  C_7
REMARK    7  A    between atoms: C_7  and  C_8
REMARK    8  A    between atoms: N_10  and  C_11
REMARK    9  A    between atoms: C_14  and  N_15
REMARK   10  A    between atoms: N_15  and  C_16
REMARK   11  A    between atoms: C_16  and  N_18
REMARK   12  A    between atoms: C_19  and  C_21
REMARK                            x       y       z     vdW  Elec       q    Type
REMARK                         _______ _______ _______ _____ _____    ______ ____
ROOT
ATOM      1  C   UNL     1       2.513   7.051  18.661  0.00  0.00    +0.000 A 
ATOM      2  C   UNL     1       2.198   6.980  20.017  0.00  0.00    +0.000 A 
ATOM      3  C   UNL     1       1.545   8.045  20.652  0.00  0.00    +0.000 A 
ATOM      4  C   UNL     1       1.217   9.210  19.947  0.00  0.00    +0.000 A 
ATOM      5  C   UNL     1       1.474   9.249  18.581  0.00  0.00    +0.000 A 
ATOM      6  C   UNL     1       2.138   8.191  17.947  0.00  0.00    +0.000 A 
ENDROOT
BRANCH   1   9
ATOM      7  C   UNL     1       4.349   5.386  18.370  0.00  0.00    +0.000 C 
ATOM      8  O   UNL     1       4.927   5.531  19.444  0.00  0.00    +0.000 OA
ATOM      9  N   UNL     1       3.200   6.039  17.962  0.00  0.00    +0.000 N 
ATOM     10  H   UNL     1       2.766   5.706  17.108  0.00  0.00    +0.000 HD
BRANCH   7  11
ATOM     11  C   UNL     1       4.849   4.379  17.357  0.00  0.00    +0.000 C 
BRANCH  11  12
ATOM     12  C   UNL     1       3.844   3.256  17.126  0.00  0.00    +0.000 C 
BRANCH  12  13
ATOM     13  C   UNL     1       3.643   2.383  18.370  0.00  0.00    +0.000 C 
BRANCH  13  14
ATOM     14  C   UNL     1       2.173   2.103  18.720  0.00  0.00    +0.000 C 
BRANCH  14  16
ATOM     15  C   UNL     1       3.004   2.758  20.908  0.00  0.00    +0.000 C 
ATOM     16  N   UNL     1       1.815   2.449  20.106  0.00  0.00    +0.000 NA
ATOM     17  C   UNL     1       0.907   3.601  20.117  0.00  0.00    +0.000 C 
ENDBRANCH  14  16
ENDBRANCH  13  14
ENDBRANCH  12  13
ENDBRANCH  11  12
ENDBRANCH   7  11
ENDBRANCH   1   9
BRANCH   4  18
ATOM     18  N   UNL     1       0.634  10.263  20.687  0.00  0.00    +0.000 N 
ATOM     19  H   UNL     1       0.582  10.091  21.695  0.00  0.00    +0.000 HD
BRANCH  18  20
ATOM     20  C   UNL     1       0.279  11.545  20.330  0.00  0.00    +0.000 C 
ATOM     21  S   UNL     1       1.062  12.628  19.324  0.00  0.00    +0.000 S 
BRANCH  20  22
ATOM     22  N   UNL     1      -0.884  12.020  20.925  0.00  0.00    +0.000 N 
ATOM     23  C   UNL     1      -1.243  11.956  22.261  0.00  0.00    +0.000 C 
ATOM     24  O   UNL     1      -0.508  11.513  23.142  0.00  0.00    +0.000 OA
ATOM     25  H   UNL     1      -1.533  12.411  20.256  0.00  0.00    +0.000 HD
BRANCH  23  26
ATOM     26  C   UNL     1      -2.598  12.432  22.634  0.00  0.00    +0.000 A 
ATOM     27  C   UNL     1      -3.270  13.230  21.696  0.00  0.00    +0.000 A 
ATOM     28  C   UNL     1      -4.551  13.698  21.961  0.00  0.00    +0.000 A 
ATOM     29  F   UNL     1      -5.165  14.467  21.055  0.00  0.00    +0.000 F 
ATOM     30  C   UNL     1      -5.180  13.378  23.151  0.00  0.00    +0.000 A 
ATOM     31  F   UNL     1      -6.415  13.829  23.403  0.00  0.00    +0.000 F 
ATOM     32  C   UNL     1      -4.524  12.574  24.075  0.00  0.00    +0.000 A 
ATOM     33  F   UNL     1      -5.135  12.237  25.221  0.00  0.00    +0.000 F 
ATOM     34  C   UNL     1      -3.234  12.094  23.832  0.00  0.00    +0.000 A 
ENDBRANCH  23  26
ENDBRANCH  20  22
ENDBRANCH  18  20
ENDBRANCH   4  18
TORSDOF 10
ENDMDL
MODEL 9
REMARK VINA RESULT:      -7.3      6.193      8.798
REMARK  Name = 
REMARK  12 active torsions:
REMARK  status: ('A' for Active; 'I' for Inactive)
REMARK    1  A    between atoms: C_1  and  N_2
REMARK    2  A    between atoms: N_2  and  C_3
REMARK    3  A    between atoms: N_2  and  C_4
REMARK    4  A    between atoms: C_4  and  C_5
REMARK    5  A    between atoms: C_5  and  C_6
REMARK    6  A    between atoms: C_6  and  C_7
REMARK    7  A    between atoms: C_7  and  C_8
REMARK    8  A    between atoms: N_10  and  C_11
REMARK    9  A    between atoms: C_14  and  N_15
REMARK   10  A    between atoms: N_15  and  C_16
REMARK   11  A    between atoms: C_16  and  N_18
REMARK   12  A    between atoms: C_19  and  C_21
REMARK                            x       y       z     vdW  Elec       q    Type
REMARK                         _______ _______ _______ _____ _____    ______ ____
ROOT
ATOM      1  C   UNL     1       1.430   9.327  18.970  0.00  0.00    +0.000 A 
ATOM      2  C   UNL     1       1.485   8.417  20.024  0.00  0.00    +0.000 A 
ATOM      3  C   UNL     1       2.216   7.228  19.898  0.00  0.00    +0.000 A 
ATOM      4  C   UNL     1       2.885   6.917  18.709  0.00  0.00    +0.000 A 
ATOM      5  C   UNL     1       2.881   7.858  17.684  0.00  0.00    +0.000 A 
ATOM      6  C   UNL     1       2.140   9.042  17.802  0.00  0.00    +0.000 A 
ENDROOT
BRANCH   1   9
ATOM      7  C   UNL     1      -0.660  10.669  18.727  0.00  0.00    +0.000 C 
ATOM      8  O   UNL     1      -1.452   9.767  18.465  0.00  0.00    +0.000 OA
ATOM      9  N   UNL     1       0.686  10.523  19.006  0.00  0.00    +0.000 N 
ATOM     10  H   UNL     1       1.173  11.347  19.343  0.00  0.00    +0.000 HD
BRANCH   7  11
ATOM     11  C   UNL     1      -1.132  12.104  18.820  0.00  0.00    +0.000 C 
BRANCH  11  12
ATOM     12  C   UNL     1      -2.577  12.198  19.301  0.00  0.00    +0.000 C 
BRANCH  12  13
ATOM     13  C   UNL     1      -2.678  12.539  20.792  0.00  0.00    +0.000 C 
BRANCH  13  14
ATOM     14  C   UNL     1      -1.563  13.462  21.310  0.00  0.00    +0.000 C 
BRANCH  14  16
ATOM     15  C   UNL     1      -1.210  14.074  23.635  0.00  0.00    +0.000 C 
ATOM     16  N   UNL     1      -1.003  13.048  22.608  0.00  0.00    +0.000 NA
ATOM     17  C   UNL     1      -1.623  11.791  23.044  0.00  0.00    +0.000 C 
ENDBRANCH  14  16
ENDBRANCH  13  14
ENDBRANCH  12  13
ENDBRANCH  11  12
ENDBRANCH   7  11
ENDBRANCH   1   9
BRANCH   4  18
ATOM     18  N   UNL     1       3.528   5.661  18.645  0.00  0.00    +0.000 N 
ATOM     19  H   UNL     1       4.263   5.528  19.344  0.00  0.00    +0.000 HD
BRANCH  18  20
ATOM     20  C   UNL     1       3.238   4.518  17.931  0.00  0.00    +0.000 C 
ATOM     21  S   UNL     1       2.196   3.265  18.304  0.00  0.00    +0.000 S 
BRANCH  20  22
ATOM     22  N   UNL     1       3.943   4.372  16.744  0.00  0.00    +0.000 N 
ATOM     23  C   UNL     1       5.316   4.398  16.562  0.00  0.00    +0.000 C 
ATOM     24  O   UNL     1       6.123   4.485  17.486  0.00  0.00    +0.000 OA
ATOM     25  H   UNL     1       3.339   4.282  15.938  0.00  0.00    +0.000 HD
BRANCH  23  26
ATOM     26  C   UNL     1       5.829   4.335  15.170  0.00  0.00    +0.000 A 
ATOM     27  C   UNL     1       6.992   5.066  14.890  0.00  0.00    +0.000 A 
ATOM     28  C   UNL     1       7.547   5.042  13.616  0.00  0.00    +0.000 A 
ATOM     29  F   UNL     1       8.651   5.757  13.372  0.00  0.00    +0.000 F 
ATOM     30  C   UNL     1       6.961   4.291  12.612  0.00  0.00    +0.000 A 
ATOM     31  F   UNL     1       7.499   4.269  11.386  0.00  0.00    +0.000 F 
ATOM     32  C   UNL     1       5.818   3.554  12.891  0.00  0.00    +0.000 A 
ATOM     33  F   UNL     1       5.255   2.803  11.931  0.00  0.00    +0.000 F 
ATOM     34  C   UNL     1       5.239   3.565  14.163  0.00  0.00    +0.000 A 
ENDBRANCH  23  26
ENDBRANCH  20  22
ENDBRANCH  18  20
ENDBRANCH   4  18
TORSDOF 10
ENDMDL
