MODEL 1
REMARK VINA RESULT:      -8.0      0.000      0.000
REMARK  Name = 
REMARK  12 active torsions:
REMARK  status: ('A' for Active; 'I' for Inactive)
REMARK    1  A    between atoms: N_1  and  S_2
REMARK    2  A    between atoms: S_2  and  C_5
REMARK    3  A    between atoms: C_8  and  C_9
REMARK    4  A    between atoms: C_9  and  C_10
REMARK    5  A    between atoms: C_10  and  N_11
REMARK    6  A    between atoms: C_12  and  C_13
REMARK    7  A    between atoms: C_16  and  C_17
REMARK    8  A    between atoms: N_18  and  C_19
REMARK    9  A    between atoms: C_19  and  C_20
REMARK   10  A    between atoms: C_20  and  C_21
REMARK   11  A    between atoms: C_24  and  S_25
REMARK   12  A    between atoms: S_25  and  N_26
REMARK                            x       y       z     vdW  Elec       q    Type
REMARK                         _______ _______ _______ _____ _____    ______ ____
ROOT
ATOM      1  C   UNL     1       1.635   9.296  18.730  0.00  0.00    +0.000 A 
ATOM      2  C   UNL     1       2.190   8.718  17.613  0.00  0.00    +0.000 A 
ATOM      3  C   UNL     1       2.569   7.411  17.979  0.00  0.00    +0.000 A 
ATOM      4  C   UNL     1       2.229   7.257  19.308  0.00  0.00    +0.000 A 
ATOM      5  O   UNL     1       1.661   8.413  19.779  0.00  0.00    +0.000 OA
ENDROOT
BRANCH   1   7
ATOM      6  N   UNL     1       0.551  10.925  20.056  0.00  0.00    +0.000 NA
ATOM      7  C   UNL     1       1.103  10.623  18.930  0.00  0.00    +0.000 C 
BRANCH   6   8
ATOM      8  C   UNL     1       0.016  12.296  20.152  0.00  0.00    +0.000 C 
BRANCH   8   9
ATOM      9  C   UNL     1      -1.399  12.331  19.568  0.00  0.00    +0.000 C 
BRANCH   9  13
ATOM     10  C   UNL     1      -4.497  12.815  22.529  0.00  0.00    +0.000 A 
ATOM     11  C   UNL     1      -4.822  12.832  21.175  0.00  0.00    +0.000 A 
ATOM     12  C   UNL     1      -3.815  12.695  20.218  0.00  0.00    +0.000 A 
ATOM     13  C   UNL     1      -2.475  12.530  20.605  0.00  0.00    +0.000 A 
ATOM     14  C   UNL     1      -2.160  12.531  21.972  0.00  0.00    +0.000 A 
ATOM     15  C   UNL     1      -3.170  12.675  22.937  0.00  0.00    +0.000 A 
BRANCH  10  16
ATOM     16  S   UNL     1      -5.852  12.922  23.676  0.00  0.00    +0.000 S 
ATOM     17  O   UNL     1      -6.793  11.875  23.386  0.00  0.00    +0.000 OA
ATOM     18  O   UNL     1      -6.247  14.298  23.847  0.00  0.00    +0.000 OA
BRANCH  16  19
ATOM     19  N   UNL     1      -5.086  12.516  25.128  0.00  0.00    +0.000 NA
ATOM     20  H   UNL     1      -5.662  11.823  25.606  0.00  0.00    +0.000 HD
ATOM     21  H   UNL     1      -4.941  13.345  25.704  0.00  0.00    +0.000 HD
ENDBRANCH  16  19
ENDBRANCH  10  16
ENDBRANCH   9  13
ENDBRANCH   8   9
ENDBRANCH   6   8
ENDBRANCH   1   7
BRANCH   4  22
ATOM     22  C   UNL     1       2.372   6.111  20.172  0.00  0.00    +0.000 C 
ATOM     23  N   UNL     1       1.750   5.026  19.861  0.00  0.00    +0.000 NA
BRANCH  23  24
ATOM     24  C   UNL     1       1.874   3.895  20.777  0.00  0.00    +0.000 C 
BRANCH  24  25
ATOM     25  C   UNL     1       2.627   2.785  20.030  0.00  0.00    +0.000 C 
BRANCH  25  26
ATOM     26  C   UNL     1       3.584   3.305  18.989  0.00  0.00    +0.000 A 
ATOM     27  C   UNL     1       4.831   3.819  19.371  0.00  0.00    +0.000 A 
ATOM     28  C   UNL     1       5.729   4.279  18.410  0.00  0.00    +0.000 A 
ATOM     29  C   UNL     1       5.375   4.227  17.063  0.00  0.00    +0.000 A 
ATOM     30  C   UNL     1       4.134   3.731  16.661  0.00  0.00    +0.000 A 
ATOM     31  C   UNL     1       3.240   3.272  17.628  0.00  0.00    +0.000 A 
BRANCH  29  32
ATOM     32  S   UNL     1       6.552   4.730  15.841  0.00  0.00    +0.000 S 
ATOM     33  O   UNL     1       6.114   5.965  15.250  0.00  0.00    +0.000 OA
ATOM     34  O   UNL     1       7.883   4.531  16.359  0.00  0.00    +0.000 OA
BRANCH  32  35
ATOM     35  N   UNL     1       6.266   3.518  14.736  0.00  0.00    +0.000 NA
ATOM     36  H   UNL     1       5.336   3.114  14.725  0.00  0.00    +0.000 HD
ATOM     37  H   UNL     1       6.887   3.461  13.935  0.00  0.00    +0.000 HD
ENDBRANCH  32  35
ENDBRANCH  29  32
ENDBRANCH  25  26
ENDBRANCH  24  25
ENDBRANCH  23  24
ENDBRANCH   4  22
TORSDOF 12
ENDMDL
MODEL 2
REMARK VINA RESULT:      -7.7      2.006      2.415
REMARK  Name = 
REMARK  12 active torsions:
REMARK  status: ('A' for Active; 'I' for Inactive)
REMARK    1  A    between atoms: N_1  and  S_2
REMARK    2  A    between atoms: S_2  and  C_5
REMARK    3  A    between atoms: C_8  and  C_9
REMARK    4  A    between atoms: C_9  and  C_10
REMARK    5  A    between atoms: C_10  and  N_11
REMARK    6  A    between atoms: C_12  and  C_13
REMARK    7  A    between atoms: C_16  and  C_17
REMARK    8  A    between atoms: N_18  and  C_19
REMARK    9  A    between atoms: C_19  and  C_20
REMARK   10  A    between atoms: C_20  and  C_21
REMARK   11  A    between atoms: C_24  and  S_25
REMARK   12  A    between atoms: S_25  and  N_26
REMARK                            x       y       z     vdW  Elec       q    Type
REMARK                         _______ _______ _______ _____ _____    ______ ____
ROOT
ATOM      1  C   UNL     1       1.541   9.505  18.715  0.00  0.00    +0.000 A 
ATOM      2  C   UNL     1       2.227   8.919  17.678  0.00  0.00    +0.000 A 
ATOM      3  C   UNL     1       2.599   7.631  18.116  0.00  0.00    +0.000 A 
ATOM      4  C   UNL     1       2.122   7.497  19.405  0.00  0.00    +0.000 A 
ATOM      5  O   UNL     1       1.477   8.647  19.783  0.00  0.00    +0.000 OA
ENDROOT
BRANCH   1   7
ATOM      6  N   UNL     1       0.210  11.105  19.836  0.00  0.00    +0.000 NA
ATOM      7  C   UNL     1       0.956  10.821  18.823  0.00  0.00    +0.000 C 
BRANCH   6   8
ATOM      8  C   UNL     1      -0.360  12.465  19.842  0.00  0.00    +0.000 C 
BRANCH   8   9
ATOM      9  C   UNL     1      -1.369  12.588  20.987  0.00  0.00    +0.000 C 
BRANCH   9  13
ATOM     10  C   UNL     1      -5.476  12.283  19.708  0.00  0.00    +0.000 A 
ATOM     11  C   UNL     1      -5.182  12.656  21.017  0.00  0.00    +0.000 A 
ATOM     12  C   UNL     1      -3.853  12.734  21.434  0.00  0.00    +0.000 A 
ATOM     13  C   UNL     1      -2.804  12.451  20.544  0.00  0.00    +0.000 A 
ATOM     14  C   UNL     1      -3.114  12.062  19.233  0.00  0.00    +0.000 A 
ATOM     15  C   UNL     1      -4.451  11.975  18.813  0.00  0.00    +0.000 A 
BRANCH  10  16
ATOM     16  S   UNL     1      -7.193  12.282  19.245  0.00  0.00    +0.000 S 
ATOM     17  O   UNL     1      -7.298  12.025  17.835  0.00  0.00    +0.000 OA
ATOM     18  O   UNL     1      -7.879  13.373  19.891  0.00  0.00    +0.000 OA
BRANCH  16  19
ATOM     19  N   UNL     1      -7.748  10.899  20.046  0.00  0.00    +0.000 NA
ATOM     20  H   UNL     1      -8.563  10.548  19.544  0.00  0.00    +0.000 HD
ATOM     21  H   UNL     1      -7.969  11.109  21.020  0.00  0.00    +0.000 HD
ENDBRANCH  16  19
ENDBRANCH  10  16
ENDBRANCH   9  13
ENDBRANCH   8   9
ENDBRANCH   6   8
ENDBRANCH   1   7
BRANCH   4  22
ATOM     22  C   UNL     1       2.201   6.376  20.308  0.00  0.00    +0.000 C 
ATOM     23  N   UNL     1       1.955   5.198  19.847  0.00  0.00    +0.000 NA
BRANCH  23  24
ATOM     24  C   UNL     1       1.996   4.085  20.792  0.00  0.00    +0.000 C 
BRANCH  24  25
ATOM     25  C   UNL     1       2.988   3.053  20.237  0.00  0.00    +0.000 C 
BRANCH  25  26
ATOM     26  C   UNL     1       3.861   3.593  19.134  0.00  0.00    +0.000 A 
ATOM     27  C   UNL     1       3.487   3.428  17.793  0.00  0.00    +0.000 A 
ATOM     28  C   UNL     1       4.278   3.947  16.771  0.00  0.00    +0.000 A 
ATOM     29  C   UNL     1       5.449   4.631  17.093  0.00  0.00    +0.000 A 
ATOM     30  C   UNL     1       5.847   4.796  18.421  0.00  0.00    +0.000 A 
ATOM     31  C   UNL     1       5.050   4.274  19.439  0.00  0.00    +0.000 A 
BRANCH  29  32
ATOM     32  S   UNL     1       6.406   5.364  15.797  0.00  0.00    +0.000 S 
ATOM     33  O   UNL     1       7.507   6.084  16.376  0.00  0.00    +0.000 OA
ATOM     34  O   UNL     1       6.562   4.408  14.729  0.00  0.00    +0.000 OA
BRANCH  32  35
ATOM     35  N   UNL     1       5.284   6.488  15.293  0.00  0.00    +0.000 NA
ATOM     36  H   UNL     1       5.149   6.585  14.292  0.00  0.00    +0.000 HD
ATOM     37  H   UNL     1       4.578   6.776  15.962  0.00  0.00    +0.000 HD
ENDBRANCH  32  35
ENDBRANCH  29  32
ENDBRANCH  25  26
ENDBRANCH  24  25
ENDBRANCH  23  24
ENDBRANCH   4  22
TORSDOF 12
ENDMDL
MODEL 3
REMARK VINA RESULT:      -7.6      1.523      1.935
REMARK  Name = 
REMARK  12 active torsions:
REMARK  status: ('A' for Active; 'I' for Inactive)
REMARK    1  A    between atoms: N_1  and  S_2
REMARK    2  A    between atoms: S_2  and  C_5
REMARK    3  A    between atoms: C_8  and  C_9
REMARK    4  A    between atoms: C_9  and  C_10
REMARK    5  A    between atoms: C_10  and  N_11
REMARK    6  A    between atoms: C_12  and  C_13
REMARK    7  A    between atoms: C_16  and  C_17
REMARK    8  A    between atoms: N_18  and  C_19
REMARK    9  A    between atoms: C_19  and  C_20
REMARK   10  A    between atoms: C_20  and  C_21
REMARK   11  A    between atoms: C_24  and  S_25
REMARK   12  A    between atoms: S_25  and  N_26
REMARK                            x       y       z     vdW  Elec       q    Type
REMARK                         _______ _______ _______ _____ _____    ______ ____
ROOT
ATOM      1  C   UNL     1       1.495   8.986  19.227  0.00  0.00    +0.000 A 
ATOM      2  C   UNL     1       2.210   8.582  18.125  0.00  0.00    +0.000 A 
ATOM      3  C   UNL     1       2.701   7.292  18.411  0.00  0.00    +0.000 A 
ATOM      4  C   UNL     1       2.261   6.973  19.680  0.00  0.00    +0.000 A 
ATOM      5  O   UNL     1       1.525   8.012  20.191  0.00  0.00    +0.000 OA
ENDROOT
BRANCH   1   7
ATOM      6  N   UNL     1      -0.033  10.683  18.616  0.00  0.00    +0.000 NA
ATOM      7  C   UNL     1       0.800  10.225  19.488  0.00  0.00    +0.000 C 
BRANCH   6   8
ATOM      8  C   UNL     1      -0.671  11.967  18.963  0.00  0.00    +0.000 C 
BRANCH   8   9
ATOM      9  C   UNL     1      -1.893  12.185  18.066  0.00  0.00    +0.000 C 
BRANCH   9  13
ATOM     10  C   UNL     1      -5.665  12.008  20.149  0.00  0.00    +0.000 A 
ATOM     11  C   UNL     1      -4.553  12.571  20.771  0.00  0.00    +0.000 A 
ATOM     12  C   UNL     1      -3.329  12.609  20.103  0.00  0.00    +0.000 A 
ATOM     13  C   UNL     1      -3.205  12.094  18.802  0.00  0.00    +0.000 A 
ATOM     14  C   UNL     1      -4.329  11.516  18.193  0.00  0.00    +0.000 A 
ATOM     15  C   UNL     1      -5.560  11.470  18.866  0.00  0.00    +0.000 A 
BRANCH  10  16
ATOM     16  S   UNL     1      -7.198  12.071  21.047  0.00  0.00    +0.000 S 
ATOM     17  O   UNL     1      -7.881  10.816  20.895  0.00  0.00    +0.000 OA
ATOM     18  O   UNL     1      -7.846  13.341  20.830  0.00  0.00    +0.000 OA
BRANCH  16  19
ATOM     19  N   UNL     1      -6.642  12.145  22.643  0.00  0.00    +0.000 NA
ATOM     20  H   UNL     1      -6.456  13.123  22.867  0.00  0.00    +0.000 HD
ATOM     21  H   UNL     1      -5.810  11.568  22.763  0.00  0.00    +0.000 HD
ENDBRANCH  16  19
ENDBRANCH  10  16
ENDBRANCH   9  13
ENDBRANCH   8   9
ENDBRANCH   6   8
ENDBRANCH   1   7
BRANCH   4  22
ATOM     22  C   UNL     1       2.453   5.769  20.450  0.00  0.00    +0.000 C 
ATOM     23  N   UNL     1       1.804   4.710  20.107  0.00  0.00    +0.000 NA
BRANCH  23  24
ATOM     24  C   UNL     1       1.982   3.517  20.931  0.00  0.00    +0.000 C 
BRANCH  24  25
ATOM     25  C   UNL     1       2.675   2.460  20.058  0.00  0.00    +0.000 C 
BRANCH  25  26
ATOM     26  C   UNL     1       3.560   3.051  18.991  0.00  0.00    +0.000 A 
ATOM     27  C   UNL     1       4.813   3.582  19.328  0.00  0.00    +0.000 A 
ATOM     28  C   UNL     1       5.645   4.107  18.341  0.00  0.00    +0.000 A 
ATOM     29  C   UNL     1       5.219   4.102  17.014  0.00  0.00    +0.000 A 
ATOM     30  C   UNL     1       3.971   3.590  16.658  0.00  0.00    +0.000 A 
ATOM     31  C   UNL     1       3.143   3.066  17.651  0.00  0.00    +0.000 A 
BRANCH  29  32
ATOM     32  S   UNL     1       6.314   4.690  15.754  0.00  0.00    +0.000 S 
ATOM     33  O   UNL     1       6.340   3.740  14.676  0.00  0.00    +0.000 OA
ATOM     34  O   UNL     1       6.092   6.102  15.558  0.00  0.00    +0.000 OA
BRANCH  32  35
ATOM     35  N   UNL     1       7.741   4.527  16.597  0.00  0.00    +0.000 NA
ATOM     36  H   UNL     1       7.754   3.853  17.354  0.00  0.00    +0.000 HD
ATOM     37  H   UNL     1       8.592   4.840  16.140  0.00  0.00    +0.000 HD
ENDBRANCH  32  35
ENDBRANCH  29  32
ENDBRANCH  25  26
ENDBRANCH  24  25
ENDBRANCH  23  24
ENDBRANCH   4  22
TORSDOF 12
ENDMDL
MODEL 4
REMARK VINA RESULT:      -7.5      2.116      2.420
REMARK  Name = 
REMARK  12 active torsions:
REMARK  status: ('A' for Active; 'I' for Inactive)
REMARK    1  A    between atoms: N_1  and  S_2
REMARK    2  A    between atoms: S_2  and  C_5
REMARK    3  A    between atoms: C_8  and  C_9
REMARK    4  A    between atoms: C_9  and  C_10
REMARK    5  A    between atoms: C_10  and  N_11
REMARK    6  A    between atoms: C_12  and  C_13
REMARK    7  A    between atoms: C_16  and  C_17
REMARK    8  A    between atoms: N_18  and  C_19
REMARK    9  A    between atoms: C_19  and  C_20
REMARK   10  A    between atoms: C_20  and  C_21
REMARK   11  A    between atoms: C_24  and  S_25
REMARK   12  A    between atoms: S_25  and  N_26
REMARK                            x       y       z     vdW  Elec       q    Type
REMARK                         _______ _______ _______ _____ _____    ______ ____
ROOT
ATOM      1  C   UNL     1       1.490   9.055  19.196  0.00  0.00    +0.000 A 
ATOM      2  C   UNL     1       2.168   8.600  18.090  0.00  0.00    +0.000 A 
ATOM      3  C   UNL     1       2.619   7.301  18.399  0.00  0.00    +0.000 A 
ATOM      4  C   UNL     1       2.195   7.029  19.685  0.00  0.00    +0.000 A 
ATOM      5  O   UNL     1       1.507   8.105  20.184  0.00  0.00    +0.000 OA
ENDROOT
BRANCH   1   7
ATOM      6  N   UNL     1       0.597  11.112  18.449  0.00  0.00    +0.000 NA
ATOM      7  C   UNL     1       0.844  10.324  19.439  0.00  0.00    +0.000 C 
BRANCH   6   8
ATOM      8  C   UNL     1      -0.040  12.394  18.803  0.00  0.00    +0.000 C 
BRANCH   8   9
ATOM      9  C   UNL     1      -0.925  12.198  20.038  0.00  0.00    +0.000 C 
BRANCH   9  13
ATOM     10  C   UNL     1      -5.158  12.276  19.215  0.00  0.00    +0.000 A 
ATOM     11  C   UNL     1      -4.294  11.606  18.352  0.00  0.00    +0.000 A 
ATOM     12  C   UNL     1      -2.923  11.599  18.609  0.00  0.00    +0.000 A 
ATOM     13  C   UNL     1      -2.401  12.253  19.737  0.00  0.00    +0.000 A 
ATOM     14  C   UNL     1      -3.280  12.937  20.590  0.00  0.00    +0.000 A 
ATOM     15  C   UNL     1      -4.659  12.952  20.329  0.00  0.00    +0.000 A 
BRANCH  10  16
ATOM     16  S   UNL     1      -6.894  12.168  18.848  0.00  0.00    +0.000 S 
ATOM     17  O   UNL     1      -7.475  11.117  19.636  0.00  0.00    +0.000 OA
ATOM     18  O   UNL     1      -7.107  12.284  17.427  0.00  0.00    +0.000 OA
BRANCH  16  19
ATOM     19  N   UNL     1      -7.455  13.633  19.481  0.00  0.00    +0.000 NA
ATOM     20  H   UNL     1      -8.473  13.591  19.522  0.00  0.00    +0.000 HD
ATOM     21  H   UNL     1      -7.134  14.419  18.915  0.00  0.00    +0.000 HD
ENDBRANCH  16  19
ENDBRANCH  10  16
ENDBRANCH   9  13
ENDBRANCH   8   9
ENDBRANCH   6   8
ENDBRANCH   1   7
BRANCH   4  22
ATOM     22  C   UNL     1       2.363   5.838  20.481  0.00  0.00    +0.000 C 
ATOM     23  N   UNL     1       2.006   4.707  19.977  0.00  0.00    +0.000 NA
BRANCH  23  24
ATOM     24  C   UNL     1       2.143   3.522  20.820  0.00  0.00    +0.000 C 
BRANCH  24  25
ATOM     25  C   UNL     1       3.365   2.742  20.315  0.00  0.00    +0.000 C 
BRANCH  25  26
ATOM     26  C   UNL     1       3.983   3.333  19.074  0.00  0.00    +0.000 A 
ATOM     27  C   UNL     1       5.196   4.033  19.156  0.00  0.00    +0.000 A 
ATOM     28  C   UNL     1       5.783   4.561  18.008  0.00  0.00    +0.000 A 
ATOM     29  C   UNL     1       5.154   4.389  16.777  0.00  0.00    +0.000 A 
ATOM     30  C   UNL     1       3.940   3.707  16.675  0.00  0.00    +0.000 A 
ATOM     31  C   UNL     1       3.358   3.181  17.827  0.00  0.00    +0.000 A 
BRANCH  29  32
ATOM     32  S   UNL     1       5.946   4.984  15.311  0.00  0.00    +0.000 S 
ATOM     33  O   UNL     1       5.806   4.004  14.270  0.00  0.00    +0.000 OA
ATOM     34  O   UNL     1       5.620   6.378  15.132  0.00  0.00    +0.000 OA
BRANCH  32  35
ATOM     35  N   UNL     1       7.519   4.912  15.856  0.00  0.00    +0.000 NA
ATOM     36  H   UNL     1       7.716   5.350  16.749  0.00  0.00    +0.000 HD
ATOM     37  H   UNL     1       8.115   4.189  15.467  0.00  0.00    +0.000 HD
ENDBRANCH  32  35
ENDBRANCH  29  32
ENDBRANCH  25  26
ENDBRANCH  24  25
ENDBRANCH  23  24
ENDBRANCH   4  22
TORSDOF 12
ENDMDL
MODEL 5
REMARK VINA RESULT:      -7.5      1.468      1.989
REMARK  Name = 
REMARK  12 active torsions:
REMARK  status: ('A' for Active; 'I' for Inactive)
REMARK    1  A    between atoms: N_1  and  S_2
REMARK    2  A    between atoms: S_2  and  C_5
REMARK    3  A    between atoms: C_8  and  C_9
REMARK    4  A    between atoms: C_9  and  C_10
REMARK    5  A    between atoms: C_10  and  N_11
REMARK    6  A    between atoms: C_12  and  C_13
REMARK    7  A    between atoms: C_16  and  C_17
REMARK    8  A    between atoms: N_18  and  C_19
REMARK    9  A    between atoms: C_19  and  C_20
REMARK   10  A    between atoms: C_20  and  C_21
REMARK   11  A    between atoms: C_24  and  S_25
REMARK   12  A    between atoms: S_25  and  N_26
REMARK                            x       y       z     vdW  Elec       q    Type
REMARK                         _______ _______ _______ _____ _____    ______ ____
ROOT
ATOM      1  C   UNL     1       1.182   9.426  18.753  0.00  0.00    +0.000 A 
ATOM      2  C   UNL     1       1.983   9.097  17.686  0.00  0.00    +0.000 A 
ATOM      3  C   UNL     1       2.656   7.909  18.035  0.00  0.00    +0.000 A 
ATOM      4  C   UNL     1       2.233   7.573  19.306  0.00  0.00    +0.000 A 
ATOM      5  O   UNL     1       1.333   8.504  19.757  0.00  0.00    +0.000 OA
ENDROOT
BRANCH   1   7
ATOM      6  N   UNL     1      -0.870  10.545  18.401  0.00  0.00    +0.000 NA
ATOM      7  C   UNL     1       0.298  10.552  18.947  0.00  0.00    +0.000 C 
BRANCH   6   8
ATOM      8  C   UNL     1      -1.686  11.751  18.636  0.00  0.00    +0.000 C 
BRANCH   8   9
ATOM      9  C   UNL     1      -0.882  12.756  19.465  0.00  0.00    +0.000 C 
BRANCH   9  13
ATOM     10  C   UNL     1      -2.883  14.141  23.025  0.00  0.00    +0.000 A 
ATOM     11  C   UNL     1      -2.715  12.776  22.809  0.00  0.00    +0.000 A 
ATOM     12  C   UNL     1      -2.086  12.329  21.647  0.00  0.00    +0.000 A 
ATOM     13  C   UNL     1      -1.607  13.243  20.693  0.00  0.00    +0.000 A 
ATOM     14  C   UNL     1      -1.796  14.615  20.916  0.00  0.00    +0.000 A 
ATOM     15  C   UNL     1      -2.436  15.067  22.081  0.00  0.00    +0.000 A 
BRANCH  10  16
ATOM     16  S   UNL     1      -3.629  14.619  24.567  0.00  0.00    +0.000 S 
ATOM     17  O   UNL     1      -4.732  15.500  24.299  0.00  0.00    +0.000 OA
ATOM     18  O   UNL     1      -2.606  14.924  25.537  0.00  0.00    +0.000 OA
BRANCH  16  19
ATOM     19  N   UNL     1      -4.281  13.148  25.086  0.00  0.00    +0.000 NA
ATOM     20  H   UNL     1      -3.838  12.900  25.971  0.00  0.00    +0.000 HD
ATOM     21  H   UNL     1      -4.143  12.422  24.383  0.00  0.00    +0.000 HD
ENDBRANCH  16  19
ENDBRANCH  10  16
ENDBRANCH   9  13
ENDBRANCH   8   9
ENDBRANCH   6   8
ENDBRANCH   1   7
BRANCH   4  22
ATOM     22  C   UNL     1       2.585   6.442  20.129  0.00  0.00    +0.000 C 
ATOM     23  N   UNL     1       1.785   5.433  20.160  0.00  0.00    +0.000 NA
BRANCH  23  24
ATOM     24  C   UNL     1       2.141   4.319  21.037  0.00  0.00    +0.000 C 
BRANCH  24  25
ATOM     25  C   UNL     1       2.502   3.129  20.137  0.00  0.00    +0.000 C 
BRANCH  25  26
ATOM     26  C   UNL     1       3.471   3.481  19.037  0.00  0.00    +0.000 A 
ATOM     27  C   UNL     1       3.054   3.465  17.698  0.00  0.00    +0.000 A 
ATOM     28  C   UNL     1       3.939   3.813  16.680  0.00  0.00    +0.000 A 
ATOM     29  C   UNL     1       5.246   4.175  17.004  0.00  0.00    +0.000 A 
ATOM     30  C   UNL     1       5.685   4.185  18.329  0.00  0.00    +0.000 A 
ATOM     31  C   UNL     1       4.794   3.836  19.343  0.00  0.00    +0.000 A 
BRANCH  29  32
ATOM     32  S   UNL     1       6.341   4.700  15.717  0.00  0.00    +0.000 S 
ATOM     33  O   UNL     1       6.350   3.710  14.676  0.00  0.00    +0.000 OA
ATOM     34  O   UNL     1       6.135   6.106  15.468  0.00  0.00    +0.000 OA
BRANCH  32  35
ATOM     35  N   UNL     1       7.770   4.553  16.559  0.00  0.00    +0.000 NA
ATOM     36  H   UNL     1       8.492   5.239  16.364  0.00  0.00    +0.000 HD
ATOM     37  H   UNL     1       7.750   4.025  17.426  0.00  0.00    +0.000 HD
ENDBRANCH  32  35
ENDBRANCH  29  32
ENDBRANCH  25  26
ENDBRANCH  24  25
ENDBRANCH  23  24
ENDBRANCH   4  22
TORSDOF 12
ENDMDL
MODEL 6
REMARK VINA RESULT:      -7.4      1.293     12.565
REMARK  Name = 
REMARK  12 active torsions:
REMARK  status: ('A' for Active; 'I' for Inactive)
REMARK    1  A    between atoms: N_1  and  S_2
REMARK    2  A    between atoms: S_2  and  C_5
REMARK    3  A    between atoms: C_8  and  C_9
REMARK    4  A    between atoms: C_9  and  C_10
REMARK    5  A    between atoms: C_10  and  N_11
REMARK    6  A    between atoms: C_12  and  C_13
REMARK    7  A    between atoms: C_16  and  C_17
REMARK    8  A    between atoms: N_18  and  C_19
REMARK    9  A    between atoms: C_19  and  C_20
REMARK   10  A    between atoms: C_20  and  C_21
REMARK   11  A    between atoms: C_24  and  S_25
REMARK   12  A    between atoms: S_25  and  N_26
REMARK                            x       y       z     vdW  Elec       q    Type
REMARK                         _______ _______ _______ _____ _____    ______ ____
ROOT
ATOM      1  C   UNL     1       2.078   7.265  19.777  0.00  0.00    +0.000 A 
ATOM      2  C   UNL     1       2.374   7.774  18.535  0.00  0.00    +0.000 A 
ATOM      3  C   UNL     1       1.775   9.048  18.466  0.00  0.00    +0.000 A 
ATOM      4  C   UNL     1       1.136   9.252  19.673  0.00  0.00    +0.000 A 
ATOM      5  O   UNL     1       1.312   8.158  20.481  0.00  0.00    +0.000 OA
ENDROOT
BRANCH   1   7
ATOM      6  N   UNL     1       1.634   4.982  20.200  0.00  0.00    +0.000 NA
ATOM      7  C   UNL     1       2.417   5.993  20.371  0.00  0.00    +0.000 C 
BRANCH   6   8
ATOM      8  C   UNL     1       2.053   3.736  20.867  0.00  0.00    +0.000 C 
BRANCH   8   9
ATOM      9  C   UNL     1       2.473   2.710  19.811  0.00  0.00    +0.000 C 
BRANCH   9  13
ATOM     10  C   UNL     1       5.306   4.183  16.911  0.00  0.00    +0.000 A 
ATOM     11  C   UNL     1       5.654   4.133  18.259  0.00  0.00    +0.000 A 
ATOM     12  C   UNL     1       4.728   3.675  19.198  0.00  0.00    +0.000 A 
ATOM     13  C   UNL     1       3.450   3.253  18.798  0.00  0.00    +0.000 A 
ATOM     14  C   UNL     1       3.107   3.323  17.440  0.00  0.00    +0.000 A 
ATOM     15  C   UNL     1       4.034   3.790  16.494  0.00  0.00    +0.000 A 
BRANCH  10  16
ATOM     16  S   UNL     1       6.573   4.709  15.780  0.00  0.00    +0.000 S 
ATOM     17  O   UNL     1       7.858   4.497  16.385  0.00  0.00    +0.000 OA
ATOM     18  O   UNL     1       6.198   5.959  15.166  0.00  0.00    +0.000 OA
BRANCH  16  19
ATOM     19  N   UNL     1       6.408   3.564  14.546  0.00  0.00    +0.000 NA
ATOM     20  H   UNL     1       6.741   3.984  13.678  0.00  0.00    +0.000 HD
ATOM     21  H   UNL     1       5.439   3.256  14.466  0.00  0.00    +0.000 HD
ENDBRANCH  16  19
ENDBRANCH  10  16
ENDBRANCH   9  13
ENDBRANCH   8   9
ENDBRANCH   6   8
ENDBRANCH   1   7
BRANCH   4  22
ATOM     22  C   UNL     1       0.391  10.393  20.144  0.00  0.00    +0.000 C 
ATOM     23  N   UNL     1       0.948  11.180  20.998  0.00  0.00    +0.000 NA
BRANCH  23  24
ATOM     24  C   UNL     1       0.155  12.303  21.494  0.00  0.00    +0.000 C 
BRANCH  24  25
ATOM     25  C   UNL     1      -1.004  11.716  22.312  0.00  0.00    +0.000 C 
BRANCH  25  26
ATOM     26  C   UNL     1      -2.093  12.714  22.610  0.00  0.00    +0.000 A 
ATOM     27  C   UNL     1      -3.332  12.620  21.961  0.00  0.00    +0.000 A 
ATOM     28  C   UNL     1      -4.351  13.525  22.252  0.00  0.00    +0.000 A 
ATOM     29  C   UNL     1      -4.126  14.528  23.193  0.00  0.00    +0.000 A 
ATOM     30  C   UNL     1      -2.895  14.647  23.842  0.00  0.00    +0.000 A 
ATOM     31  C   UNL     1      -1.881  13.737  23.547  0.00  0.00    +0.000 A 
BRANCH  29  32
ATOM     32  S   UNL     1      -5.449  15.621  23.623  0.00  0.00    +0.000 S 
ATOM     33  O   UNL     1      -5.506  16.689  22.663  0.00  0.00    +0.000 OA
ATOM     34  O   UNL     1      -6.601  14.840  24.004  0.00  0.00    +0.000 OA
BRANCH  32  35
ATOM     35  N   UNL     1      -4.789  16.241  25.022  0.00  0.00    +0.000 NA
ATOM     36  H   UNL     1      -5.409  16.340  25.818  0.00  0.00    +0.000 HD
ATOM     37  H   UNL     1      -3.781  16.183  25.127  0.00  0.00    +0.000 HD
ENDBRANCH  32  35
ENDBRANCH  29  32
ENDBRANCH  25  26
ENDBRANCH  24  25
ENDBRANCH  23  24
ENDBRANCH   4  22
TORSDOF 12
ENDMDL
MODEL 7
REMARK VINA RESULT:      -7.4      1.294      1.758
REMARK  Name = 
REMARK  12 active torsions:
REMARK  status: ('A' for Active; 'I' for Inactive)
REMARK    1  A    between atoms: N_1  and  S_2
REMARK    2  A    between atoms: S_2  and  C_5
REMARK    3  A    between atoms: C_8  and  C_9
REMARK    4  A    between atoms: C_9  and  C_10
REMARK    5  A    between atoms: C_10  and  N_11
REMARK    6  A    between atoms: C_12  and  C_13
REMARK    7  A    between atoms: C_16  and  C_17
REMARK    8  A    between atoms: N_18  and  C_19
REMARK    9  A    between atoms: C_19  and  C_20
REMARK   10  A    between atoms: C_20  and  C_21
REMARK   11  A    between atoms: C_24  and  S_25
REMARK   12  A    between atoms: S_25  and  N_26
REMARK                            x       y       z     vdW  Elec       q    Type
REMARK                         _______ _______ _______ _____ _____    ______ ____
ROOT
ATOM      1  C   UNL     1       1.045  10.099  19.556  0.00  0.00    +0.000 A 
ATOM      2  C   UNL     1       1.256   9.920  18.210  0.00  0.00    +0.000 A 
ATOM      3  C   UNL     1       1.796   8.627  18.053  0.00  0.00    +0.000 A 
ATOM      4  C   UNL     1       1.891   8.081  19.318  0.00  0.00    +0.000 A 
ATOM      5  O   UNL     1       1.439   8.982  20.248  0.00  0.00    +0.000 OA
ENDROOT
BRANCH   1   7
ATOM      6  N   UNL     1       0.741  12.428  19.819  0.00  0.00    +0.000 NA
ATOM      7  C   UNL     1       0.535  11.241  20.278  0.00  0.00    +0.000 C 
BRANCH   6   8
ATOM      8  C   UNL     1       0.203  13.528  20.642  0.00  0.00    +0.000 C 
BRANCH   8   9
ATOM      9  C   UNL     1      -1.094  14.044  20.014  0.00  0.00    +0.000 C 
BRANCH   9  13
ATOM     10  C   UNL     1      -4.520  13.423  22.559  0.00  0.00    +0.000 A 
ATOM     11  C   UNL     1      -4.334  12.621  21.436  0.00  0.00    +0.000 A 
ATOM     12  C   UNL     1      -3.236  12.837  20.603  0.00  0.00    +0.000 A 
ATOM     13  C   UNL     1      -2.307  13.850  20.889  0.00  0.00    +0.000 A 
ATOM     14  C   UNL     1      -2.514  14.662  22.014  0.00  0.00    +0.000 A 
ATOM     15  C   UNL     1      -3.622  14.451  22.850  0.00  0.00    +0.000 A 
BRANCH  10  16
ATOM     16  S   UNL     1      -5.905  13.028  23.601  0.00  0.00    +0.000 S 
ATOM     17  O   UNL     1      -6.604  14.239  23.930  0.00  0.00    +0.000 OA
ATOM     18  O   UNL     1      -5.514  12.060  24.596  0.00  0.00    +0.000 OA
BRANCH  16  19
ATOM     19  N   UNL     1      -6.886  12.161  22.530  0.00  0.00    +0.000 NA
ATOM     20  H   UNL     1      -7.589  12.800  22.157  0.00  0.00    +0.000 HD
ATOM     21  H   UNL     1      -7.316  11.363  22.997  0.00  0.00    +0.000 HD
ENDBRANCH  16  19
ENDBRANCH  10  16
ENDBRANCH   9  13
ENDBRANCH   8   9
ENDBRANCH   6   8
ENDBRANCH   1   7
BRANCH   4  22
ATOM     22  C   UNL     1       2.351   6.778  19.731  0.00  0.00    +0.000 C 
ATOM     23  N   UNL     1       1.614   6.093  20.535  0.00  0.00    +0.000 NA
BRANCH  23  24
ATOM     24  C   UNL     1       2.125   4.796  20.974  0.00  0.00    +0.000 C 
BRANCH  24  25
ATOM     25  C   UNL     1       2.063   3.850  19.767  0.00  0.00    +0.000 C 
BRANCH  25  26
ATOM     26  C   UNL     1       3.248   3.977  18.844  0.00  0.00    +0.000 A 
ATOM     27  C   UNL     1       3.065   3.963  17.454  0.00  0.00    +0.000 A 
ATOM     28  C   UNL     1       4.154   4.104  16.597  0.00  0.00    +0.000 A 
ATOM     29  C   UNL     1       5.431   4.258  17.135  0.00  0.00    +0.000 A 
ATOM     30  C   UNL     1       5.638   4.262  18.515  0.00  0.00    +0.000 A 
ATOM     31  C   UNL     1       4.543   4.121  19.367  0.00  0.00    +0.000 A 
BRANCH  29  32
ATOM     32  S   UNL     1       6.800   4.525  16.046  0.00  0.00    +0.000 S 
ATOM     33  O   UNL     1       8.023   4.356  16.780  0.00  0.00    +0.000 OA
ATOM     34  O   UNL     1       6.536   3.870  14.788  0.00  0.00    +0.000 OA
BRANCH  32  35
ATOM     35  N   UNL     1       6.584   6.160  15.804  0.00  0.00    +0.000 NA
ATOM     36  H   UNL     1       5.826   6.438  15.191  0.00  0.00    +0.000 HD
ATOM     37  H   UNL     1       6.976   6.789  16.497  0.00  0.00    +0.000 HD
ENDBRANCH  32  35
ENDBRANCH  29  32
ENDBRANCH  25  26
ENDBRANCH  24  25
ENDBRANCH  23  24
ENDBRANCH   4  22
TORSDOF 12
ENDMDL
MODEL 8
REMARK VINA RESULT:      -7.4      1.666     12.494
REMARK  Name = 
REMARK  12 active torsions:
REMARK  status: ('A' for Active; 'I' for Inactive)
REMARK    1  A    between atoms: N_1  and  S_2
REMARK    2  A    between atoms: S_2  and  C_5
REMARK    3  A    between atoms: C_8  and  C_9
REMARK    4  A    between atoms: C_9  and  C_10
REMARK    5  A    between atoms: C_10  and  N_11
REMARK    6  A    between atoms: C_12  and  C_13
REMARK    7  A    between atoms: C_16  and  C_17
REMARK    8  A    between atoms: N_18  and  C_19
REMARK    9  A    between atoms: C_19  and  C_20
REMARK   10  A    between atoms: C_20  and  C_21
REMARK   11  A    between atoms: C_24  and  S_25
REMARK   12  A    between atoms: S_25  and  N_26
REMARK                            x       y       z     vdW  Elec       q    Type
REMARK                         _______ _______ _______ _____ _____    ______ ____
ROOT
ATOM      1  C   UNL     1       1.758   6.544  20.520  0.00  0.00    +0.000 A 
ATOM      2  C   UNL     1       2.144   7.592  19.719  0.00  0.00    +0.000 A 
ATOM      3  C   UNL     1       1.396   8.714  20.131  0.00  0.00    +0.000 A 
ATOM      4  C   UNL     1       0.585   8.291  21.165  0.00  0.00    +0.000 A 
ATOM      5  O   UNL     1       0.797   6.958  21.406  0.00  0.00    +0.000 OA
ENDROOT
BRANCH   1   7
ATOM      6  N   UNL     1       1.369   4.249  20.114  0.00  0.00    +0.000 NA
ATOM      7  C   UNL     1       2.182   5.164  20.521  0.00  0.00    +0.000 C 
BRANCH   6   8
ATOM      8  C   UNL     1       1.885   2.869  20.179  0.00  0.00    +0.000 C 
BRANCH   8   9
ATOM      9  C   UNL     1       3.412   2.901  20.283  0.00  0.00    +0.000 C 
BRANCH   9  13
ATOM     10  C   UNL     1       5.292   4.475  16.734  0.00  0.00    +0.000 A 
ATOM     11  C   UNL     1       4.182   3.642  16.622  0.00  0.00    +0.000 A 
ATOM     12  C   UNL     1       3.588   3.118  17.770  0.00  0.00    +0.000 A 
ATOM     13  C   UNL     1       4.091   3.429  19.044  0.00  0.00    +0.000 A 
ATOM     14  C   UNL     1       5.219   4.256  19.143  0.00  0.00    +0.000 A 
ATOM     15  C   UNL     1       5.823   4.779  17.989  0.00  0.00    +0.000 A 
BRANCH  10  16
ATOM     16  S   UNL     1       5.937   5.154  15.223  0.00  0.00    +0.000 S 
ATOM     17  O   UNL     1       5.341   6.442  14.998  0.00  0.00    +0.000 OA
ATOM     18  O   UNL     1       5.992   4.133  14.207  0.00  0.00    +0.000 OA
BRANCH  16  19
ATOM     19  N   UNL     1       7.553   5.420  15.645  0.00  0.00    +0.000 NA
ATOM     20  H   UNL     1       7.571   6.051  16.446  0.00  0.00    +0.000 HD
ATOM     21  H   UNL     1       8.076   5.799  14.856  0.00  0.00    +0.000 HD
ENDBRANCH  16  19
ENDBRANCH  10  16
ENDBRANCH   9  13
ENDBRANCH   8   9
ENDBRANCH   6   8
ENDBRANCH   1   7
BRANCH   4  22
ATOM     22  C   UNL     1      -0.359   9.034  21.963  0.00  0.00    +0.000 C 
ATOM     23  N   UNL     1      -0.013  10.195  22.400  0.00  0.00    +0.000 NA
BRANCH  23  24
ATOM     24  C   UNL     1      -0.969  10.908  23.245  0.00  0.00    +0.000 C 
BRANCH  24  25
ATOM     25  C   UNL     1      -1.396  12.171  22.483  0.00  0.00    +0.000 C 
BRANCH  25  26
ATOM     26  C   UNL     1      -2.864  12.486  22.620  0.00  0.00    +0.000 A 
ATOM     27  C   UNL     1      -3.473  12.474  23.882  0.00  0.00    +0.000 A 
ATOM     28  C   UNL     1      -4.824  12.788  24.016  0.00  0.00    +0.000 A 
ATOM     29  C   UNL     1      -5.566  13.113  22.882  0.00  0.00    +0.000 A 
ATOM     30  C   UNL     1      -4.983  13.119  21.614  0.00  0.00    +0.000 A 
ATOM     31  C   UNL     1      -3.630  12.804  21.487  0.00  0.00    +0.000 A 
BRANCH  29  32
ATOM     32  S   UNL     1      -7.258  13.596  23.067  0.00  0.00    +0.000 S 
ATOM     33  O   UNL     1      -7.325  14.760  23.907  0.00  0.00    +0.000 OA
ATOM     34  O   UNL     1      -7.916  13.509  21.786  0.00  0.00    +0.000 OA
BRANCH  32  35
ATOM     35  N   UNL     1      -7.770  12.296  23.974  0.00  0.00    +0.000 NA
ATOM     36  H   UNL     1      -7.075  11.836  24.552  0.00  0.00    +0.000 HD
ATOM     37  H   UNL     1      -8.764  12.223  24.166  0.00  0.00    +0.000 HD
ENDBRANCH  32  35
ENDBRANCH  29  32
ENDBRANCH  25  26
ENDBRANCH  24  25
ENDBRANCH  23  24
ENDBRANCH   4  22
TORSDOF 12
ENDMDL
MODEL 9
REMARK VINA RESULT:      -7.4      4.167      6.072
REMARK  Name = 
REMARK  12 active torsions:
REMARK  status: ('A' for Active; 'I' for Inactive)
REMARK    1  A    between atoms: N_1  and  S_2
REMARK    2  A    between atoms: S_2  and  C_5
REMARK    3  A    between atoms: C_8  and  C_9
REMARK    4  A    between atoms: C_9  and  C_10
REMARK    5  A    between atoms: C_10  and  N_11
REMARK    6  A    between atoms: C_12  and  C_13
REMARK    7  A    between atoms: C_16  and  C_17
REMARK    8  A    between atoms: N_18  and  C_19
REMARK    9  A    between atoms: C_19  and  C_20
REMARK   10  A    between atoms: C_20  and  C_21
REMARK   11  A    between atoms: C_24  and  S_25
REMARK   12  A    between atoms: S_25  and  N_26
REMARK                            x       y       z     vdW  Elec       q    Type
REMARK                         _______ _______ _______ _____ _____    ______ ____
ROOT
ATOM      1  C   UNL     1      -0.689  11.520  22.525  0.00  0.00    +0.000 A 
ATOM      2  C   UNL     1      -0.975  10.385  23.245  0.00  0.00    +0.000 A 
ATOM      3  C   UNL     1      -0.345   9.313  22.580  0.00  0.00    +0.000 A 
ATOM      4  C   UNL     1       0.294   9.851  21.480  0.00  0.00    +0.000 A 
ATOM      5  O   UNL     1       0.081  11.205  21.435  0.00  0.00    +0.000 OA
ENDROOT
BRANCH   1   7
ATOM      6  N   UNL     1      -0.200  13.799  22.916  0.00  0.00    +0.000 NA
ATOM      7  C   UNL     1      -1.096  12.889  22.737  0.00  0.00    +0.000 C 
BRANCH   6   8
ATOM      8  C   UNL     1      -0.717  15.160  23.151  0.00  0.00    +0.000 C 
BRANCH   8   9
ATOM      9  C   UNL     1      -1.251  15.734  21.836  0.00  0.00    +0.000 C 
BRANCH   9  13
ATOM     10  C   UNL     1       1.872  16.416  18.941  0.00  0.00    +0.000 A 
ATOM     11  C   UNL     1       1.934  17.032  20.188  0.00  0.00    +0.000 A 
ATOM     12  C   UNL     1       0.913  16.826  21.116  0.00  0.00    +0.000 A 
ATOM     13  C   UNL     1      -0.177  15.994  20.810  0.00  0.00    +0.000 A 
ATOM     14  C   UNL     1      -0.236  15.392  19.544  0.00  0.00    +0.000 A 
ATOM     15  C   UNL     1       0.787  15.603  18.606  0.00  0.00    +0.000 A 
BRANCH  10  16
ATOM     16  S   UNL     1       3.253  16.677  17.852  0.00  0.00    +0.000 S 
ATOM     17  O   UNL     1       4.380  17.121  18.624  0.00  0.00    +0.000 OA
ATOM     18  O   UNL     1       2.817  17.348  16.653  0.00  0.00    +0.000 OA
BRANCH  16  19
ATOM     19  N   UNL     1       3.583  15.094  17.355  0.00  0.00    +0.000 NA
ATOM     20  H   UNL     1       3.485  14.481  18.164  0.00  0.00    +0.000 HD
ATOM     21  H   UNL     1       4.516  15.029  16.947  0.00  0.00    +0.000 HD
ENDBRANCH  16  19
ENDBRANCH  10  16
ENDBRANCH   9  13
ENDBRANCH   8   9
ENDBRANCH   6   8
ENDBRANCH   1   7
BRANCH   4  22
ATOM     22  C   UNL     1       1.105   9.207  20.476  0.00  0.00    +0.000 C 
ATOM     23  N   UNL     1       1.115   9.700  19.286  0.00  0.00    +0.000 NA
BRANCH  23  24
ATOM     24  C   UNL     1       1.907   9.002  18.276  0.00  0.00    +0.000 C 
BRANCH  24  25
ATOM     25  C   UNL     1       1.934   7.517  18.664  0.00  0.00    +0.000 C 
BRANCH  25  26
ATOM     26  C   UNL     1       3.152   6.787  18.158  0.00  0.00    +0.000 A 
ATOM     27  C   UNL     1       3.874   7.291  17.067  0.00  0.00    +0.000 A 
ATOM     28  C   UNL     1       5.014   6.633  16.612  0.00  0.00    +0.000 A 
ATOM     29  C   UNL     1       5.431   5.466  17.249  0.00  0.00    +0.000 A 
ATOM     30  C   UNL     1       4.719   4.939  18.329  0.00  0.00    +0.000 A 
ATOM     31  C   UNL     1       3.579   5.604  18.780  0.00  0.00    +0.000 A 
BRANCH  29  32
ATOM     32  S   UNL     1       6.927   4.681  16.724  0.00  0.00    +0.000 S 
ATOM     33  O   UNL     1       7.731   4.383  17.877  0.00  0.00    +0.000 OA
ATOM     34  O   UNL     1       6.616   3.708  15.705  0.00  0.00    +0.000 OA
BRANCH  32  35
ATOM     35  N   UNL     1       7.616   5.992  15.960  0.00  0.00    +0.000 NA
ATOM     36  H   UNL     1       6.984   6.701  15.604  0.00  0.00    +0.000 HD
ATOM     37  H   UNL     1       8.591   6.190  16.161  0.00  0.00    +0.000 HD
ENDBRANCH  32  35
ENDBRANCH  29  32
ENDBRANCH  25  26
ENDBRANCH  24  25
ENDBRANCH  23  24
ENDBRANCH   4  22
TORSDOF 12
ENDMDL
