MODEL 1
REMARK VINA RESULT:      -7.5      0.000      0.000
REMARK  Name = 
REMARK  6 active torsions:
REMARK  status: ('A' for Active; 'I' for Inactive)
REMARK    1  A    between atoms: C_1  and  O_2
REMARK    2  A    between atoms: O_2  and  C_3
REMARK    3  A    between atoms: N_5  and  C_6
REMARK    4  A    between atoms: C_11  and  C_12
REMARK    5  A    between atoms: N_17  and  C_18
REMARK    6  A    between atoms: C_21  and  C_22
REMARK                            x       y       z     vdW  Elec       q    Type
REMARK                         _______ _______ _______ _____ _____    ______ ____
ROOT
ATOM      1  C   UNL     1       5.061   4.580  18.316  0.00  0.00    +0.000 C 
ATOM      2  O   UNL     1       5.703   4.068  19.237  0.00  0.00    +0.000 OA
ATOM      3  N   UNL     1       3.758   5.025  18.524  0.00  0.00    +0.000 N 
ATOM      4  C   UNL     1       3.189   4.884  19.871  0.00  0.00    +0.000 C 
ATOM      5  C   UNL     1       2.909   6.269  20.476  0.00  0.00    +0.000 C 
ATOM      6  N   UNL     1       2.003   7.046  19.579  0.00  0.00    +0.000 N 
ATOM      7  C   UNL     1       2.478   7.126  18.178  0.00  0.00    +0.000 C 
ATOM      8  C   UNL     1       2.830   5.718  17.619  0.00  0.00    +0.000 C 
ENDROOT
BRANCH   6   9
ATOM      9  C   UNL     1       1.464   8.193  20.180  0.00  0.00    +0.000 A 
ATOM     10  C   UNL     1       1.237   8.330  21.560  0.00  0.00    +0.000 A 
ATOM     11  C   UNL     1       0.685   9.502  22.103  0.00  0.00    +0.000 A 
ATOM     12  C   UNL     1       0.349  10.578  21.280  0.00  0.00    +0.000 A 
ATOM     13  C   UNL     1      -0.259  11.833  21.824  0.00  0.00    +0.000 C 
ATOM     14  C   UNL     1       0.616  10.480  19.916  0.00  0.00    +0.000 A 
ATOM     15  C   UNL     1       1.168   9.310  19.387  0.00  0.00    +0.000 A 
ENDBRANCH   6   9
BRANCH   1  21
ATOM     16  C   UNL     1       6.889   5.337  16.627  0.00  0.00    +0.000 A 
ATOM     17  C   UNL     1       7.350   5.244  15.300  0.00  0.00    +0.000 A 
ATOM     18  C   UNL     1       6.763   4.383  14.373  0.00  0.00    +0.000 A 
ATOM     19  C   UNL     1       5.691   3.596  14.753  0.00  0.00    +0.000 A 
ATOM     20  C   UNL     1       5.180   3.714  16.044  0.00  0.00    +0.000 A 
ATOM     21  C   UNL     1       5.745   4.601  16.990  0.00  0.00    +0.000 A 
BRANCH  16  24
ATOM     22  C   UNL     1       7.678   7.457  17.657  0.00  0.00    +0.000 C 
ATOM     23  O   UNL     1       7.071   8.264  16.967  0.00  0.00    +0.000 OA
ATOM     24  N   UNL     1       7.631   6.084  17.567  0.00  0.00    +0.000 N 
ATOM     25  H   UNL     1       8.123   5.580  18.290  0.00  0.00    +0.000 HD
BRANCH  22  27
ATOM     26  C   UNL     1       8.760   9.213  18.733  0.00  0.00    +0.000 C 
ATOM     27  O   UNL     1       8.457   7.814  18.712  0.00  0.00    +0.000 OA
ENDBRANCH  22  27
ENDBRANCH  16  24
ENDBRANCH   1  21
TORSDOF 4
ENDMDL
MODEL 2
REMARK VINA RESULT:      -7.3      2.141      4.551
REMARK  Name = 
REMARK  6 active torsions:
REMARK  status: ('A' for Active; 'I' for Inactive)
REMARK    1  A    between atoms: C_1  and  O_2
REMARK    2  A    between atoms: O_2  and  C_3
REMARK    3  A    between atoms: N_5  and  C_6
REMARK    4  A    between atoms: C_11  and  C_12
REMARK    5  A    between atoms: N_17  and  C_18
REMARK    6  A    between atoms: C_21  and  C_22
REMARK                            x       y       z     vdW  Elec       q    Type
REMARK                         _______ _______ _______ _____ _____    ______ ____
ROOT
ATOM      1  C   UNL     1       2.545   6.125  18.677  0.00  0.00    +0.000 C 
ATOM      2  O   UNL     1       2.662   5.973  17.457  0.00  0.00    +0.000 OA
ATOM      3  N   UNL     1       2.391   7.398  19.218  0.00  0.00    +0.000 N 
ATOM      4  C   UNL     1       2.353   8.540  18.296  0.00  0.00    +0.000 C 
ATOM      5  C   UNL     1       0.976   9.221  18.350  0.00  0.00    +0.000 C 
ATOM      6  N   UNL     1       0.667   9.639  19.749  0.00  0.00    +0.000 N 
ATOM      7  C   UNL     1       0.797   8.546  20.740  0.00  0.00    +0.000 C 
ATOM      8  C   UNL     1       2.168   7.824  20.608  0.00  0.00    +0.000 C 
ENDROOT
BRANCH   6   9
ATOM      9  C   UNL     1      -0.422  10.517  19.846  0.00  0.00    +0.000 A 
ATOM     10  C   UNL     1      -1.372  10.716  18.829  0.00  0.00    +0.000 A 
ATOM     11  C   UNL     1      -2.438  11.616  18.982  0.00  0.00    +0.000 A 
ATOM     12  C   UNL     1      -2.592  12.343  20.164  0.00  0.00    +0.000 A 
ATOM     13  C   UNL     1      -3.705  13.327  20.352  0.00  0.00    +0.000 C 
ATOM     14  C   UNL     1      -1.690  12.121  21.203  0.00  0.00    +0.000 A 
ATOM     15  C   UNL     1      -0.635  11.220  21.041  0.00  0.00    +0.000 A 
ENDBRANCH   6   9
BRANCH   1  21
ATOM     16  C   UNL     1       3.628   3.863  19.371  0.00  0.00    +0.000 A 
ATOM     17  C   UNL     1       3.533   2.746  20.222  0.00  0.00    +0.000 A 
ATOM     18  C   UNL     1       2.572   2.667  21.230  0.00  0.00    +0.000 A 
ATOM     19  C   UNL     1       1.675   3.705  21.406  0.00  0.00    +0.000 A 
ATOM     20  C   UNL     1       1.713   4.795  20.539  0.00  0.00    +0.000 A 
ATOM     21  C   UNL     1       2.663   4.882  19.493  0.00  0.00    +0.000 A 
BRANCH  16  24
ATOM     22  C   UNL     1       5.912   4.624  18.754  0.00  0.00    +0.000 C 
ATOM     23  O   UNL     1       6.231   5.192  19.790  0.00  0.00    +0.000 OA
ATOM     24  N   UNL     1       4.728   3.973  18.493  0.00  0.00    +0.000 N 
ATOM     25  H   UNL     1       4.686   3.474  17.617  0.00  0.00    +0.000 HD
BRANCH  22  27
ATOM     26  C   UNL     1       6.068   4.474  16.438  0.00  0.00    +0.000 C 
ATOM     27  O   UNL     1       6.752   4.478  17.695  0.00  0.00    +0.000 OA
ENDBRANCH  22  27
ENDBRANCH  16  24
ENDBRANCH   1  21
TORSDOF 4
ENDMDL
MODEL 3
REMARK VINA RESULT:      -7.3      2.158      4.579
REMARK  Name = 
REMARK  6 active torsions:
REMARK  status: ('A' for Active; 'I' for Inactive)
REMARK    1  A    between atoms: C_1  and  O_2
REMARK    2  A    between atoms: O_2  and  C_3
REMARK    3  A    between atoms: N_5  and  C_6
REMARK    4  A    between atoms: C_11  and  C_12
REMARK    5  A    between atoms: N_17  and  C_18
REMARK    6  A    between atoms: C_21  and  C_22
REMARK                            x       y       z     vdW  Elec       q    Type
REMARK                         _______ _______ _______ _____ _____    ______ ____
ROOT
ATOM      1  C   UNL     1       2.334   6.175  18.845  0.00  0.00    +0.000 C 
ATOM      2  O   UNL     1       2.480   6.111  17.621  0.00  0.00    +0.000 OA
ATOM      3  N   UNL     1       2.222   7.409  19.480  0.00  0.00    +0.000 N 
ATOM      4  C   UNL     1       2.263   8.618  18.647  0.00  0.00    +0.000 C 
ATOM      5  C   UNL     1       0.917   9.358  18.718  0.00  0.00    +0.000 C 
ATOM      6  N   UNL     1       0.587   9.682  20.137  0.00  0.00    +0.000 N 
ATOM      7  C   UNL     1       0.638   8.512  21.044  0.00  0.00    +0.000 C 
ATOM      8  C   UNL     1       1.979   7.738  20.892  0.00  0.00    +0.000 C 
ENDROOT
BRANCH   6   9
ATOM      9  C   UNL     1      -0.464  10.602  20.275  0.00  0.00    +0.000 A 
ATOM     10  C   UNL     1      -0.787  11.258  21.475  0.00  0.00    +0.000 A 
ATOM     11  C   UNL     1      -1.858  12.164  21.553  0.00  0.00    +0.000 A 
ATOM     12  C   UNL     1      -2.635  12.447  20.429  0.00  0.00    +0.000 A 
ATOM     13  C   UNL     1      -3.796  13.392  20.483  0.00  0.00    +0.000 C 
ATOM     14  C   UNL     1      -2.296  11.845  19.218  0.00  0.00    +0.000 A 
ATOM     15  C   UNL     1      -1.227  10.948  19.151  0.00  0.00    +0.000 A 
ENDBRANCH   6   9
BRANCH   1  21
ATOM     16  C   UNL     1       3.480   4.017  19.739  0.00  0.00    +0.000 A 
ATOM     17  C   UNL     1       3.287   2.801  20.422  0.00  0.00    +0.000 A 
ATOM     18  C   UNL     1       2.062   2.466  21.000  0.00  0.00    +0.000 A 
ATOM     19  C   UNL     1       0.996   3.340  20.903  0.00  0.00    +0.000 A 
ATOM     20  C   UNL     1       1.146   4.523  20.182  0.00  0.00    +0.000 A 
ATOM     21  C   UNL     1       2.372   4.869  19.566  0.00  0.00    +0.000 A 
BRANCH  16  24
ATOM     22  C   UNL     1       5.350   4.132  18.107  0.00  0.00    +0.000 C 
ATOM     23  O   UNL     1       4.828   3.577  17.150  0.00  0.00    +0.000 OA
ATOM     24  N   UNL     1       4.781   4.385  19.334  0.00  0.00    +0.000 N 
ATOM     25  H   UNL     1       5.332   4.946  19.966  0.00  0.00    +0.000 HD
BRANCH  22  27
ATOM     26  C   UNL     1       7.175   4.643  16.757  0.00  0.00    +0.000 C 
ATOM     27  O   UNL     1       6.595   4.677  18.065  0.00  0.00    +0.000 OA
ENDBRANCH  22  27
ENDBRANCH  16  24
ENDBRANCH   1  21
TORSDOF 4
ENDMDL
MODEL 4
REMARK VINA RESULT:      -7.2      2.332      4.541
REMARK  Name = 
REMARK  6 active torsions:
REMARK  status: ('A' for Active; 'I' for Inactive)
REMARK    1  A    between atoms: C_1  and  O_2
REMARK    2  A    between atoms: O_2  and  C_3
REMARK    3  A    between atoms: N_5  and  C_6
REMARK    4  A    between atoms: C_11  and  C_12
REMARK    5  A    between atoms: N_17  and  C_18
REMARK    6  A    between atoms: C_21  and  C_22
REMARK                            x       y       z     vdW  Elec       q    Type
REMARK                         _______ _______ _______ _____ _____    ______ ____
ROOT
ATOM      1  C   UNL     1       2.763   6.389  18.588  0.00  0.00    +0.000 C 
ATOM      2  O   UNL     1       3.111   6.309  17.407  0.00  0.00    +0.000 OA
ATOM      3  N   UNL     1       2.386   7.613  19.133  0.00  0.00    +0.000 N 
ATOM      4  C   UNL     1       2.399   8.791  18.256  0.00  0.00    +0.000 C 
ATOM      5  C   UNL     1       0.974   9.337  18.079  0.00  0.00    +0.000 C 
ATOM      6  N   UNL     1       0.378   9.654  19.410  0.00  0.00    +0.000 N 
ATOM      7  C   UNL     1       0.438   8.530  20.373  0.00  0.00    +0.000 C 
ATOM      8  C   UNL     1       1.877   7.946  20.471  0.00  0.00    +0.000 C 
ENDROOT
BRANCH   6   9
ATOM      9  C   UNL     1      -0.794  10.421  19.335  0.00  0.00    +0.000 A 
ATOM     10  C   UNL     1      -1.101  11.481  20.205  0.00  0.00    +0.000 A 
ATOM     11  C   UNL     1      -2.296  12.209  20.085  0.00  0.00    +0.000 A 
ATOM     12  C   UNL     1      -3.220  11.902  19.085  0.00  0.00    +0.000 A 
ATOM     13  C   UNL     1      -4.513  12.644  18.942  0.00  0.00    +0.000 C 
ATOM     14  C   UNL     1      -2.908  10.888  18.181  0.00  0.00    +0.000 A 
ATOM     15  C   UNL     1      -1.714  10.172  18.308  0.00  0.00    +0.000 A 
ENDBRANCH   6   9
BRANCH   1  21
ATOM     16  C   UNL     1       3.821   4.103  19.243  0.00  0.00    +0.000 A 
ATOM     17  C   UNL     1       3.702   2.964  20.060  0.00  0.00    +0.000 A 
ATOM     18  C   UNL     1       2.718   2.861  21.044  0.00  0.00    +0.000 A 
ATOM     19  C   UNL     1       1.823   3.898  21.229  0.00  0.00    +0.000 A 
ATOM     20  C   UNL     1       1.884   5.011  20.393  0.00  0.00    +0.000 A 
ATOM     21  C   UNL     1       2.858   5.123  19.372  0.00  0.00    +0.000 A 
BRANCH  16  24
ATOM     22  C   UNL     1       6.153   4.791  18.729  0.00  0.00    +0.000 C 
ATOM     23  O   UNL     1       6.484   5.242  19.817  0.00  0.00    +0.000 OA
ATOM     24  N   UNL     1       4.941   4.232  18.393  0.00  0.00    +0.000 N 
ATOM     25  H   UNL     1       4.887   3.820  17.474  0.00  0.00    +0.000 HD
BRANCH  22  27
ATOM     26  C   UNL     1       6.327   4.448  16.434  0.00  0.00    +0.000 C 
ATOM     27  O   UNL     1       7.003   4.696  17.671  0.00  0.00    +0.000 OA
ENDBRANCH  22  27
ENDBRANCH  16  24
ENDBRANCH   1  21
TORSDOF 4
ENDMDL
MODEL 5
REMARK VINA RESULT:      -7.1      2.250      4.053
REMARK  Name = 
REMARK  6 active torsions:
REMARK  status: ('A' for Active; 'I' for Inactive)
REMARK    1  A    between atoms: C_1  and  O_2
REMARK    2  A    between atoms: O_2  and  C_3
REMARK    3  A    between atoms: N_5  and  C_6
REMARK    4  A    between atoms: C_11  and  C_12
REMARK    5  A    between atoms: N_17  and  C_18
REMARK    6  A    between atoms: C_21  and  C_22
REMARK                            x       y       z     vdW  Elec       q    Type
REMARK                         _______ _______ _______ _____ _____    ______ ____
ROOT
ATOM      1  C   UNL     1       3.978   5.800  19.004  0.00  0.00    +0.000 C 
ATOM      2  O   UNL     1       4.335   5.424  20.124  0.00  0.00    +0.000 OA
ATOM      3  N   UNL     1       2.783   6.495  18.838  0.00  0.00    +0.000 N 
ATOM      4  C   UNL     1       1.981   6.780  20.035  0.00  0.00    +0.000 C 
ATOM      5  C   UNL     1       1.902   8.296  20.273  0.00  0.00    +0.000 C 
ATOM      6  N   UNL     1       1.344   8.975  19.067  0.00  0.00    +0.000 N 
ATOM      7  C   UNL     1       2.052   8.636  17.811  0.00  0.00    +0.000 C 
ATOM      8  C   UNL     1       2.186   7.096  17.636  0.00  0.00    +0.000 C 
ENDROOT
BRANCH   6   9
ATOM      9  C   UNL     1       0.966  10.307  19.294  0.00  0.00    +0.000 A 
ATOM     10  C   UNL     1      -0.020  10.702  20.215  0.00  0.00    +0.000 A 
ATOM     11  C   UNL     1      -0.361  12.053  20.393  0.00  0.00    +0.000 A 
ATOM     12  C   UNL     1       0.279  13.052  19.659  0.00  0.00    +0.000 A 
ATOM     13  C   UNL     1      -0.075  14.499  19.810  0.00  0.00    +0.000 C 
ATOM     14  C   UNL     1       1.296  12.683  18.779  0.00  0.00    +0.000 A 
ATOM     15  C   UNL     1       1.630  11.336  18.613  0.00  0.00    +0.000 A 
ENDBRANCH   6   9
BRANCH   1  21
ATOM     16  C   UNL     1       4.678   4.307  16.991  0.00  0.00    +0.000 A 
ATOM     17  C   UNL     1       5.663   4.066  16.015  0.00  0.00    +0.000 A 
ATOM     18  C   UNL     1       6.759   4.912  15.848  0.00  0.00    +0.000 A 
ATOM     19  C   UNL     1       6.899   6.021  16.662  0.00  0.00    +0.000 A 
ATOM     20  C   UNL     1       5.968   6.248  17.673  0.00  0.00    +0.000 A 
ATOM     21  C   UNL     1       4.863   5.387  17.876  0.00  0.00    +0.000 A 
BRANCH  16  24
ATOM     22  C   UNL     1       3.214   2.499  17.864  0.00  0.00    +0.000 C 
ATOM     23  O   UNL     1       3.902   2.103  18.795  0.00  0.00    +0.000 OA
ATOM     24  N   UNL     1       3.502   3.526  16.995  0.00  0.00    +0.000 N 
ATOM     25  H   UNL     1       2.765   3.777  16.352  0.00  0.00    +0.000 HD
BRANCH  22  27
ATOM     26  C   UNL     1       1.015   2.337  18.610  0.00  0.00    +0.000 C 
ATOM     27  O   UNL     1       1.972   2.014  17.595  0.00  0.00    +0.000 OA
ENDBRANCH  22  27
ENDBRANCH  16  24
ENDBRANCH   1  21
TORSDOF 4
ENDMDL
MODEL 6
REMARK VINA RESULT:      -7.0      2.126      4.654
REMARK  Name = 
REMARK  6 active torsions:
REMARK  status: ('A' for Active; 'I' for Inactive)
REMARK    1  A    between atoms: C_1  and  O_2
REMARK    2  A    between atoms: O_2  and  C_3
REMARK    3  A    between atoms: N_5  and  C_6
REMARK    4  A    between atoms: C_11  and  C_12
REMARK    5  A    between atoms: N_17  and  C_18
REMARK    6  A    between atoms: C_21  and  C_22
REMARK                            x       y       z     vdW  Elec       q    Type
REMARK                         _______ _______ _______ _____ _____    ______ ____
ROOT
ATOM      1  C   UNL     1       2.151   6.382  18.851  0.00  0.00    +0.000 C 
ATOM      2  O   UNL     1       2.099   6.425  17.619  0.00  0.00    +0.000 OA
ATOM      3  N   UNL     1       2.144   7.555  19.601  0.00  0.00    +0.000 N 
ATOM      4  C   UNL     1       2.054   8.832  18.881  0.00  0.00    +0.000 C 
ATOM      5  C   UNL     1       0.739   9.546  19.230  0.00  0.00    +0.000 C 
ATOM      6  N   UNL     1       0.640   9.743  20.706  0.00  0.00    +0.000 N 
ATOM      7  C   UNL     1       0.833   8.499  21.488  0.00  0.00    +0.000 C 
ATOM      8  C   UNL     1       2.130   7.757  21.057  0.00  0.00    +0.000 C 
ENDROOT
BRANCH   6   9
ATOM      9  C   UNL     1      -0.373  10.634  21.089  0.00  0.00    +0.000 A 
ATOM     10  C   UNL     1      -1.119  11.417  20.190  0.00  0.00    +0.000 A 
ATOM     11  C   UNL     1      -2.117  12.299  20.635  0.00  0.00    +0.000 A 
ATOM     12  C   UNL     1      -2.406  12.421  21.995  0.00  0.00    +0.000 A 
ATOM     13  C   UNL     1      -3.449  13.367  22.503  0.00  0.00    +0.000 C 
ATOM     14  C   UNL     1      -1.713  11.615  22.896  0.00  0.00    +0.000 A 
ATOM     15  C   UNL     1      -0.724  10.738  22.442  0.00  0.00    +0.000 A 
ENDBRANCH   6   9
BRANCH   1  21
ATOM     16  C   UNL     1       3.268   4.047  19.118  0.00  0.00    +0.000 A 
ATOM     17  C   UNL     1       3.204   2.800  19.769  0.00  0.00    +0.000 A 
ATOM     18  C   UNL     1       2.273   2.539  20.774  0.00  0.00    +0.000 A 
ATOM     19  C   UNL     1       1.376   3.522  21.150  0.00  0.00    +0.000 A 
ATOM     20  C   UNL     1       1.382   4.744  20.481  0.00  0.00    +0.000 A 
ATOM     21  C   UNL     1       2.301   5.019  19.440  0.00  0.00    +0.000 A 
BRANCH  16  24
ATOM     22  C   UNL     1       5.599   4.737  18.607  0.00  0.00    +0.000 C 
ATOM     23  O   UNL     1       6.018   4.921  19.742  0.00  0.00    +0.000 OA
ATOM     24  N   UNL     1       4.341   4.316  18.242  0.00  0.00    +0.000 N 
ATOM     25  H   UNL     1       4.211   4.122  17.261  0.00  0.00    +0.000 HD
BRANCH  22  27
ATOM     26  C   UNL     1       5.815   4.197  16.354  0.00  0.00    +0.000 C 
ATOM     27  O   UNL     1       6.379   4.846  17.498  0.00  0.00    +0.000 OA
ENDBRANCH  22  27
ENDBRANCH  16  24
ENDBRANCH   1  21
TORSDOF 4
ENDMDL
MODEL 7
REMARK VINA RESULT:      -7.0      2.170      3.635
REMARK  Name = 
REMARK  6 active torsions:
REMARK  status: ('A' for Active; 'I' for Inactive)
REMARK    1  A    between atoms: C_1  and  O_2
REMARK    2  A    between atoms: O_2  and  C_3
REMARK    3  A    between atoms: N_5  and  C_6
REMARK    4  A    between atoms: C_11  and  C_12
REMARK    5  A    between atoms: N_17  and  C_18
REMARK    6  A    between atoms: C_21  and  C_22
REMARK                            x       y       z     vdW  Elec       q    Type
REMARK                         _______ _______ _______ _____ _____    ______ ____
ROOT
ATOM      1  C   UNL     1       3.407   5.792  17.725  0.00  0.00    +0.000 C 
ATOM      2  O   UNL     1       3.818   5.990  16.578  0.00  0.00    +0.000 OA
ATOM      3  N   UNL     1       3.155   6.861  18.580  0.00  0.00    +0.000 N 
ATOM      4  C   UNL     1       3.373   8.219  18.068  0.00  0.00    +0.000 C 
ATOM      5  C   UNL     1       2.042   8.986  18.013  0.00  0.00    +0.000 C 
ATOM      6  N   UNL     1       1.408   9.007  19.364  0.00  0.00    +0.000 N 
ATOM      7  C   UNL     1       1.264   7.666  19.976  0.00  0.00    +0.000 C 
ATOM      8  C   UNL     1       2.608   6.883  19.945  0.00  0.00    +0.000 C 
ENDROOT
BRANCH   6   9
ATOM      9  C   UNL     1       0.349   9.921  19.476  0.00  0.00    +0.000 A 
ATOM     10  C   UNL     1      -0.543  10.228  18.434  0.00  0.00    +0.000 A 
ATOM     11  C   UNL     1      -1.580  11.159  18.604  0.00  0.00    +0.000 A 
ATOM     12  C   UNL     1      -1.762  11.808  19.826  0.00  0.00    +0.000 A 
ATOM     13  C   UNL     1      -2.845  12.821  20.034  0.00  0.00    +0.000 C 
ATOM     14  C   UNL     1      -0.920  11.477  20.886  0.00  0.00    +0.000 A 
ATOM     15  C   UNL     1       0.108  10.546  20.707  0.00  0.00    +0.000 A 
ENDBRANCH   6   9
BRANCH   1  21
ATOM     16  C   UNL     1       4.327   3.496  18.533  0.00  0.00    +0.000 A 
ATOM     17  C   UNL     1       4.004   2.158  18.831  0.00  0.00    +0.000 A 
ATOM     18  C   UNL     1       2.687   1.697  18.819  0.00  0.00    +0.000 A 
ATOM     19  C   UNL     1       1.659   2.566  18.501  0.00  0.00    +0.000 A 
ATOM     20  C   UNL     1       1.960   3.880  18.146  0.00  0.00    +0.000 A 
ATOM     21  C   UNL     1       3.292   4.359  18.126  0.00  0.00    +0.000 A 
BRANCH  16  24
ATOM     22  C   UNL     1       6.576   4.211  17.756  0.00  0.00    +0.000 C 
ATOM     23  O   UNL     1       6.418   4.124  16.546  0.00  0.00    +0.000 OA
ATOM     24  N   UNL     1       5.648   3.951  18.737  0.00  0.00    +0.000 N 
ATOM     25  H   UNL     1       5.929   4.178  19.680  0.00  0.00    +0.000 HD
BRANCH  22  27
ATOM     26  C   UNL     1       7.494   5.800  19.187  0.00  0.00    +0.000 C 
ATOM     27  O   UNL     1       7.719   4.678  18.327  0.00  0.00    +0.000 OA
ENDBRANCH  22  27
ENDBRANCH  16  24
ENDBRANCH   1  21
TORSDOF 4
ENDMDL
MODEL 8
REMARK VINA RESULT:      -7.0      2.354      3.851
REMARK  Name = 
REMARK  6 active torsions:
REMARK  status: ('A' for Active; 'I' for Inactive)
REMARK    1  A    between atoms: C_1  and  O_2
REMARK    2  A    between atoms: O_2  and  C_3
REMARK    3  A    between atoms: N_5  and  C_6
REMARK    4  A    between atoms: C_11  and  C_12
REMARK    5  A    between atoms: N_17  and  C_18
REMARK    6  A    between atoms: C_21  and  C_22
REMARK                            x       y       z     vdW  Elec       q    Type
REMARK                         _______ _______ _______ _____ _____    ______ ____
ROOT
ATOM      1  C   UNL     1       3.692   5.963  18.771  0.00  0.00    +0.000 C 
ATOM      2  O   UNL     1       4.160   5.492  19.811  0.00  0.00    +0.000 OA
ATOM      3  N   UNL     1       2.513   6.702  18.797  0.00  0.00    +0.000 N 
ATOM      4  C   UNL     1       1.863   6.917  20.097  0.00  0.00    +0.000 C 
ATOM      5  C   UNL     1       1.869   8.412  20.452  0.00  0.00    +0.000 C 
ATOM      6  N   UNL     1       1.202   9.198  19.372  0.00  0.00    +0.000 N 
ATOM      7  C   UNL     1       1.749   8.935  18.021  0.00  0.00    +0.000 C 
ATOM      8  C   UNL     1       1.805   7.410  17.720  0.00  0.00    +0.000 C 
ENDROOT
BRANCH   6   9
ATOM      9  C   UNL     1       0.903  10.518  19.738  0.00  0.00    +0.000 A 
ATOM     10  C   UNL     1       0.358  10.890  20.979  0.00  0.00    +0.000 A 
ATOM     11  C   UNL     1       0.072  12.230  21.286  0.00  0.00    +0.000 A 
ATOM     12  C   UNL     1       0.329  13.243  20.361  0.00  0.00    +0.000 A 
ATOM     13  C   UNL     1       0.016  14.679  20.648  0.00  0.00    +0.000 C 
ATOM     14  C   UNL     1       0.918  12.899  19.145  0.00  0.00    +0.000 A 
ATOM     15  C   UNL     1       1.201  11.562  18.852  0.00  0.00    +0.000 A 
ENDBRANCH   6   9
BRANCH   1  21
ATOM     16  C   UNL     1       4.857   4.336  17.107  0.00  0.00    +0.000 A 
ATOM     17  C   UNL     1       5.576   4.232  15.901  0.00  0.00    +0.000 A 
ATOM     18  C   UNL     1       5.792   5.333  15.073  0.00  0.00    +0.000 A 
ATOM     19  C   UNL     1       5.296   6.572  15.436  0.00  0.00    +0.000 A 
ATOM     20  C   UNL     1       4.631   6.711  16.653  0.00  0.00    +0.000 A 
ATOM     21  C   UNL     1       4.426   5.612  17.520  0.00  0.00    +0.000 A 
BRANCH  16  24
ATOM     22  C   UNL     1       3.293   2.527  17.780  0.00  0.00    +0.000 C 
ATOM     23  O   UNL     1       2.311   2.841  17.121  0.00  0.00    +0.000 OA
ATOM     24  N   UNL     1       4.513   3.163  17.812  0.00  0.00    +0.000 N 
ATOM     25  H   UNL     1       5.237   2.697  18.338  0.00  0.00    +0.000 HD
BRANCH  22  27
ATOM     26  C   UNL     1       4.152   1.568  19.718  0.00  0.00    +0.000 C 
ATOM     27  O   UNL     1       3.349   1.404  18.546  0.00  0.00    +0.000 OA
ENDBRANCH  22  27
ENDBRANCH  16  24
ENDBRANCH   1  21
TORSDOF 4
ENDMDL
MODEL 9
REMARK VINA RESULT:      -6.9      2.159      4.459
REMARK  Name = 
REMARK  6 active torsions:
REMARK  status: ('A' for Active; 'I' for Inactive)
REMARK    1  A    between atoms: C_1  and  O_2
REMARK    2  A    between atoms: O_2  and  C_3
REMARK    3  A    between atoms: N_5  and  C_6
REMARK    4  A    between atoms: C_11  and  C_12
REMARK    5  A    between atoms: N_17  and  C_18
REMARK    6  A    between atoms: C_21  and  C_22
REMARK                            x       y       z     vdW  Elec       q    Type
REMARK                         _______ _______ _______ _____ _____    ______ ____
ROOT
ATOM      1  C   UNL     1       2.146   6.460  18.906  0.00  0.00    +0.000 C 
ATOM      2  O   UNL     1       2.092   6.527  17.675  0.00  0.00    +0.000 OA
ATOM      3  N   UNL     1       2.125   7.618  19.679  0.00  0.00    +0.000 N 
ATOM      4  C   UNL     1       2.017   8.907  18.984  0.00  0.00    +0.000 C 
ATOM      5  C   UNL     1       0.692   9.597  19.349  0.00  0.00    +0.000 C 
ATOM      6  N   UNL     1       0.593   9.763  20.829  0.00  0.00    +0.000 N 
ATOM      7  C   UNL     1       0.804   8.507  21.585  0.00  0.00    +0.000 C 
ATOM      8  C   UNL     1       2.111   7.791  21.139  0.00  0.00    +0.000 C 
ENDROOT
BRANCH   6   9
ATOM      9  C   UNL     1      -0.432  10.633  21.230  0.00  0.00    +0.000 A 
ATOM     10  C   UNL     1      -0.828  10.825  22.565  0.00  0.00    +0.000 A 
ATOM     11  C   UNL     1      -1.868  11.705  22.906  0.00  0.00    +0.000 A 
ATOM     12  C   UNL     1      -2.540  12.428  21.919  0.00  0.00    +0.000 A 
ATOM     13  C   UNL     1      -3.667  13.359  22.246  0.00  0.00    +0.000 C 
ATOM     14  C   UNL     1      -2.126  12.291  20.596  0.00  0.00    +0.000 A 
ATOM     15  C   UNL     1      -1.088  11.414  20.269  0.00  0.00    +0.000 A 
ENDBRANCH   6   9
BRANCH   1  21
ATOM     16  C   UNL     1       3.306   4.142  19.138  0.00  0.00    +0.000 A 
ATOM     17  C   UNL     1       3.258   2.880  19.761  0.00  0.00    +0.000 A 
ATOM     18  C   UNL     1       2.320   2.580  20.749  0.00  0.00    +0.000 A 
ATOM     19  C   UNL     1       1.400   3.538  21.134  0.00  0.00    +0.000 A 
ATOM     20  C   UNL     1       1.390   4.773  20.491  0.00  0.00    +0.000 A 
ATOM     21  C   UNL     1       2.316   5.088  19.468  0.00  0.00    +0.000 A 
BRANCH  16  24
ATOM     22  C   UNL     1       5.636   4.868  18.672  0.00  0.00    +0.000 C 
ATOM     23  O   UNL     1       6.043   5.014  19.817  0.00  0.00    +0.000 OA
ATOM     24  N   UNL     1       4.384   4.451  18.281  0.00  0.00    +0.000 N 
ATOM     25  H   UNL     1       4.264   4.290  17.292  0.00  0.00    +0.000 HD
BRANCH  22  27
ATOM     26  C   UNL     1       7.315   6.138  17.681  0.00  0.00    +0.000 C 
ATOM     27  O   UNL     1       6.424   5.022  17.575  0.00  0.00    +0.000 OA
ENDBRANCH  22  27
ENDBRANCH  16  24
ENDBRANCH   1  21
TORSDOF 4
ENDMDL
