MODEL 1
REMARK VINA RESULT:      -7.1      0.000      0.000
REMARK  Name = 
REMARK  13 active torsions:
REMARK  status: ('A' for Active; 'I' for Inactive)
REMARK    1  A    between atoms: C_1  and  C_2
REMARK    2  A    between atoms: C_5  and  N_6
REMARK    3  A    between atoms: N_9  and  C_10
REMARK    4  A    between atoms: N_9  and  C_15
REMARK    5  A    between atoms: C_10  and  C_11
REMARK    6  A    between atoms: C_11  and  C_12
REMARK    7  A    between atoms: C_12  and  C_13
REMARK    8  A    between atoms: C_12  and  C_14
REMARK    9  A    between atoms: C_15  and  C_16
REMARK   10  A    between atoms: C_16  and  C_17
REMARK   11  A    between atoms: C_17  and  C_18
REMARK   12  A    between atoms: C_17  and  C_19
REMARK   13  A    between atoms: C_20  and  C_21
REMARK                            x       y       z     vdW  Elec       q    Type
REMARK                         _______ _______ _______ _____ _____    ______ ____
ROOT
ATOM      1  N   UNL     1       4.230   3.592  17.568  0.00  0.00    +0.000 N 
ATOM      2  C   UNL     1       4.567   4.887  17.237  0.00  0.00    +0.000 C 
ATOM      3  O   UNL     1       4.156   5.876  17.843  0.00  0.00    +0.000 OA
ATOM      4  N   UNL     1       5.495   4.999  16.191  0.00  0.00    +0.000 N 
ATOM      5  H   UNL     1       4.915   2.911  17.304  0.00  0.00    +0.000 HD
ENDROOT
BRANCH   1  10
ATOM      6  C   UNL     1       1.135   2.454  22.260  0.00  0.00    +0.000 C 
ATOM      7  C   UNL     1       1.953   2.721  21.034  0.00  0.00    +0.000 A 
ATOM      8  C   UNL     1       3.323   2.452  20.999  0.00  0.00    +0.000 A 
ATOM      9  C   UNL     1       4.067   2.708  19.844  0.00  0.00    +0.000 A 
ATOM     10  C   UNL     1       3.456   3.251  18.702  0.00  0.00    +0.000 A 
ATOM     11  C   UNL     1       2.074   3.509  18.714  0.00  0.00    +0.000 A 
ATOM     12  C   UNL     1       1.294   3.969  17.515  0.00  0.00    +0.000 C 
ATOM     13  C   UNL     1       1.338   3.235  19.886  0.00  0.00    +0.000 A 
ENDBRANCH   1  10
BRANCH   4  14
ATOM     14  C   UNL     1       5.814   3.946  15.211  0.00  0.00    +0.000 C 
BRANCH  14  15
ATOM     15  C   UNL     1       5.314   4.291  13.805  0.00  0.00    +0.000 C 
BRANCH  15  16
ATOM     16  C   UNL     1       5.899   3.385  12.701  0.00  0.00    +0.000 C 
ATOM     17  C   UNL     1       4.873   3.024  11.625  0.00  0.00    +0.000 C 
ATOM     18  C   UNL     1       7.102   4.070  12.047  0.00  0.00    +0.000 C 
ENDBRANCH  15  16
ENDBRANCH  14  15
ENDBRANCH   4  14
BRANCH   4  19
ATOM     19  C   UNL     1       6.032   6.334  15.920  0.00  0.00    +0.000 C 
BRANCH  19  20
ATOM     20  C   UNL     1       7.414   6.580  16.556  0.00  0.00    +0.000 C 
BRANCH  20  21
ATOM     21  C   UNL     1       7.405   7.151  17.985  0.00  0.00    +0.000 C 
ATOM     22  C   UNL     1       7.937   6.161  19.023  0.00  0.00    +0.000 C 
ATOM     23  C   UNL     1       8.247   8.433  18.037  0.00  0.00    +0.000 C 
ENDBRANCH  20  21
ENDBRANCH  19  20
ENDBRANCH   4  19
TORSDOF 7
ENDMDL
MODEL 2
REMARK VINA RESULT:      -7.0      1.231      4.479
REMARK  Name = 
REMARK  13 active torsions:
REMARK  status: ('A' for Active; 'I' for Inactive)
REMARK    1  A    between atoms: C_1  and  C_2
REMARK    2  A    between atoms: C_5  and  N_6
REMARK    3  A    between atoms: N_9  and  C_10
REMARK    4  A    between atoms: N_9  and  C_15
REMARK    5  A    between atoms: C_10  and  C_11
REMARK    6  A    between atoms: C_11  and  C_12
REMARK    7  A    between atoms: C_12  and  C_13
REMARK    8  A    between atoms: C_12  and  C_14
REMARK    9  A    between atoms: C_15  and  C_16
REMARK   10  A    between atoms: C_16  and  C_17
REMARK   11  A    between atoms: C_17  and  C_18
REMARK   12  A    between atoms: C_17  and  C_19
REMARK   13  A    between atoms: C_20  and  C_21
REMARK                            x       y       z     vdW  Elec       q    Type
REMARK                         _______ _______ _______ _____ _____    ______ ____
ROOT
ATOM      1  N   UNL     1       5.085   4.247  18.136  0.00  0.00    +0.000 N 
ATOM      2  C   UNL     1       4.881   4.124  16.778  0.00  0.00    +0.000 C 
ATOM      3  O   UNL     1       3.888   3.593  16.282  0.00  0.00    +0.000 OA
ATOM      4  N   UNL     1       5.865   4.729  15.983  0.00  0.00    +0.000 N 
ATOM      5  H   UNL     1       5.665   5.021  18.393  0.00  0.00    +0.000 HD
ENDROOT
BRANCH   1  10
ATOM      6  C   UNL     1       1.381   2.788  22.264  0.00  0.00    +0.000 C 
ATOM      7  C   UNL     1       2.338   3.146  21.168  0.00  0.00    +0.000 A 
ATOM      8  C   UNL     1       3.243   2.212  20.658  0.00  0.00    +0.000 A 
ATOM      9  C   UNL     1       4.127   2.567  19.635  0.00  0.00    +0.000 A 
ATOM     10  C   UNL     1       4.129   3.869  19.108  0.00  0.00    +0.000 A 
ATOM     11  C   UNL     1       3.211   4.815  19.596  0.00  0.00    +0.000 A 
ATOM     12  C   UNL     1       3.038   6.193  19.024  0.00  0.00    +0.000 C 
ATOM     13  C   UNL     1       2.321   4.434  20.622  0.00  0.00    +0.000 A 
ENDBRANCH   1  10
BRANCH   4  14
ATOM     14  C   UNL     1       7.216   5.110  16.431  0.00  0.00    +0.000 C 
BRANCH  14  15
ATOM     15  C   UNL     1       7.406   6.629  16.473  0.00  0.00    +0.000 C 
BRANCH  15  16
ATOM     16  C   UNL     1       7.369   7.219  17.899  0.00  0.00    +0.000 C 
ATOM     17  C   UNL     1       7.926   6.259  18.952  0.00  0.00    +0.000 C 
ATOM     18  C   UNL     1       8.154   8.532  17.942  0.00  0.00    +0.000 C 
ENDBRANCH  15  16
ENDBRANCH  14  15
ENDBRANCH   4  14
BRANCH   4  19
ATOM     19  C   UNL     1       5.608   4.795  14.542  0.00  0.00    +0.000 C 
BRANCH  19  20
ATOM     20  C   UNL     1       6.129   3.567  13.770  0.00  0.00    +0.000 C 
BRANCH  20  21
ATOM     21  C   UNL     1       6.068   3.662  12.235  0.00  0.00    +0.000 C 
ATOM     22  C   UNL     1       7.164   2.848  11.546  0.00  0.00    +0.000 C 
ATOM     23  C   UNL     1       4.698   3.180  11.739  0.00  0.00    +0.000 C 
ENDBRANCH  20  21
ENDBRANCH  19  20
ENDBRANCH   4  19
TORSDOF 7
ENDMDL
MODEL 3
REMARK VINA RESULT:      -7.0      3.799      5.986
REMARK  Name = 
REMARK  13 active torsions:
REMARK  status: ('A' for Active; 'I' for Inactive)
REMARK    1  A    between atoms: C_1  and  C_2
REMARK    2  A    between atoms: C_5  and  N_6
REMARK    3  A    between atoms: N_9  and  C_10
REMARK    4  A    between atoms: N_9  and  C_15
REMARK    5  A    between atoms: C_10  and  C_11
REMARK    6  A    between atoms: C_11  and  C_12
REMARK    7  A    between atoms: C_12  and  C_13
REMARK    8  A    between atoms: C_12  and  C_14
REMARK    9  A    between atoms: C_15  and  C_16
REMARK   10  A    between atoms: C_16  and  C_17
REMARK   11  A    between atoms: C_17  and  C_18
REMARK   12  A    between atoms: C_17  and  C_19
REMARK   13  A    between atoms: C_20  and  C_21
REMARK                            x       y       z     vdW  Elec       q    Type
REMARK                         _______ _______ _______ _____ _____    ______ ____
ROOT
ATOM      1  N   UNL     1       2.961   6.659  19.856  0.00  0.00    +0.000 N 
ATOM      2  C   UNL     1       2.741   5.346  20.213  0.00  0.00    +0.000 C 
ATOM      3  O   UNL     1       1.705   4.947  20.744  0.00  0.00    +0.000 OA
ATOM      4  N   UNL     1       3.768   4.463  19.850  0.00  0.00    +0.000 N 
ATOM      5  H   UNL     1       3.604   6.774  19.098  0.00  0.00    +0.000 HD
ENDROOT
BRANCH   1  10
ATOM      6  C   UNL     1      -0.823  10.935  20.402  0.00  0.00    +0.000 C 
ATOM      7  C   UNL     1       0.143   9.797  20.266  0.00  0.00    +0.000 A 
ATOM      8  C   UNL     1       0.336   8.878  21.299  0.00  0.00    +0.000 A 
ATOM      9  C   UNL     1       1.241   7.823  21.151  0.00  0.00    +0.000 A 
ATOM     10  C   UNL     1       1.981   7.674  19.967  0.00  0.00    +0.000 A 
ATOM     11  C   UNL     1       1.784   8.579  18.909  0.00  0.00    +0.000 A 
ATOM     12  C   UNL     1       2.424   8.445  17.556  0.00  0.00    +0.000 C 
ATOM     13  C   UNL     1       0.859   9.631  19.075  0.00  0.00    +0.000 A 
ENDBRANCH   1  10
BRANCH   4  14
ATOM     14  C   UNL     1       5.147   4.847  19.504  0.00  0.00    +0.000 C 
BRANCH  14  15
ATOM     15  C   UNL     1       5.375   4.888  17.990  0.00  0.00    +0.000 C 
BRANCH  15  16
ATOM     16  C   UNL     1       5.608   6.311  17.438  0.00  0.00    +0.000 C 
ATOM     17  C   UNL     1       7.069   6.754  17.536  0.00  0.00    +0.000 C 
ATOM     18  C   UNL     1       5.151   6.386  15.978  0.00  0.00    +0.000 C 
ENDBRANCH  15  16
ENDBRANCH  14  15
ENDBRANCH   4  14
BRANCH   4  19
ATOM     19  C   UNL     1       3.510   3.032  20.033  0.00  0.00    +0.000 C 
BRANCH  19  20
ATOM     20  C   UNL     1       3.508   2.236  18.715  0.00  0.00    +0.000 C 
BRANCH  20  21
ATOM     21  C   UNL     1       2.206   2.291  17.896  0.00  0.00    +0.000 C 
ATOM     22  C   UNL     1       0.952   2.258  18.771  0.00  0.00    +0.000 C 
ATOM     23  C   UNL     1       2.185   3.564  17.038  0.00  0.00    +0.000 C 
ENDBRANCH  20  21
ENDBRANCH  19  20
ENDBRANCH   4  19
TORSDOF 7
ENDMDL
MODEL 4
REMARK VINA RESULT:      -7.0      3.968      6.163
REMARK  Name = 
REMARK  13 active torsions:
REMARK  status: ('A' for Active; 'I' for Inactive)
REMARK    1  A    between atoms: C_1  and  C_2
REMARK    2  A    between atoms: C_5  and  N_6
REMARK    3  A    between atoms: N_9  and  C_10
REMARK    4  A    between atoms: N_9  and  C_15
REMARK    5  A    between atoms: C_10  and  C_11
REMARK    6  A    between atoms: C_11  and  C_12
REMARK    7  A    between atoms: C_12  and  C_13
REMARK    8  A    between atoms: C_12  and  C_14
REMARK    9  A    between atoms: C_15  and  C_16
REMARK   10  A    between atoms: C_16  and  C_17
REMARK   11  A    between atoms: C_17  and  C_18
REMARK   12  A    between atoms: C_17  and  C_19
REMARK   13  A    between atoms: C_20  and  C_21
REMARK                            x       y       z     vdW  Elec       q    Type
REMARK                         _______ _______ _______ _____ _____    ______ ____
ROOT
ATOM      1  N   UNL     1       2.791   6.933  19.800  0.00  0.00    +0.000 N 
ATOM      2  C   UNL     1       2.461   5.699  19.278  0.00  0.00    +0.000 C 
ATOM      3  O   UNL     1       1.306   5.340  19.054  0.00  0.00    +0.000 OA
ATOM      4  N   UNL     1       3.561   4.897  18.940  0.00  0.00    +0.000 N 
ATOM      5  H   UNL     1       3.706   7.252  19.548  0.00  0.00    +0.000 HD
ENDROOT
BRANCH   1  10
ATOM      6  C   UNL     1      -0.841  11.242  20.861  0.00  0.00    +0.000 C 
ATOM      7  C   UNL     1       0.085  10.096  20.591  0.00  0.00    +0.000 A 
ATOM      8  C   UNL     1       0.332   9.116  21.555  0.00  0.00    +0.000 A 
ATOM      9  C   UNL     1       1.199   8.054  21.282  0.00  0.00    +0.000 A 
ATOM     10  C   UNL     1       1.846   7.958  20.039  0.00  0.00    +0.000 A 
ATOM     11  C   UNL     1       1.593   8.926  19.050  0.00  0.00    +0.000 A 
ATOM     12  C   UNL     1       2.128   8.856  17.649  0.00  0.00    +0.000 C 
ATOM     13  C   UNL     1       0.707   9.984  19.342  0.00  0.00    +0.000 A 
ENDBRANCH   1  10
BRANCH   4  14
ATOM     14  C   UNL     1       4.938   5.077  19.430  0.00  0.00    +0.000 C 
BRANCH  14  15
ATOM     15  C   UNL     1       5.953   5.173  18.287  0.00  0.00    +0.000 C 
BRANCH  15  16
ATOM     16  C   UNL     1       5.954   6.541  17.572  0.00  0.00    +0.000 C 
ATOM     17  C   UNL     1       7.360   7.118  17.397  0.00  0.00    +0.000 C 
ATOM     18  C   UNL     1       5.281   6.415  16.203  0.00  0.00    +0.000 C 
ENDBRANCH  15  16
ENDBRANCH  14  15
ENDBRANCH   4  14
BRANCH   4  19
ATOM     19  C   UNL     1       3.279   3.658  18.211  0.00  0.00    +0.000 C 
BRANCH  19  20
ATOM     20  C   UNL     1       3.350   2.398  19.094  0.00  0.00    +0.000 C 
BRANCH  20  21
ATOM     21  C   UNL     1       2.014   1.918  19.691  0.00  0.00    +0.000 C 
ATOM     22  C   UNL     1       1.703   2.560  21.043  0.00  0.00    +0.000 C 
ATOM     23  C   UNL     1       0.870   2.224  18.715  0.00  0.00    +0.000 C 
ENDBRANCH  20  21
ENDBRANCH  19  20
ENDBRANCH   4  19
TORSDOF 7
ENDMDL
MODEL 5
REMARK VINA RESULT:      -6.9      4.635      6.242
REMARK  Name = 
REMARK  13 active torsions:
REMARK  status: ('A' for Active; 'I' for Inactive)
REMARK    1  A    between atoms: C_1  and  C_2
REMARK    2  A    between atoms: C_5  and  N_6
REMARK    3  A    between atoms: N_9  and  C_10
REMARK    4  A    between atoms: N_9  and  C_15
REMARK    5  A    between atoms: C_10  and  C_11
REMARK    6  A    between atoms: C_11  and  C_12
REMARK    7  A    between atoms: C_12  and  C_13
REMARK    8  A    between atoms: C_12  and  C_14
REMARK    9  A    between atoms: C_15  and  C_16
REMARK   10  A    between atoms: C_16  and  C_17
REMARK   11  A    between atoms: C_17  and  C_18
REMARK   12  A    between atoms: C_17  and  C_19
REMARK   13  A    between atoms: C_20  and  C_21
REMARK                            x       y       z     vdW  Elec       q    Type
REMARK                         _______ _______ _______ _____ _____    ______ ____
ROOT
ATOM      1  N   UNL     1       2.079   8.038  19.690  0.00  0.00    +0.000 N 
ATOM      2  C   UNL     1       2.251   6.678  19.845  0.00  0.00    +0.000 C 
ATOM      3  O   UNL     1       1.718   6.020  20.738  0.00  0.00    +0.000 OA
ATOM      4  N   UNL     1       3.028   6.072  18.848  0.00  0.00    +0.000 N 
ATOM      5  H   UNL     1       2.198   8.360  18.750  0.00  0.00    +0.000 HD
ENDROOT
BRANCH   1  10
ATOM      6  C   UNL     1      -1.333  11.345  22.900  0.00  0.00    +0.000 C 
ATOM      7  C   UNL     1      -0.455  10.456  22.074  0.00  0.00    +0.000 A 
ATOM      8  C   UNL     1       0.361   9.488  22.663  0.00  0.00    +0.000 A 
ATOM      9  C   UNL     1       1.173   8.668  21.874  0.00  0.00    +0.000 A 
ATOM     10  C   UNL     1       1.190   8.808  20.476  0.00  0.00    +0.000 A 
ATOM     11  C   UNL     1       0.359   9.764  19.866  0.00  0.00    +0.000 A 
ATOM     12  C   UNL     1       0.203   9.916  18.380  0.00  0.00    +0.000 C 
ATOM     13  C   UNL     1      -0.459  10.575  20.679  0.00  0.00    +0.000 A 
ENDBRANCH   1  10
BRANCH   4  14
ATOM     14  C   UNL     1       3.949   6.769  17.934  0.00  0.00    +0.000 C 
BRANCH  14  15
ATOM     15  C   UNL     1       5.337   6.122  17.903  0.00  0.00    +0.000 C 
BRANCH  15  16
ATOM     16  C   UNL     1       5.812   5.745  16.484  0.00  0.00    +0.000 C 
ATOM     17  C   UNL     1       5.622   4.260  16.169  0.00  0.00    +0.000 C 
ATOM     18  C   UNL     1       5.068   6.585  15.443  0.00  0.00    +0.000 C 
ENDBRANCH  15  16
ENDBRANCH  14  15
ENDBRANCH   4  14
BRANCH   4  19
ATOM     19  C   UNL     1       3.091   4.608  18.854  0.00  0.00    +0.000 C 
BRANCH  19  20
ATOM     20  C   UNL     1       2.267   3.954  17.728  0.00  0.00    +0.000 C 
BRANCH  20  21
ATOM     21  C   UNL     1       2.053   2.434  17.845  0.00  0.00    +0.000 C 
ATOM     22  C   UNL     1       3.312   1.691  18.294  0.00  0.00    +0.000 C 
ATOM     23  C   UNL     1       0.919   2.145  18.838  0.00  0.00    +0.000 C 
ENDBRANCH  20  21
ENDBRANCH  19  20
ENDBRANCH   4  19
TORSDOF 7
ENDMDL
MODEL 6
REMARK VINA RESULT:      -6.8      3.475      7.087
REMARK  Name = 
REMARK  13 active torsions:
REMARK  status: ('A' for Active; 'I' for Inactive)
REMARK    1  A    between atoms: C_1  and  C_2
REMARK    2  A    between atoms: C_5  and  N_6
REMARK    3  A    between atoms: N_9  and  C_10
REMARK    4  A    between atoms: N_9  and  C_15
REMARK    5  A    between atoms: C_10  and  C_11
REMARK    6  A    between atoms: C_11  and  C_12
REMARK    7  A    between atoms: C_12  and  C_13
REMARK    8  A    between atoms: C_12  and  C_14
REMARK    9  A    between atoms: C_15  and  C_16
REMARK   10  A    between atoms: C_16  and  C_17
REMARK   11  A    between atoms: C_17  and  C_18
REMARK   12  A    between atoms: C_17  and  C_19
REMARK   13  A    between atoms: C_20  and  C_21
REMARK                            x       y       z     vdW  Elec       q    Type
REMARK                         _______ _______ _______ _____ _____    ______ ____
ROOT
ATOM      1  N   UNL     1       3.572   5.599  18.326  0.00  0.00    +0.000 N 
ATOM      2  C   UNL     1       3.078   6.852  18.622  0.00  0.00    +0.000 C 
ATOM      3  O   UNL     1       3.305   7.853  17.944  0.00  0.00    +0.000 OA
ATOM      4  N   UNL     1       2.216   6.892  19.728  0.00  0.00    +0.000 N 
ATOM      5  H   UNL     1       3.009   4.846  18.670  0.00  0.00    +0.000 HD
ENDROOT
BRANCH   1  10
ATOM      6  C   UNL     1       6.781   4.407  13.725  0.00  0.00    +0.000 C 
ATOM      7  C   UNL     1       5.923   4.735  14.908  0.00  0.00    +0.000 A 
ATOM      8  C   UNL     1       5.654   6.058  15.268  0.00  0.00    +0.000 A 
ATOM      9  C   UNL     1       4.851   6.342  16.377  0.00  0.00    +0.000 A 
ATOM     10  C   UNL     1       4.309   5.306  17.155  0.00  0.00    +0.000 A 
ATOM     11  C   UNL     1       4.555   3.968  16.794  0.00  0.00    +0.000 A 
ATOM     12  C   UNL     1       3.928   2.785  17.475  0.00  0.00    +0.000 C 
ATOM     13  C   UNL     1       5.360   3.703  15.667  0.00  0.00    +0.000 A 
ENDBRANCH   1  10
BRANCH   4  14
ATOM     14  C   UNL     1       2.114   5.861  20.774  0.00  0.00    +0.000 C 
BRANCH  14  15
ATOM     15  C   UNL     1       1.026   4.827  20.467  0.00  0.00    +0.000 C 
BRANCH  15  16
ATOM     16  C   UNL     1       1.564   3.388  20.319  0.00  0.00    +0.000 C 
ATOM     17  C   UNL     1       1.537   2.607  21.634  0.00  0.00    +0.000 C 
ATOM     18  C   UNL     1       0.752   2.634  19.263  0.00  0.00    +0.000 C 
ENDBRANCH  15  16
ENDBRANCH  14  15
ENDBRANCH   4  14
BRANCH   4  19
ATOM     19  C   UNL     1       1.515   8.154  19.977  0.00  0.00    +0.000 C 
BRANCH  19  20
ATOM     20  C   UNL     1       1.124   8.357  21.453  0.00  0.00    +0.000 C 
BRANCH  20  21
ATOM     21  C   UNL     1       0.554   9.740  21.815  0.00  0.00    +0.000 C 
ATOM     22  C   UNL     1      -0.369  10.304  20.733  0.00  0.00    +0.000 C 
ATOM     23  C   UNL     1      -0.219   9.653  23.138  0.00  0.00    +0.000 C 
ENDBRANCH  20  21
ENDBRANCH  19  20
ENDBRANCH   4  19
TORSDOF 7
ENDMDL
MODEL 7
REMARK VINA RESULT:      -6.8      0.949      4.343
REMARK  Name = 
REMARK  13 active torsions:
REMARK  status: ('A' for Active; 'I' for Inactive)
REMARK    1  A    between atoms: C_1  and  C_2
REMARK    2  A    between atoms: C_5  and  N_6
REMARK    3  A    between atoms: N_9  and  C_10
REMARK    4  A    between atoms: N_9  and  C_15
REMARK    5  A    between atoms: C_10  and  C_11
REMARK    6  A    between atoms: C_11  and  C_12
REMARK    7  A    between atoms: C_12  and  C_13
REMARK    8  A    between atoms: C_12  and  C_14
REMARK    9  A    between atoms: C_15  and  C_16
REMARK   10  A    between atoms: C_16  and  C_17
REMARK   11  A    between atoms: C_17  and  C_18
REMARK   12  A    between atoms: C_17  and  C_19
REMARK   13  A    between atoms: C_20  and  C_21
REMARK                            x       y       z     vdW  Elec       q    Type
REMARK                         _______ _______ _______ _____ _____    ______ ____
ROOT
ATOM      1  N   UNL     1       4.072   4.867  17.788  0.00  0.00    +0.000 N 
ATOM      2  C   UNL     1       4.907   4.245  16.884  0.00  0.00    +0.000 C 
ATOM      3  O   UNL     1       5.178   3.045  16.919  0.00  0.00    +0.000 OA
ATOM      4  N   UNL     1       5.373   5.075  15.854  0.00  0.00    +0.000 N 
ATOM      5  H   UNL     1       3.617   5.683  17.429  0.00  0.00    +0.000 HD
ENDROOT
BRANCH   1  10
ATOM      6  C   UNL     1       1.131   2.299  21.989  0.00  0.00    +0.000 C 
ATOM      7  C   UNL     1       1.916   2.944  20.888  0.00  0.00    +0.000 A 
ATOM      8  C   UNL     1       3.308   3.042  20.947  0.00  0.00    +0.000 A 
ATOM      9  C   UNL     1       4.022   3.647  19.909  0.00  0.00    +0.000 A 
ATOM     10  C   UNL     1       3.353   4.177  18.793  0.00  0.00    +0.000 A 
ATOM     11  C   UNL     1       1.954   4.069  18.708  0.00  0.00    +0.000 A 
ATOM     12  C   UNL     1       1.149   4.485  17.510  0.00  0.00    +0.000 C 
ATOM     13  C   UNL     1       1.253   3.446  19.762  0.00  0.00    +0.000 A 
ENDBRANCH   1  10
BRANCH   4  14
ATOM     14  C   UNL     1       5.376   6.548  15.873  0.00  0.00    +0.000 C 
BRANCH  14  15
ATOM     15  C   UNL     1       5.847   7.110  17.217  0.00  0.00    +0.000 C 
BRANCH  15  16
ATOM     16  C   UNL     1       7.370   6.988  17.440  0.00  0.00    +0.000 C 
ATOM     17  C   UNL     1       8.035   8.332  17.745  0.00  0.00    +0.000 C 
ATOM     18  C   UNL     1       7.654   6.009  18.582  0.00  0.00    +0.000 C 
ENDBRANCH  15  16
ENDBRANCH  14  15
ENDBRANCH   4  14
BRANCH   4  19
ATOM     19  C   UNL     1       6.109   4.430  14.764  0.00  0.00    +0.000 C 
BRANCH  19  20
ATOM     20  C   UNL     1       5.231   4.100  13.543  0.00  0.00    +0.000 C 
BRANCH  20  21
ATOM     21  C   UNL     1       5.887   3.228  12.456  0.00  0.00    +0.000 C 
ATOM     22  C   UNL     1       4.906   2.800  11.365  0.00  0.00    +0.000 C 
ATOM     23  C   UNL     1       7.052   3.993  11.812  0.00  0.00    +0.000 C 
ENDBRANCH  20  21
ENDBRANCH  19  20
ENDBRANCH   4  19
TORSDOF 7
ENDMDL
MODEL 8
REMARK VINA RESULT:      -6.8      3.364      5.778
REMARK  Name = 
REMARK  13 active torsions:
REMARK  status: ('A' for Active; 'I' for Inactive)
REMARK    1  A    between atoms: C_1  and  C_2
REMARK    2  A    between atoms: C_5  and  N_6
REMARK    3  A    between atoms: N_9  and  C_10
REMARK    4  A    between atoms: N_9  and  C_15
REMARK    5  A    between atoms: C_10  and  C_11
REMARK    6  A    between atoms: C_11  and  C_12
REMARK    7  A    between atoms: C_12  and  C_13
REMARK    8  A    between atoms: C_12  and  C_14
REMARK    9  A    between atoms: C_15  and  C_16
REMARK   10  A    between atoms: C_16  and  C_17
REMARK   11  A    between atoms: C_17  and  C_18
REMARK   12  A    between atoms: C_17  and  C_19
REMARK   13  A    between atoms: C_20  and  C_21
REMARK                            x       y       z     vdW  Elec       q    Type
REMARK                         _______ _______ _______ _____ _____    ______ ____
ROOT
ATOM      1  N   UNL     1       2.799   6.213  18.022  0.00  0.00    +0.000 N 
ATOM      2  C   UNL     1       4.064   6.023  17.507  0.00  0.00    +0.000 C 
ATOM      3  O   UNL     1       4.860   6.938  17.299  0.00  0.00    +0.000 OA
ATOM      4  N   UNL     1       4.417   4.681  17.308  0.00  0.00    +0.000 N 
ATOM      5  H   UNL     1       2.437   5.422  18.518  0.00  0.00    +0.000 HD
ENDROOT
BRANCH   1  10
ATOM      6  C   UNL     1       0.592  11.227  19.720  0.00  0.00    +0.000 C 
ATOM      7  C   UNL     1       1.196   9.931  19.270  0.00  0.00    +0.000 A 
ATOM      8  C   UNL     1       1.764   9.794  18.002  0.00  0.00    +0.000 A 
ATOM      9  C   UNL     1       2.322   8.576  17.603  0.00  0.00    +0.000 A 
ATOM     10  C   UNL     1       2.313   7.466  18.464  0.00  0.00    +0.000 A 
ATOM     11  C   UNL     1       1.763   7.594  19.752  0.00  0.00    +0.000 A 
ATOM     12  C   UNL     1       1.812   6.516  20.797  0.00  0.00    +0.000 C 
ATOM     13  C   UNL     1       1.213   8.833  20.139  0.00  0.00    +0.000 A 
ENDBRANCH   1  10
BRANCH   4  14
ATOM     14  C   UNL     1       3.478   3.549  17.225  0.00  0.00    +0.000 C 
BRANCH  14  15
ATOM     15  C   UNL     1       3.375   2.782  18.547  0.00  0.00    +0.000 C 
BRANCH  15  16
ATOM     16  C   UNL     1       2.087   3.085  19.340  0.00  0.00    +0.000 C 
ATOM     17  C   UNL     1       0.855   2.389  18.759  0.00  0.00    +0.000 C 
ATOM     18  C   UNL     1       2.263   2.669  20.803  0.00  0.00    +0.000 C 
ENDBRANCH  15  16
ENDBRANCH  14  15
ENDBRANCH   4  14
BRANCH   4  19
ATOM     19  C   UNL     1       5.809   4.409  16.942  0.00  0.00    +0.000 C 
BRANCH  19  20
ATOM     20  C   UNL     1       5.955   3.642  15.614  0.00  0.00    +0.000 C 
BRANCH  20  21
ATOM     21  C   UNL     1       5.954   4.502  14.336  0.00  0.00    +0.000 C 
ATOM     22  C   UNL     1       7.329   5.087  14.014  0.00  0.00    +0.000 C 
ATOM     23  C   UNL     1       5.474   3.661  13.145  0.00  0.00    +0.000 C 
ENDBRANCH  20  21
ENDBRANCH  19  20
ENDBRANCH   4  19
TORSDOF 7
ENDMDL
MODEL 9
REMARK VINA RESULT:      -6.7      1.177      4.469
REMARK  Name = 
REMARK  13 active torsions:
REMARK  status: ('A' for Active; 'I' for Inactive)
REMARK    1  A    between atoms: C_1  and  C_2
REMARK    2  A    between atoms: C_5  and  N_6
REMARK    3  A    between atoms: N_9  and  C_10
REMARK    4  A    between atoms: N_9  and  C_15
REMARK    5  A    between atoms: C_10  and  C_11
REMARK    6  A    between atoms: C_11  and  C_12
REMARK    7  A    between atoms: C_12  and  C_13
REMARK    8  A    between atoms: C_12  and  C_14
REMARK    9  A    between atoms: C_15  and  C_16
REMARK   10  A    between atoms: C_16  and  C_17
REMARK   11  A    between atoms: C_17  and  C_18
REMARK   12  A    between atoms: C_17  and  C_19
REMARK   13  A    between atoms: C_20  and  C_21
REMARK                            x       y       z     vdW  Elec       q    Type
REMARK                         _______ _______ _______ _____ _____    ______ ____
ROOT
ATOM      1  N   UNL     1       4.854   4.307  17.992  0.00  0.00    +0.000 N 
ATOM      2  C   UNL     1       4.658   4.082  16.646  0.00  0.00    +0.000 C 
ATOM      3  O   UNL     1       3.726   3.417  16.194  0.00  0.00    +0.000 OA
ATOM      4  N   UNL     1       5.566   4.742  15.806  0.00  0.00    +0.000 N 
ATOM      5  H   UNL     1       5.347   5.154  18.197  0.00  0.00    +0.000 HD
ENDROOT
BRANCH   1  10
ATOM      6  C   UNL     1       1.338   2.725  22.238  0.00  0.00    +0.000 C 
ATOM      7  C   UNL     1       2.250   3.111  21.114  0.00  0.00    +0.000 A 
ATOM      8  C   UNL     1       3.315   2.295  20.727  0.00  0.00    +0.000 A 
ATOM      9  C   UNL     1       4.154   2.674  19.675  0.00  0.00    +0.000 A 
ATOM     10  C   UNL     1       3.949   3.886  18.996  0.00  0.00    +0.000 A 
ATOM     11  C   UNL     1       2.869   4.710  19.359  0.00  0.00    +0.000 A 
ATOM     12  C   UNL     1       2.480   5.960  18.624  0.00  0.00    +0.000 C 
ATOM     13  C   UNL     1       2.029   4.305  20.417  0.00  0.00    +0.000 A 
ENDBRANCH   1  10
BRANCH   4  14
ATOM     14  C   UNL     1       6.869   5.294  16.216  0.00  0.00    +0.000 C 
BRANCH  14  15
ATOM     15  C   UNL     1       6.761   6.747  16.688  0.00  0.00    +0.000 C 
BRANCH  15  16
ATOM     16  C   UNL     1       7.939   7.197  17.578  0.00  0.00    +0.000 C 
ATOM     17  C   UNL     1       7.917   8.698  17.875  0.00  0.00    +0.000 C 
ATOM     18  C   UNL     1       7.925   6.418  18.896  0.00  0.00    +0.000 C 
ENDBRANCH  15  16
ENDBRANCH  14  15
ENDBRANCH   4  14
BRANCH   4  19
ATOM     19  C   UNL     1       5.296   4.693  14.367  0.00  0.00    +0.000 C 
BRANCH  19  20
ATOM     20  C   UNL     1       6.410   4.001  13.558  0.00  0.00    +0.000 C 
BRANCH  20  21
ATOM     21  C   UNL     1       5.941   3.013  12.475  0.00  0.00    +0.000 C 
ATOM     22  C   UNL     1       4.703   3.502  11.721  0.00  0.00    +0.000 C 
ATOM     23  C   UNL     1       7.075   2.766  11.471  0.00  0.00    +0.000 C 
ENDBRANCH  20  21
ENDBRANCH  19  20
ENDBRANCH   4  19
TORSDOF 7
ENDMDL
