MODEL 1
REMARK VINA RESULT:      -8.7      0.000      0.000
REMARK  Name = 
REMARK  5 active torsions:
REMARK  status: ('A' for Active; 'I' for Inactive)
REMARK    1  A    between atoms: C_1  and  C_2
REMARK    2  A    between atoms: C_2  and  C_3
REMARK    3  A    between atoms: N_5  and  C_6
REMARK    4  A    between atoms: C_14  and  C_15
REMARK    5  A    between atoms: C_18  and  C_19
REMARK                            x       y       z     vdW  Elec       q    Type
REMARK                         _______ _______ _______ _____ _____    ______ ____
ROOT
ATOM      1  C   UNL     1      -1.419  11.778  21.257  0.00  0.00    +0.000 A 
ATOM      2  N   UNL     1      -2.173  12.011  20.181  0.00  0.00    +0.000 NA
ATOM      3  N   UNL     1      -1.791  11.062  19.280  0.00  0.00    +0.000 N 
ATOM      4  C   UNL     1      -0.699  10.332  19.731  0.00  0.00    +0.000 A 
ATOM      5  C   UNL     1       0.142   9.386  19.116  0.00  0.00    +0.000 A 
ATOM      6  C   UNL     1       1.249   8.861  19.819  0.00  0.00    +0.000 A 
ATOM      7  C   UNL     1       1.452   9.280  21.141  0.00  0.00    +0.000 A 
ATOM      8  C   UNL     1       0.612  10.218  21.758  0.00  0.00    +0.000 A 
ATOM      9  C   UNL     1      -0.453  10.772  21.028  0.00  0.00    +0.000 A 
ENDROOT
BRANCH   3  10
ATOM     10  C   UNL     1      -2.475  10.952  18.037  0.00  0.00    +0.000 A 
ATOM     11  C   UNL     1      -3.728  11.564  17.892  0.00  0.00    +0.000 A 
ATOM     12  C   UNL     1      -4.402  11.498  16.671  0.00  0.00    +0.000 A 
ATOM     13  C   UNL     1      -3.848  10.791  15.604  0.00  0.00    +0.000 A 
ATOM     14  C   UNL     1      -2.620  10.150  15.754  0.00  0.00    +0.000 A 
ATOM     15  C   UNL     1      -1.930  10.232  16.967  0.00  0.00    +0.000 A 
ENDBRANCH   3  10
BRANCH   6  16
ATOM     16  C   UNL     1       2.155   7.900  19.153  0.00  0.00    +0.000 A 
ATOM     17  C   UNL     1       2.460   6.666  19.752  0.00  0.00    +0.000 A 
ATOM     18  C   UNL     1       3.397   5.794  19.193  0.00  0.00    +0.000 A 
ATOM     19  C   UNL     1       4.062   6.120  18.009  0.00  0.00    +0.000 A 
ATOM     20  C   UNL     1       3.701   7.306  17.355  0.00  0.00    +0.000 A 
ATOM     21  C   UNL     1       2.770   8.184  17.924  0.00  0.00    +0.000 A 
BRANCH  19  22
ATOM     22  C   UNL     1       5.160   5.252  17.425  0.00  0.00    +0.000 C 
ATOM     23  C   UNL     1       6.326   5.060  18.386  0.00  0.00    +0.000 C 
ATOM     24  C   UNL     1       7.291   6.162  18.000  0.00  0.00    +0.000 C 
ATOM     25  N   UNL     1       7.176   6.298  16.544  0.00  0.00    +0.000 NA
ATOM     26  C   UNL     1       5.834   5.819  16.165  0.00  0.00    +0.000 C 
ATOM     27  H   UNL     1       7.870   5.697  16.100  0.00  0.00    +0.000 HD
ENDBRANCH  19  22
ENDBRANCH   6  16
BRANCH   1  29
ATOM     28  C   UNL     1      -2.801  12.121  23.310  0.00  0.00    +0.000 C 
ATOM     29  C   UNL     1      -1.606  12.588  22.497  0.00  0.00    +0.000 C 
ENDBRANCH   1  29
TORSDOF 4
ENDMDL
MODEL 2
REMARK VINA RESULT:      -8.6      1.204      1.604
REMARK  Name = 
REMARK  5 active torsions:
REMARK  status: ('A' for Active; 'I' for Inactive)
REMARK    1  A    between atoms: C_1  and  C_2
REMARK    2  A    between atoms: C_2  and  C_3
REMARK    3  A    between atoms: N_5  and  C_6
REMARK    4  A    between atoms: C_14  and  C_15
REMARK    5  A    between atoms: C_18  and  C_19
REMARK                            x       y       z     vdW  Elec       q    Type
REMARK                         _______ _______ _______ _____ _____    ______ ____
ROOT
ATOM      1  C   UNL     1      -1.683  12.218  21.473  0.00  0.00    +0.000 A 
ATOM      2  N   UNL     1      -2.417  12.452  20.384  0.00  0.00    +0.000 NA
ATOM      3  N   UNL     1      -2.063  11.466  19.512  0.00  0.00    +0.000 N 
ATOM      4  C   UNL     1      -1.003  10.708  19.992  0.00  0.00    +0.000 A 
ATOM      5  C   UNL     1      -0.193   9.715  19.410  0.00  0.00    +0.000 A 
ATOM      6  C   UNL     1       0.886   9.167  20.138  0.00  0.00    +0.000 A 
ATOM      7  C   UNL     1       1.093   9.612  21.450  0.00  0.00    +0.000 A 
ATOM      8  C   UNL     1       0.283  10.597  22.035  0.00  0.00    +0.000 A 
ATOM      9  C   UNL     1      -0.753  11.171  21.280  0.00  0.00    +0.000 A 
ENDROOT
BRANCH   3  10
ATOM     10  C   UNL     1      -2.740  11.350  18.265  0.00  0.00    +0.000 A 
ATOM     11  C   UNL     1      -4.132  11.507  18.227  0.00  0.00    +0.000 A 
ATOM     12  C   UNL     1      -4.812  11.430  17.009  0.00  0.00    +0.000 A 
ATOM     13  C   UNL     1      -4.113  11.160  15.834  0.00  0.00    +0.000 A 
ATOM     14  C   UNL     1      -2.733  10.967  15.871  0.00  0.00    +0.000 A 
ATOM     15  C   UNL     1      -2.044  11.066  17.083  0.00  0.00    +0.000 A 
ENDBRANCH   3  10
BRANCH   6  16
ATOM     16  C   UNL     1       1.762   8.156  19.506  0.00  0.00    +0.000 A 
ATOM     17  C   UNL     1       2.082   6.963  20.175  0.00  0.00    +0.000 A 
ATOM     18  C   UNL     1       2.992   6.048  19.643  0.00  0.00    +0.000 A 
ATOM     19  C   UNL     1       3.615   6.288  18.416  0.00  0.00    +0.000 A 
ATOM     20  C   UNL     1       3.238   7.430  17.697  0.00  0.00    +0.000 A 
ATOM     21  C   UNL     1       2.333   8.352  18.239  0.00  0.00    +0.000 A 
BRANCH  19  22
ATOM     22  C   UNL     1       4.686   5.373  17.853  0.00  0.00    +0.000 C 
ATOM     23  C   UNL     1       4.102   4.187  17.098  0.00  0.00    +0.000 C 
ATOM     24  C   UNL     1       4.028   3.096  18.147  0.00  0.00    +0.000 C 
ATOM     25  N   UNL     1       5.206   3.288  19.000  0.00  0.00    +0.000 NA
ATOM     26  C   UNL     1       5.589   4.709  18.905  0.00  0.00    +0.000 C 
ATOM     27  H   UNL     1       5.974   2.722  18.637  0.00  0.00    +0.000 HD
ENDBRANCH  19  22
ENDBRANCH   6  16
BRANCH   1  29
ATOM     28  C   UNL     1      -0.837  14.197  22.743  0.00  0.00    +0.000 C 
ATOM     29  C   UNL     1      -1.851  13.067  22.690  0.00  0.00    +0.000 C 
ENDBRANCH   1  29
TORSDOF 4
ENDMDL
MODEL 3
REMARK VINA RESULT:      -8.6      1.107      1.874
REMARK  Name = 
REMARK  5 active torsions:
REMARK  status: ('A' for Active; 'I' for Inactive)
REMARK    1  A    between atoms: C_1  and  C_2
REMARK    2  A    between atoms: C_2  and  C_3
REMARK    3  A    between atoms: N_5  and  C_6
REMARK    4  A    between atoms: C_14  and  C_15
REMARK    5  A    between atoms: C_18  and  C_19
REMARK                            x       y       z     vdW  Elec       q    Type
REMARK                         _______ _______ _______ _____ _____    ______ ____
ROOT
ATOM      1  C   UNL     1      -1.794  12.302  21.311  0.00  0.00    +0.000 A 
ATOM      2  N   UNL     1      -2.522  12.492  20.208  0.00  0.00    +0.000 NA
ATOM      3  N   UNL     1      -2.127  11.501  19.360  0.00  0.00    +0.000 N 
ATOM      4  C   UNL     1      -1.051  10.785  19.867  0.00  0.00    +0.000 A 
ATOM      5  C   UNL     1      -0.204   9.807  19.313  0.00  0.00    +0.000 A 
ATOM      6  C   UNL     1       0.883   9.306  20.064  0.00  0.00    +0.000 A 
ATOM      7  C   UNL     1       1.059   9.782  21.370  0.00  0.00    +0.000 A 
ATOM      8  C   UNL     1       0.213  10.752  21.926  0.00  0.00    +0.000 A 
ATOM      9  C   UNL     1      -0.831  11.280  21.148  0.00  0.00    +0.000 A 
ENDROOT
BRANCH   3  10
ATOM     10  C   UNL     1      -2.785  11.341  18.107  0.00  0.00    +0.000 A 
ATOM     11  C   UNL     1      -2.034  10.955  16.988  0.00  0.00    +0.000 A 
ATOM     12  C   UNL     1      -2.665  10.759  15.757  0.00  0.00    +0.000 A 
ATOM     13  C   UNL     1      -4.035  10.983  15.629  0.00  0.00    +0.000 A 
ATOM     14  C   UNL     1      -4.779  11.402  16.731  0.00  0.00    +0.000 A 
ATOM     15  C   UNL     1      -4.159  11.577  17.970  0.00  0.00    +0.000 A 
ENDBRANCH   3  10
BRANCH   6  16
ATOM     16  C   UNL     1       1.797   8.310  19.462  0.00  0.00    +0.000 A 
ATOM     17  C   UNL     1       2.376   8.535  18.202  0.00  0.00    +0.000 A 
ATOM     18  C   UNL     1       3.152   7.562  17.570  0.00  0.00    +0.000 A 
ATOM     19  C   UNL     1       3.385   6.326  18.178  0.00  0.00    +0.000 A 
ATOM     20  C   UNL     1       2.888   6.123  19.472  0.00  0.00    +0.000 A 
ATOM     21  C   UNL     1       2.100   7.097  20.099  0.00  0.00    +0.000 A 
BRANCH  19  22
ATOM     22  C   UNL     1       4.134   5.204  17.483  0.00  0.00    +0.000 C 
ATOM     23  C   UNL     1       3.544   3.833  17.786  0.00  0.00    +0.000 C 
ATOM     24  C   UNL     1       4.356   3.349  18.970  0.00  0.00    +0.000 C 
ATOM     25  N   UNL     1       5.716   3.853  18.750  0.00  0.00    +0.000 NA
ATOM     26  C   UNL     1       5.606   5.053  17.899  0.00  0.00    +0.000 C 
ATOM     27  H   UNL     1       6.253   3.148  18.245  0.00  0.00    +0.000 HD
ENDBRANCH  19  22
ENDBRANCH   6  16
BRANCH   1  29
ATOM     28  C   UNL     1      -2.979  12.550  23.496  0.00  0.00    +0.000 C 
ATOM     29  C   UNL     1      -2.003  13.167  22.509  0.00  0.00    +0.000 C 
ENDBRANCH   1  29
TORSDOF 4
ENDMDL
MODEL 4
REMARK VINA RESULT:      -8.6      1.180      1.761
REMARK  Name = 
REMARK  5 active torsions:
REMARK  status: ('A' for Active; 'I' for Inactive)
REMARK    1  A    between atoms: C_1  and  C_2
REMARK    2  A    between atoms: C_2  and  C_3
REMARK    3  A    between atoms: N_5  and  C_6
REMARK    4  A    between atoms: C_14  and  C_15
REMARK    5  A    between atoms: C_18  and  C_19
REMARK                            x       y       z     vdW  Elec       q    Type
REMARK                         _______ _______ _______ _____ _____    ______ ____
ROOT
ATOM      1  C   UNL     1      -1.651  12.344  21.140  0.00  0.00    +0.000 A 
ATOM      2  N   UNL     1      -2.402  12.503  20.049  0.00  0.00    +0.000 NA
ATOM      3  N   UNL     1      -2.046  11.473  19.231  0.00  0.00    +0.000 N 
ATOM      4  C   UNL     1      -0.970  10.758  19.740  0.00  0.00    +0.000 A 
ATOM      5  C   UNL     1      -0.153   9.744  19.205  0.00  0.00    +0.000 A 
ATOM      6  C   UNL     1       0.943   9.253  19.949  0.00  0.00    +0.000 A 
ATOM      7  C   UNL     1       1.160   9.777  21.231  0.00  0.00    +0.000 A 
ATOM      8  C   UNL     1       0.345  10.783  21.768  0.00  0.00    +0.000 A 
ATOM      9  C   UNL     1      -0.710  11.299  20.995  0.00  0.00    +0.000 A 
ENDROOT
BRANCH   3  10
ATOM     10  C   UNL     1      -2.737  11.275  18.002  0.00  0.00    +0.000 A 
ATOM     11  C   UNL     1      -2.043  10.740  16.908  0.00  0.00    +0.000 A 
ATOM     12  C   UNL     1      -2.709  10.506  15.703  0.00  0.00    +0.000 A 
ATOM     13  C   UNL     1      -4.057  10.839  15.574  0.00  0.00    +0.000 A 
ATOM     14  C   UNL     1      -4.743  11.404  16.647  0.00  0.00    +0.000 A 
ATOM     15  C   UNL     1      -4.087  11.619  17.862  0.00  0.00    +0.000 A 
ENDBRANCH   3  10
BRANCH   6  16
ATOM     16  C   UNL     1       1.825   8.218  19.366  0.00  0.00    +0.000 A 
ATOM     17  C   UNL     1       2.075   7.018  20.050  0.00  0.00    +0.000 A 
ATOM     18  C   UNL     1       2.988   6.078  19.569  0.00  0.00    +0.000 A 
ATOM     19  C   UNL     1       3.683   6.301  18.377  0.00  0.00    +0.000 A 
ATOM     20  C   UNL     1       3.376   7.452  17.639  0.00  0.00    +0.000 A 
ATOM     21  C   UNL     1       2.468   8.398  18.131  0.00  0.00    +0.000 A 
BRANCH  19  22
ATOM     22  C   UNL     1       4.758   5.357  17.872  0.00  0.00    +0.000 C 
ATOM     23  C   UNL     1       4.187   4.202  17.060  0.00  0.00    +0.000 C 
ATOM     24  C   UNL     1       4.005   3.100  18.084  0.00  0.00    +0.000 C 
ATOM     25  N   UNL     1       5.128   3.238  19.018  0.00  0.00    +0.000 NA
ATOM     26  C   UNL     1       5.564   4.646  18.972  0.00  0.00    +0.000 C 
ATOM     27  H   UNL     1       5.899   2.651  18.698  0.00  0.00    +0.000 HD
ENDBRANCH  19  22
ENDBRANCH   6  16
BRANCH   1  29
ATOM     28  C   UNL     1      -3.213  13.189  22.897  0.00  0.00    +0.000 C 
ATOM     29  C   UNL     1      -1.815  13.259  22.307  0.00  0.00    +0.000 C 
ENDBRANCH   1  29
TORSDOF 4
ENDMDL
MODEL 5
REMARK VINA RESULT:      -8.6      2.802      8.980
REMARK  Name = 
REMARK  5 active torsions:
REMARK  status: ('A' for Active; 'I' for Inactive)
REMARK    1  A    between atoms: C_1  and  C_2
REMARK    2  A    between atoms: C_2  and  C_3
REMARK    3  A    between atoms: N_5  and  C_6
REMARK    4  A    between atoms: C_14  and  C_15
REMARK    5  A    between atoms: C_18  and  C_19
REMARK                            x       y       z     vdW  Elec       q    Type
REMARK                         _______ _______ _______ _____ _____    ______ ____
ROOT
ATOM      1  C   UNL     1       3.985   6.545  17.262  0.00  0.00    +0.000 A 
ATOM      2  N   UNL     1       3.839   5.403  17.937  0.00  0.00    +0.000 NA
ATOM      3  N   UNL     1       2.834   5.653  18.823  0.00  0.00    +0.000 N 
ATOM      4  C   UNL     1       2.453   6.988  18.808  0.00  0.00    +0.000 A 
ATOM      5  C   UNL     1       1.603   7.752  19.630  0.00  0.00    +0.000 A 
ATOM      6  C   UNL     1       1.470   9.141  19.412  0.00  0.00    +0.000 A 
ATOM      7  C   UNL     1       2.172   9.713  18.344  0.00  0.00    +0.000 A 
ATOM      8  C   UNL     1       3.015   8.954  17.520  0.00  0.00    +0.000 A 
ATOM      9  C   UNL     1       3.179   7.583  17.782  0.00  0.00    +0.000 A 
ENDROOT
BRANCH   3  10
ATOM     10  C   UNL     1       2.342   4.602  19.647  0.00  0.00    +0.000 A 
ATOM     11  C   UNL     1       1.547   3.601  19.073  0.00  0.00    +0.000 A 
ATOM     12  C   UNL     1       1.081   2.542  19.855  0.00  0.00    +0.000 A 
ATOM     13  C   UNL     1       1.374   2.498  21.218  0.00  0.00    +0.000 A 
ATOM     14  C   UNL     1       2.133   3.510  21.802  0.00  0.00    +0.000 A 
ATOM     15  C   UNL     1       2.622   4.560  21.019  0.00  0.00    +0.000 A 
ENDBRANCH   3  10
BRANCH   6  16
ATOM     16  C   UNL     1       0.609   9.947  20.306  0.00  0.00    +0.000 A 
ATOM     17  C   UNL     1       0.200  11.239  19.937  0.00  0.00    +0.000 A 
ATOM     18  C   UNL     1      -0.520  12.056  20.811  0.00  0.00    +0.000 A 
ATOM     19  C   UNL     1      -0.864  11.609  22.089  0.00  0.00    +0.000 A 
ATOM     20  C   UNL     1      -0.540  10.291  22.436  0.00  0.00    +0.000 A 
ATOM     21  C   UNL     1       0.192   9.478  21.561  0.00  0.00    +0.000 A 
BRANCH  19  22
ATOM     22  C   UNL     1      -1.552  12.500  23.105  0.00  0.00    +0.000 C 
ATOM     23  C   UNL     1      -2.955  12.017  23.450  0.00  0.00    +0.000 C 
ATOM     24  C   UNL     1      -3.843  12.788  22.495  0.00  0.00    +0.000 C 
ATOM     25  N   UNL     1      -3.221  14.109  22.355  0.00  0.00    +0.000 NA
ATOM     26  C   UNL     1      -1.784  13.949  22.645  0.00  0.00    +0.000 C 
ATOM     27  H   UNL     1      -3.622  14.739  23.050  0.00  0.00    +0.000 HD
ENDBRANCH  19  22
ENDBRANCH   6  16
BRANCH   1  29
ATOM     28  C   UNL     1       5.398   5.264  15.647  0.00  0.00    +0.000 C 
ATOM     29  C   UNL     1       4.965   6.635  16.138  0.00  0.00    +0.000 C 
ENDBRANCH   1  29
TORSDOF 4
ENDMDL
MODEL 6
REMARK VINA RESULT:      -8.6      1.655      2.233
REMARK  Name = 
REMARK  5 active torsions:
REMARK  status: ('A' for Active; 'I' for Inactive)
REMARK    1  A    between atoms: C_1  and  C_2
REMARK    2  A    between atoms: C_2  and  C_3
REMARK    3  A    between atoms: N_5  and  C_6
REMARK    4  A    between atoms: C_14  and  C_15
REMARK    5  A    between atoms: C_18  and  C_19
REMARK                            x       y       z     vdW  Elec       q    Type
REMARK                         _______ _______ _______ _____ _____    ______ ____
ROOT
ATOM      1  C   UNL     1      -1.522  12.111  21.210  0.00  0.00    +0.000 A 
ATOM      2  N   UNL     1      -2.199  12.269  20.071  0.00  0.00    +0.000 NA
ATOM      3  N   UNL     1      -1.852  11.191  19.312  0.00  0.00    +0.000 N 
ATOM      4  C   UNL     1      -0.849  10.439  19.910  0.00  0.00    +0.000 A 
ATOM      5  C   UNL     1      -0.060   9.364  19.461  0.00  0.00    +0.000 A 
ATOM      6  C   UNL     1       0.962   8.845  20.287  0.00  0.00    +0.000 A 
ATOM      7  C   UNL     1       1.132   9.404  21.560  0.00  0.00    +0.000 A 
ATOM      8  C   UNL     1       0.343  10.472  22.012  0.00  0.00    +0.000 A 
ATOM      9  C   UNL     1      -0.634  11.013  21.159  0.00  0.00    +0.000 A 
ENDROOT
BRANCH   3  10
ATOM     10  C   UNL     1      -2.479  10.984  18.051  0.00  0.00    +0.000 A 
ATOM     11  C   UNL     1      -3.745  11.540  17.819  0.00  0.00    +0.000 A 
ATOM     12  C   UNL     1      -4.364  11.378  16.578  0.00  0.00    +0.000 A 
ATOM     13  C   UNL     1      -3.742  10.631  15.579  0.00  0.00    +0.000 A 
ATOM     14  C   UNL     1      -2.500  10.045  15.816  0.00  0.00    +0.000 A 
ATOM     15  C   UNL     1      -1.865  10.223  17.048  0.00  0.00    +0.000 A 
ENDBRANCH   3  10
BRANCH   6  16
ATOM     16  C   UNL     1       1.818   7.743  19.794  0.00  0.00    +0.000 A 
ATOM     17  C   UNL     1       2.454   7.831  18.545  0.00  0.00    +0.000 A 
ATOM     18  C   UNL     1       3.176   6.760  18.015  0.00  0.00    +0.000 A 
ATOM     19  C   UNL     1       3.295   5.558  18.718  0.00  0.00    +0.000 A 
ATOM     20  C   UNL     1       2.741   5.490  20.004  0.00  0.00    +0.000 A 
ATOM     21  C   UNL     1       2.008   6.562  20.528  0.00  0.00    +0.000 A 
BRANCH  19  22
ATOM     22  C   UNL     1       3.980   4.337  18.135  0.00  0.00    +0.000 C 
ATOM     23  C   UNL     1       3.113   3.615  17.112  0.00  0.00    +0.000 C 
ATOM     24  C   UNL     1       2.401   2.557  17.929  0.00  0.00    +0.000 C 
ATOM     25  N   UNL     1       3.369   2.120  18.941  0.00  0.00    +0.000 NA
ATOM     26  C   UNL     1       4.313   3.234  19.153  0.00  0.00    +0.000 C 
ATOM     27  H   UNL     1       3.889   1.321  18.579  0.00  0.00    +0.000 HD
ENDBRANCH  19  22
ENDBRANCH   6  16
BRANCH   1  29
ATOM     28  C   UNL     1      -2.740  12.599  23.336  0.00  0.00    +0.000 C 
ATOM     29  C   UNL     1      -1.704  13.077  22.334  0.00  0.00    +0.000 C 
ENDBRANCH   1  29
TORSDOF 4
ENDMDL
MODEL 7
REMARK VINA RESULT:      -8.4      3.157      8.456
REMARK  Name = 
REMARK  5 active torsions:
REMARK  status: ('A' for Active; 'I' for Inactive)
REMARK    1  A    between atoms: C_1  and  C_2
REMARK    2  A    between atoms: C_2  and  C_3
REMARK    3  A    between atoms: N_5  and  C_6
REMARK    4  A    between atoms: C_14  and  C_15
REMARK    5  A    between atoms: C_18  and  C_19
REMARK                            x       y       z     vdW  Elec       q    Type
REMARK                         _______ _______ _______ _____ _____    ______ ____
ROOT
ATOM      1  C   UNL     1       3.182   3.438  20.089  0.00  0.00    +0.000 A 
ATOM      2  N   UNL     1       3.995   3.256  19.047  0.00  0.00    +0.000 NA
ATOM      3  N   UNL     1       4.158   4.500  18.516  0.00  0.00    +0.000 N 
ATOM      4  C   UNL     1       3.334   5.435  19.128  0.00  0.00    +0.000 A 
ATOM      5  C   UNL     1       3.022   6.776  18.834  0.00  0.00    +0.000 A 
ATOM      6  C   UNL     1       2.062   7.464  19.610  0.00  0.00    +0.000 A 
ATOM      7  C   UNL     1       1.472   6.787  20.685  0.00  0.00    +0.000 A 
ATOM      8  C   UNL     1       1.786   5.453  20.983  0.00  0.00    +0.000 A 
ATOM      9  C   UNL     1       2.702   4.765  20.170  0.00  0.00    +0.000 A 
ENDROOT
BRANCH   3  10
ATOM     10  C   UNL     1       5.063   4.693  17.434  0.00  0.00    +0.000 A 
ATOM     11  C   UNL     1       4.796   4.078  16.203  0.00  0.00    +0.000 A 
ATOM     12  C   UNL     1       5.652   4.281  15.118  0.00  0.00    +0.000 A 
ATOM     13  C   UNL     1       6.795   5.065  15.267  0.00  0.00    +0.000 A 
ATOM     14  C   UNL     1       7.085   5.650  16.499  0.00  0.00    +0.000 A 
ATOM     15  C   UNL     1       6.220   5.469  17.582  0.00  0.00    +0.000 A 
ENDBRANCH   3  10
BRANCH   6  16
ATOM     16  C   UNL     1       1.704   8.859  19.271  0.00  0.00    +0.000 A 
ATOM     17  C   UNL     1       2.223   9.474  18.119  0.00  0.00    +0.000 A 
ATOM     18  C   UNL     1       1.985  10.822  17.840  0.00  0.00    +0.000 A 
ATOM     19  C   UNL     1       1.214  11.606  18.702  0.00  0.00    +0.000 A 
ATOM     20  C   UNL     1       0.617  10.982  19.806  0.00  0.00    +0.000 A 
ATOM     21  C   UNL     1       0.867   9.633  20.088  0.00  0.00    +0.000 A 
BRANCH  19  22
ATOM     22  C   UNL     1       1.018  13.095  18.492  0.00  0.00    +0.000 C 
ATOM     23  C   UNL     1       2.329  13.825  18.231  0.00  0.00    +0.000 C 
ATOM     24  C   UNL     1       2.757  14.295  19.606  0.00  0.00    +0.000 C 
ATOM     25  N   UNL     1       1.517  14.638  20.311  0.00  0.00    +0.000 NA
ATOM     26  C   UNL     1       0.433  13.848  19.698  0.00  0.00    +0.000 C 
ATOM     27  H   UNL     1       1.317  15.628  20.165  0.00  0.00    +0.000 HD
ENDBRANCH  19  22
ENDBRANCH   6  16
BRANCH   1  29
ATOM     28  C   UNL     1       1.477   2.485  21.648  0.00  0.00    +0.000 C 
ATOM     29  C   UNL     1       2.824   2.290  20.974  0.00  0.00    +0.000 C 
ENDBRANCH   1  29
TORSDOF 4
ENDMDL
MODEL 8
REMARK VINA RESULT:      -8.4      0.452      1.030
REMARK  Name = 
REMARK  5 active torsions:
REMARK  status: ('A' for Active; 'I' for Inactive)
REMARK    1  A    between atoms: C_1  and  C_2
REMARK    2  A    between atoms: C_2  and  C_3
REMARK    3  A    between atoms: N_5  and  C_6
REMARK    4  A    between atoms: C_14  and  C_15
REMARK    5  A    between atoms: C_18  and  C_19
REMARK                            x       y       z     vdW  Elec       q    Type
REMARK                         _______ _______ _______ _____ _____    ______ ____
ROOT
ATOM      1  C   UNL     1      -1.467  11.949  21.208  0.00  0.00    +0.000 A 
ATOM      2  N   UNL     1      -2.218  12.156  20.125  0.00  0.00    +0.000 NA
ATOM      3  N   UNL     1      -1.839  11.180  19.252  0.00  0.00    +0.000 N 
ATOM      4  C   UNL     1      -0.751  10.458  19.725  0.00  0.00    +0.000 A 
ATOM      5  C   UNL     1       0.087   9.492  19.137  0.00  0.00    +0.000 A 
ATOM      6  C   UNL     1       1.190   8.981  19.857  0.00  0.00    +0.000 A 
ATOM      7  C   UNL     1       1.393   9.436  21.167  0.00  0.00    +0.000 A 
ATOM      8  C   UNL     1       0.556  10.394  21.756  0.00  0.00    +0.000 A 
ATOM      9  C   UNL     1      -0.505  10.933  21.009  0.00  0.00    +0.000 A 
ENDROOT
BRANCH   3  10
ATOM     10  C   UNL     1      -2.522  11.039  18.011  0.00  0.00    +0.000 A 
ATOM     11  C   UNL     1      -3.837  11.511  17.899  0.00  0.00    +0.000 A 
ATOM     12  C   UNL     1      -4.514  11.413  16.681  0.00  0.00    +0.000 A 
ATOM     13  C   UNL     1      -3.897  10.812  15.585  0.00  0.00    +0.000 A 
ATOM     14  C   UNL     1      -2.603  10.308  15.701  0.00  0.00    +0.000 A 
ATOM     15  C   UNL     1      -1.912  10.424  16.910  0.00  0.00    +0.000 A 
ENDBRANCH   3  10
BRANCH   6  16
ATOM     16  C   UNL     1       2.093   7.997  19.220  0.00  0.00    +0.000 A 
ATOM     17  C   UNL     1       2.754   8.301  18.018  0.00  0.00    +0.000 A 
ATOM     18  C   UNL     1       3.523   7.350  17.346  0.00  0.00    +0.000 A 
ATOM     19  C   UNL     1       3.666   6.056  17.853  0.00  0.00    +0.000 A 
ATOM     20  C   UNL     1       3.086   5.767  19.096  0.00  0.00    +0.000 A 
ATOM     21  C   UNL     1       2.306   6.721  19.762  0.00  0.00    +0.000 A 
BRANCH  19  22
ATOM     22  C   UNL     1       4.404   4.964  17.103  0.00  0.00    +0.000 C 
ATOM     23  C   UNL     1       5.416   4.236  17.978  0.00  0.00    +0.000 C 
ATOM     24  C   UNL     1       6.710   4.984  17.726  0.00  0.00    +0.000 C 
ATOM     25  N   UNL     1       6.672   5.374  16.312  0.00  0.00    +0.000 NA
ATOM     26  C   UNL     1       5.253   5.452  15.918  0.00  0.00    +0.000 C 
ATOM     27  H   UNL     1       7.122   4.647  15.756  0.00  0.00    +0.000 HD
ENDBRANCH  19  22
ENDBRANCH   6  16
BRANCH   1  29
ATOM     28  C   UNL     1      -2.546  12.125  23.455  0.00  0.00    +0.000 C 
ATOM     29  C   UNL     1      -1.652  12.794  22.425  0.00  0.00    +0.000 C 
ENDBRANCH   1  29
TORSDOF 4
ENDMDL
MODEL 9
REMARK VINA RESULT:      -8.3      3.308      4.077
REMARK  Name = 
REMARK  5 active torsions:
REMARK  status: ('A' for Active; 'I' for Inactive)
REMARK    1  A    between atoms: C_1  and  C_2
REMARK    2  A    between atoms: C_2  and  C_3
REMARK    3  A    between atoms: N_5  and  C_6
REMARK    4  A    between atoms: C_14  and  C_15
REMARK    5  A    between atoms: C_18  and  C_19
REMARK                            x       y       z     vdW  Elec       q    Type
REMARK                         _______ _______ _______ _____ _____    ______ ____
ROOT
ATOM      1  C   UNL     1      -0.654  11.835  22.310  0.00  0.00    +0.000 A 
ATOM      2  N   UNL     1       0.112  12.781  21.763  0.00  0.00    +0.000 NA
ATOM      3  N   UNL     1       0.896  12.114  20.869  0.00  0.00    +0.000 N 
ATOM      4  C   UNL     1       0.731  10.738  20.962  0.00  0.00    +0.000 A 
ATOM      5  C   UNL     1       1.416   9.650  20.391  0.00  0.00    +0.000 A 
ATOM      6  C   UNL     1       1.061   8.329  20.743  0.00  0.00    +0.000 A 
ATOM      7  C   UNL     1      -0.003   8.145  21.637  0.00  0.00    +0.000 A 
ATOM      8  C   UNL     1      -0.690   9.228  22.203  0.00  0.00    +0.000 A 
ATOM      9  C   UNL     1      -0.291  10.537  21.884  0.00  0.00    +0.000 A 
ENDROOT
BRANCH   3  10
ATOM     10  C   UNL     1       1.777  12.843  20.021  0.00  0.00    +0.000 A 
ATOM     11  C   UNL     1       2.647  13.785  20.588  0.00  0.00    +0.000 A 
ATOM     12  C   UNL     1       3.542  14.487  19.778  0.00  0.00    +0.000 A 
ATOM     13  C   UNL     1       3.547  14.281  18.399  0.00  0.00    +0.000 A 
ATOM     14  C   UNL     1       2.659  13.373  17.826  0.00  0.00    +0.000 A 
ATOM     15  C   UNL     1       1.776  12.650  18.634  0.00  0.00    +0.000 A 
ENDBRANCH   3  10
BRANCH   6  16
ATOM     16  C   UNL     1       1.812   7.188  20.174  0.00  0.00    +0.000 A 
ATOM     17  C   UNL     1       1.831   5.943  20.824  0.00  0.00    +0.000 A 
ATOM     18  C   UNL     1       2.621   4.889  20.362  0.00  0.00    +0.000 A 
ATOM     19  C   UNL     1       3.419   5.037  19.225  0.00  0.00    +0.000 A 
ATOM     20  C   UNL     1       3.340   6.243  18.517  0.00  0.00    +0.000 A 
ATOM     21  C   UNL     1       2.556   7.303  18.990  0.00  0.00    +0.000 A 
BRANCH  19  22
ATOM     22  C   UNL     1       4.370   3.954  18.750  0.00  0.00    +0.000 C 
ATOM     23  C   UNL     1       3.955   3.360  17.410  0.00  0.00    +0.000 C 
ATOM     24  C   UNL     1       3.121   2.156  17.797  0.00  0.00    +0.000 C 
ATOM     25  N   UNL     1       3.745   1.613  19.008  0.00  0.00    +0.000 NA
ATOM     26  C   UNL     1       4.459   2.723  19.667  0.00  0.00    +0.000 C 
ATOM     27  H   UNL     1       4.429   0.905  18.739  0.00  0.00    +0.000 HD
ENDBRANCH  19  22
ENDBRANCH   6  16
BRANCH   1  29
ATOM     28  C   UNL     1      -1.688  13.683  23.636  0.00  0.00    +0.000 C 
ATOM     29  C   UNL     1      -1.708  12.201  23.303  0.00  0.00    +0.000 C 
ENDBRANCH   1  29
TORSDOF 4
ENDMDL
