MODEL 1
REMARK VINA RESULT:      -7.8      0.000      0.000
REMARK  Name = 
REMARK  7 active torsions:
REMARK  status: ('A' for Active; 'I' for Inactive)
REMARK    1  A    between atoms: C_1  and  C_2
REMARK    2  A    between atoms: C_2  and  C_3
REMARK    3  A    between atoms: C_8  and  C_9
REMARK    4  A    between atoms: N_12  and  C_13
REMARK    5  A    between atoms: C_13  and  C_14
REMARK    6  A    between atoms: C_14  and  O_15
REMARK    7  A    between atoms: O_15  and  C_16
REMARK                            x       y       z     vdW  Elec       q    Type
REMARK                         _______ _______ _______ _____ _____    ______ ____
ROOT
ATOM      1  C   UNL     1       1.813   3.371  19.389  0.00  0.00    +0.000 A 
ATOM      2  C   UNL     1       2.062   2.191  18.651  0.00  0.00    +0.000 A 
ATOM      3  C   UNL     1       2.891   2.169  17.538  0.00  0.00    +0.000 A 
ATOM      4  C   UNL     1       3.524   3.334  17.122  0.00  0.00    +0.000 A 
ATOM      5  C   UNL     1       3.307   4.544  17.817  0.00  0.00    +0.000 A 
ATOM      6  C   UNL     1       3.822   5.858  17.639  0.00  0.00    +0.000 A 
ATOM      7  C   UNL     1       3.259   6.657  18.603  0.00  0.00    +0.000 A 
ATOM      8  N   UNL     1       2.419   5.883  19.371  0.00  0.00    +0.000 N 
ATOM      9  C   UNL     1       2.444   4.562  18.933  0.00  0.00    +0.000 A 
ENDROOT
BRANCH   1  11
ATOM     10  C   UNL     1       1.753   2.651  21.790  0.00  0.00    +0.000 C 
ATOM     11  C   UNL     1       0.959   3.235  20.630  0.00  0.00    +0.000 C 
ENDBRANCH   1  11
BRANCH   6  12
ATOM     12  C   UNL     1       4.754   6.296  16.645  0.00  0.00    +0.000 C 
ATOM     13  N   UNL     1       5.509   6.651  15.841  0.00  0.00    +0.000 NA
ENDBRANCH   6  12
BRANCH   8  14
ATOM     14  C   UNL     1       1.634   6.459  20.454  0.00  0.00    +0.000 C 
BRANCH  14  15
ATOM     15  C   UNL     1       1.699   7.984  20.471  0.00  0.00    +0.000 C 
BRANCH  15  16
ATOM     16  O   UNL     1       1.301   8.467  21.762  0.00  0.00    +0.000 OA
BRANCH  16  17
ATOM     17  C   UNL     1       0.428   9.527  21.739  0.00  0.00    +0.000 A 
ATOM     18  C   UNL     1       0.080  10.225  20.578  0.00  0.00    +0.000 A 
ATOM     19  C   UNL     1      -0.803  11.307  20.636  0.00  0.00    +0.000 A 
ATOM     20  C   UNL     1      -1.367  11.688  21.851  0.00  0.00    +0.000 A 
ATOM     21  C   UNL     1      -1.056  10.978  23.010  0.00  0.00    +0.000 A 
ATOM     22  C   UNL     1      -0.169   9.903  22.947  0.00  0.00    +0.000 A 
ATOM     23  F   UNL     1       0.119   9.244  24.080  0.00  0.00    +0.000 F 
ENDBRANCH  16  17
ENDBRANCH  15  16
ENDBRANCH  14  15
ENDBRANCH   8  14
TORSDOF 6
ENDMDL
MODEL 2
REMARK VINA RESULT:      -7.5      4.709      8.587
REMARK  Name = 
REMARK  7 active torsions:
REMARK  status: ('A' for Active; 'I' for Inactive)
REMARK    1  A    between atoms: C_1  and  C_2
REMARK    2  A    between atoms: C_2  and  C_3
REMARK    3  A    between atoms: C_8  and  C_9
REMARK    4  A    between atoms: N_12  and  C_13
REMARK    5  A    between atoms: C_13  and  C_14
REMARK    6  A    between atoms: C_14  and  O_15
REMARK    7  A    between atoms: O_15  and  C_16
REMARK                            x       y       z     vdW  Elec       q    Type
REMARK                         _______ _______ _______ _____ _____    ______ ____
ROOT
ATOM      1  C   UNL     1       2.969   6.788  18.703  0.00  0.00    +0.000 A 
ATOM      2  C   UNL     1       1.902   6.844  19.630  0.00  0.00    +0.000 A 
ATOM      3  C   UNL     1       1.671   5.841  20.562  0.00  0.00    +0.000 A 
ATOM      4  C   UNL     1       2.515   4.738  20.617  0.00  0.00    +0.000 A 
ATOM      5  C   UNL     1       3.593   4.625  19.712  0.00  0.00    +0.000 A 
ATOM      6  C   UNL     1       4.610   3.644  19.548  0.00  0.00    +0.000 A 
ATOM      7  C   UNL     1       5.398   4.037  18.496  0.00  0.00    +0.000 A 
ATOM      8  N   UNL     1       4.907   5.226  18.006  0.00  0.00    +0.000 N 
ATOM      9  C   UNL     1       3.805   5.637  18.752  0.00  0.00    +0.000 A 
ENDROOT
BRANCH   1  11
ATOM     10  C   UNL     1       1.948   8.913  17.850  0.00  0.00    +0.000 C 
ATOM     11  C   UNL     1       3.157   7.988  17.802  0.00  0.00    +0.000 C 
ENDBRANCH   1  11
BRANCH   6  12
ATOM     12  C   UNL     1       4.799   2.454  20.322  0.00  0.00    +0.000 C 
ATOM     13  N   UNL     1       4.951   1.493  20.949  0.00  0.00    +0.000 NA
ENDBRANCH   6  12
BRANCH   8  14
ATOM     14  C   UNL     1       5.506   5.877  16.849  0.00  0.00    +0.000 C 
BRANCH  14  15
ATOM     15  C   UNL     1       6.893   5.327  16.527  0.00  0.00    +0.000 C 
BRANCH  15  16
ATOM     16  O   UNL     1       7.309   5.798  15.237  0.00  0.00    +0.000 OA
BRANCH  16  17
ATOM     17  C   UNL     1       6.935   5.002  14.182  0.00  0.00    +0.000 A 
ATOM     18  C   UNL     1       5.810   4.172  14.191  0.00  0.00    +0.000 A 
ATOM     19  C   UNL     1       5.504   3.375  13.086  0.00  0.00    +0.000 A 
ATOM     20  C   UNL     1       6.306   3.416  11.948  0.00  0.00    +0.000 A 
ATOM     21  C   UNL     1       7.411   4.266  11.912  0.00  0.00    +0.000 A 
ATOM     22  C   UNL     1       7.715   5.054  13.022  0.00  0.00    +0.000 A 
ATOM     23  F   UNL     1       8.790   5.855  12.963  0.00  0.00    +0.000 F 
ENDBRANCH  16  17
ENDBRANCH  15  16
ENDBRANCH  14  15
ENDBRANCH   8  14
TORSDOF 6
ENDMDL
MODEL 3
REMARK VINA RESULT:      -7.4      1.035      1.400
REMARK  Name = 
REMARK  7 active torsions:
REMARK  status: ('A' for Active; 'I' for Inactive)
REMARK    1  A    between atoms: C_1  and  C_2
REMARK    2  A    between atoms: C_2  and  C_3
REMARK    3  A    between atoms: C_8  and  C_9
REMARK    4  A    between atoms: N_12  and  C_13
REMARK    5  A    between atoms: C_13  and  C_14
REMARK    6  A    between atoms: C_14  and  O_15
REMARK    7  A    between atoms: O_15  and  C_16
REMARK                            x       y       z     vdW  Elec       q    Type
REMARK                         _______ _______ _______ _____ _____    ______ ____
ROOT
ATOM      1  C   UNL     1       1.701   3.470  19.391  0.00  0.00    +0.000 A 
ATOM      2  C   UNL     1       1.840   2.319  18.581  0.00  0.00    +0.000 A 
ATOM      3  C   UNL     1       2.607   2.309  17.424  0.00  0.00    +0.000 A 
ATOM      4  C   UNL     1       3.285   3.458  17.031  0.00  0.00    +0.000 A 
ATOM      5  C   UNL     1       3.177   4.639  17.797  0.00  0.00    +0.000 A 
ATOM      6  C   UNL     1       3.758   5.930  17.657  0.00  0.00    +0.000 A 
ATOM      7  C   UNL     1       3.296   6.707  18.689  0.00  0.00    +0.000 A 
ATOM      8  N   UNL     1       2.453   5.942  19.464  0.00  0.00    +0.000 N 
ATOM      9  C   UNL     1       2.377   4.646  18.959  0.00  0.00    +0.000 A 
ENDROOT
BRANCH   1  11
ATOM     10  C   UNL     1       1.786   2.824  21.812  0.00  0.00    +0.000 C 
ATOM     11  C   UNL     1       0.908   3.317  20.669  0.00  0.00    +0.000 C 
ENDBRANCH   1  11
BRANCH   6  12
ATOM     12  C   UNL     1       4.660   6.368  16.635  0.00  0.00    +0.000 C 
ATOM     13  N   UNL     1       5.391   6.720  15.809  0.00  0.00    +0.000 NA
ENDBRANCH   6  12
BRANCH   8  14
ATOM     14  C   UNL     1       1.763   6.503  20.617  0.00  0.00    +0.000 C 
BRANCH  14  15
ATOM     15  C   UNL     1       1.335   7.950  20.391  0.00  0.00    +0.000 C 
BRANCH  15  16
ATOM     16  O   UNL     1       1.639   8.729  21.557  0.00  0.00    +0.000 OA
BRANCH  16  17
ATOM     17  C   UNL     1       0.696   9.673  21.883  0.00  0.00    +0.000 A 
ATOM     18  C   UNL     1      -0.165   9.570  22.979  0.00  0.00    +0.000 A 
ATOM     19  C   UNL     1      -1.112  10.564  23.236  0.00  0.00    +0.000 A 
ATOM     20  C   UNL     1      -1.194  11.685  22.414  0.00  0.00    +0.000 A 
ATOM     21  C   UNL     1      -0.316  11.818  21.339  0.00  0.00    +0.000 A 
ATOM     22  C   UNL     1       0.624  10.819  21.083  0.00  0.00    +0.000 A 
ATOM     23  F   UNL     1       1.448  10.969  20.036  0.00  0.00    +0.000 F 
ENDBRANCH  16  17
ENDBRANCH  15  16
ENDBRANCH  14  15
ENDBRANCH   8  14
TORSDOF 6
ENDMDL
MODEL 4
REMARK VINA RESULT:      -7.2      1.056      1.140
REMARK  Name = 
REMARK  7 active torsions:
REMARK  status: ('A' for Active; 'I' for Inactive)
REMARK    1  A    between atoms: C_1  and  C_2
REMARK    2  A    between atoms: C_2  and  C_3
REMARK    3  A    between atoms: C_8  and  C_9
REMARK    4  A    between atoms: N_12  and  C_13
REMARK    5  A    between atoms: C_13  and  C_14
REMARK    6  A    between atoms: C_14  and  O_15
REMARK    7  A    between atoms: O_15  and  C_16
REMARK                            x       y       z     vdW  Elec       q    Type
REMARK                         _______ _______ _______ _____ _____    ______ ____
ROOT
ATOM      1  C   UNL     1       2.051   3.834  19.420  0.00  0.00    +0.000 A 
ATOM      2  C   UNL     1       2.208   2.521  18.918  0.00  0.00    +0.000 A 
ATOM      3  C   UNL     1       3.006   2.234  17.819  0.00  0.00    +0.000 A 
ATOM      4  C   UNL     1       3.700   3.255  17.179  0.00  0.00    +0.000 A 
ATOM      5  C   UNL     1       3.575   4.586  17.633  0.00  0.00    +0.000 A 
ATOM      6  C   UNL     1       4.165   5.806  17.200  0.00  0.00    +0.000 A 
ATOM      7  C   UNL     1       3.677   6.809  18.001  0.00  0.00    +0.000 A 
ATOM      8  N   UNL     1       2.810   6.252  18.914  0.00  0.00    +0.000 N 
ATOM      9  C   UNL     1       2.743   4.872  18.736  0.00  0.00    +0.000 A 
ENDROOT
BRANCH   1  11
ATOM     10  C   UNL     1       1.438   2.829  21.633  0.00  0.00    +0.000 C 
ATOM     11  C   UNL     1       1.222   3.992  20.675  0.00  0.00    +0.000 C 
ENDBRANCH   1  11
BRANCH   6  12
ATOM     12  C   UNL     1       5.097   5.986  16.128  0.00  0.00    +0.000 C 
ATOM     13  N   UNL     1       5.850   6.130  15.261  0.00  0.00    +0.000 NA
ENDBRANCH   6  12
BRANCH   8  14
ATOM     14  C   UNL     1       2.090   7.073  19.877  0.00  0.00    +0.000 C 
BRANCH  14  15
ATOM     15  C   UNL     1       1.945   8.519  19.412  0.00  0.00    +0.000 C 
BRANCH  15  16
ATOM     16  O   UNL     1       0.559   8.892  19.429  0.00  0.00    +0.000 OA
BRANCH  16  17
ATOM     17  C   UNL     1       0.210   9.778  20.419  0.00  0.00    +0.000 A 
ATOM     18  C   UNL     1       0.376  11.162  20.320  0.00  0.00    +0.000 A 
ATOM     19  C   UNL     1       0.015  12.000  21.379  0.00  0.00    +0.000 A 
ATOM     20  C   UNL     1      -0.540  11.465  22.539  0.00  0.00    +0.000 A 
ATOM     21  C   UNL     1      -0.744  10.089  22.636  0.00  0.00    +0.000 A 
ATOM     22  C   UNL     1      -0.375   9.257  21.578  0.00  0.00    +0.000 A 
ATOM     23  F   UNL     1      -0.574   7.936  21.704  0.00  0.00    +0.000 F 
ENDBRANCH  16  17
ENDBRANCH  15  16
ENDBRANCH  14  15
ENDBRANCH   8  14
TORSDOF 6
ENDMDL
MODEL 5
REMARK VINA RESULT:      -7.2      4.340      7.912
REMARK  Name = 
REMARK  7 active torsions:
REMARK  status: ('A' for Active; 'I' for Inactive)
REMARK    1  A    between atoms: C_1  and  C_2
REMARK    2  A    between atoms: C_2  and  C_3
REMARK    3  A    between atoms: C_8  and  C_9
REMARK    4  A    between atoms: N_12  and  C_13
REMARK    5  A    between atoms: C_13  and  C_14
REMARK    6  A    between atoms: C_14  and  O_15
REMARK    7  A    between atoms: O_15  and  C_16
REMARK                            x       y       z     vdW  Elec       q    Type
REMARK                         _______ _______ _______ _____ _____    ______ ____
ROOT
ATOM      1  C   UNL     1       3.390   3.565  19.816  0.00  0.00    +0.000 A 
ATOM      2  C   UNL     1       2.278   3.509  20.689  0.00  0.00    +0.000 A 
ATOM      3  C   UNL     1       1.394   4.569  20.839  0.00  0.00    +0.000 A 
ATOM      4  C   UNL     1       1.577   5.735  20.103  0.00  0.00    +0.000 A 
ATOM      5  C   UNL     1       2.674   5.849  19.221  0.00  0.00    +0.000 A 
ATOM      6  C   UNL     1       3.096   6.887  18.344  0.00  0.00    +0.000 A 
ATOM      7  C   UNL     1       4.246   6.464  17.726  0.00  0.00    +0.000 A 
ATOM      8  N   UNL     1       4.548   5.203  18.187  0.00  0.00    +0.000 N 
ATOM      9  C   UNL     1       3.581   4.776  19.093  0.00  0.00    +0.000 A 
ENDROOT
BRANCH   1  11
ATOM     10  C   UNL     1       3.665   1.384  18.611  0.00  0.00    +0.000 C 
ATOM     11  C   UNL     1       4.221   2.309  19.686  0.00  0.00    +0.000 C 
ENDBRANCH   1  11
BRANCH   6  12
ATOM     12  C   UNL     1       2.459   8.151  18.128  0.00  0.00    +0.000 C 
ATOM     13  N   UNL     1       1.943   9.172  17.953  0.00  0.00    +0.000 NA
ENDBRANCH   6  12
BRANCH   8  14
ATOM     14  C   UNL     1       5.746   4.501  17.749  0.00  0.00    +0.000 C 
BRANCH  14  15
ATOM     15  C   UNL     1       5.499   3.645  16.511  0.00  0.00    +0.000 C 
BRANCH  15  16
ATOM     16  O   UNL     1       5.038   4.476  15.436  0.00  0.00    +0.000 OA
BRANCH  16  17
ATOM     17  C   UNL     1       5.693   4.293  14.242  0.00  0.00    +0.000 A 
ATOM     18  C   UNL     1       5.180   3.546  13.178  0.00  0.00    +0.000 A 
ATOM     19  C   UNL     1       5.913   3.389  12.000  0.00  0.00    +0.000 A 
ATOM     20  C   UNL     1       7.159   3.997  11.862  0.00  0.00    +0.000 A 
ATOM     21  C   UNL     1       7.665   4.775  12.902  0.00  0.00    +0.000 A 
ATOM     22  C   UNL     1       6.931   4.923  14.079  0.00  0.00    +0.000 A 
ATOM     23  F   UNL     1       7.449   5.669  15.067  0.00  0.00    +0.000 F 
ENDBRANCH  16  17
ENDBRANCH  15  16
ENDBRANCH  14  15
ENDBRANCH   8  14
TORSDOF 6
ENDMDL
MODEL 6
REMARK VINA RESULT:      -7.1      2.113      2.379
REMARK  Name = 
REMARK  7 active torsions:
REMARK  status: ('A' for Active; 'I' for Inactive)
REMARK    1  A    between atoms: C_1  and  C_2
REMARK    2  A    between atoms: C_2  and  C_3
REMARK    3  A    between atoms: C_8  and  C_9
REMARK    4  A    between atoms: N_12  and  C_13
REMARK    5  A    between atoms: C_13  and  C_14
REMARK    6  A    between atoms: C_14  and  O_15
REMARK    7  A    between atoms: O_15  and  C_16
REMARK                            x       y       z     vdW  Elec       q    Type
REMARK                         _______ _______ _______ _____ _____    ______ ____
ROOT
ATOM      1  C   UNL     1       2.002   4.077  19.157  0.00  0.00    +0.000 A 
ATOM      2  C   UNL     1       2.116   2.741  18.706  0.00  0.00    +0.000 A 
ATOM      3  C   UNL     1       2.953   2.376  17.660  0.00  0.00    +0.000 A 
ATOM      4  C   UNL     1       3.730   3.339  17.026  0.00  0.00    +0.000 A 
ATOM      5  C   UNL     1       3.652   4.690  17.430  0.00  0.00    +0.000 A 
ATOM      6  C   UNL     1       4.326   5.863  16.990  0.00  0.00    +0.000 A 
ATOM      7  C   UNL     1       3.851   6.915  17.732  0.00  0.00    +0.000 A 
ATOM      8  N   UNL     1       2.911   6.434  18.616  0.00  0.00    +0.000 N 
ATOM      9  C   UNL     1       2.781   5.055  18.478  0.00  0.00    +0.000 A 
ENDROOT
BRANCH   1  11
ATOM     10  C   UNL     1       1.411   3.321  21.474  0.00  0.00    +0.000 C 
ATOM     11  C   UNL     1       1.120   4.319  20.361  0.00  0.00    +0.000 C 
ENDBRANCH   1  11
BRANCH   6  12
ATOM     12  C   UNL     1       5.320   5.958  15.964  0.00  0.00    +0.000 C 
ATOM     13  N   UNL     1       6.123   6.036  15.134  0.00  0.00    +0.000 NA
ENDBRANCH   6  12
BRANCH   8  14
ATOM     14  C   UNL     1       2.187   7.323  19.513  0.00  0.00    +0.000 C 
BRANCH  14  15
ATOM     15  C   UNL     1       1.784   8.630  18.835  0.00  0.00    +0.000 C 
BRANCH  15  16
ATOM     16  O   UNL     1       0.945   9.390  19.717  0.00  0.00    +0.000 OA
BRANCH  16  17
ATOM     17  C   UNL     1       0.570  10.622  19.240  0.00  0.00    +0.000 A 
ATOM     18  C   UNL     1       1.437  11.714  19.133  0.00  0.00    +0.000 A 
ATOM     19  C   UNL     1       0.977  12.943  18.655  0.00  0.00    +0.000 A 
ATOM     20  C   UNL     1      -0.348  13.089  18.254  0.00  0.00    +0.000 A 
ATOM     21  C   UNL     1      -1.214  11.999  18.321  0.00  0.00    +0.000 A 
ATOM     22  C   UNL     1      -0.751  10.775  18.806  0.00  0.00    +0.000 A 
ATOM     23  F   UNL     1      -1.610   9.746  18.869  0.00  0.00    +0.000 F 
ENDBRANCH  16  17
ENDBRANCH  15  16
ENDBRANCH  14  15
ENDBRANCH   8  14
TORSDOF 6
ENDMDL
MODEL 7
REMARK VINA RESULT:      -7.1      2.041      2.258
REMARK  Name = 
REMARK  7 active torsions:
REMARK  status: ('A' for Active; 'I' for Inactive)
REMARK    1  A    between atoms: C_1  and  C_2
REMARK    2  A    between atoms: C_2  and  C_3
REMARK    3  A    between atoms: C_8  and  C_9
REMARK    4  A    between atoms: N_12  and  C_13
REMARK    5  A    between atoms: C_13  and  C_14
REMARK    6  A    between atoms: C_14  and  O_15
REMARK    7  A    between atoms: O_15  and  C_16
REMARK                            x       y       z     vdW  Elec       q    Type
REMARK                         _______ _______ _______ _____ _____    ______ ____
ROOT
ATOM      1  C   UNL     1       1.990   3.978  19.215  0.00  0.00    +0.000 A 
ATOM      2  C   UNL     1       2.121   2.645  18.758  0.00  0.00    +0.000 A 
ATOM      3  C   UNL     1       2.965   2.295  17.714  0.00  0.00    +0.000 A 
ATOM      4  C   UNL     1       3.733   3.268  17.085  0.00  0.00    +0.000 A 
ATOM      5  C   UNL     1       3.638   4.617  17.494  0.00  0.00    +0.000 A 
ATOM      6  C   UNL     1       4.300   5.799  17.061  0.00  0.00    +0.000 A 
ATOM      7  C   UNL     1       3.810   6.843  17.806  0.00  0.00    +0.000 A 
ATOM      8  N   UNL     1       2.874   6.348  18.685  0.00  0.00    +0.000 N 
ATOM      9  C   UNL     1       2.760   4.967  18.541  0.00  0.00    +0.000 A 
ENDROOT
BRANCH   1  11
ATOM     10  C   UNL     1       1.391   3.197  21.521  0.00  0.00    +0.000 C 
ATOM     11  C   UNL     1       1.102   4.205  20.417  0.00  0.00    +0.000 C 
ENDBRANCH   1  11
BRANCH   6  12
ATOM     12  C   UNL     1       5.295   5.910  16.038  0.00  0.00    +0.000 C 
ATOM     13  N   UNL     1       6.101   6.000  15.211  0.00  0.00    +0.000 NA
ENDBRANCH   6  12
BRANCH   8  14
ATOM     14  C   UNL     1       2.137   7.225  19.583  0.00  0.00    +0.000 C 
BRANCH  14  15
ATOM     15  C   UNL     1       1.854   8.590  18.961  0.00  0.00    +0.000 C 
BRANCH  15  16
ATOM     16  O   UNL     1       1.070   9.378  19.868  0.00  0.00    +0.000 OA
BRANCH  16  17
ATOM     17  C   UNL     1       0.239  10.293  19.268  0.00  0.00    +0.000 A 
ATOM     18  C   UNL     1      -0.982   9.965  18.673  0.00  0.00    +0.000 A 
ATOM     19  C   UNL     1      -1.765  10.949  18.065  0.00  0.00    +0.000 A 
ATOM     20  C   UNL     1      -1.348  12.278  18.066  0.00  0.00    +0.000 A 
ATOM     21  C   UNL     1      -0.149  12.624  18.688  0.00  0.00    +0.000 A 
ATOM     22  C   UNL     1       0.632  11.636  19.288  0.00  0.00    +0.000 A 
ATOM     23  F   UNL     1       1.786  11.997  19.870  0.00  0.00    +0.000 F 
ENDBRANCH  16  17
ENDBRANCH  15  16
ENDBRANCH  14  15
ENDBRANCH   8  14
TORSDOF 6
ENDMDL
MODEL 8
REMARK VINA RESULT:      -7.0      1.790      2.132
REMARK  Name = 
REMARK  7 active torsions:
REMARK  status: ('A' for Active; 'I' for Inactive)
REMARK    1  A    between atoms: C_1  and  C_2
REMARK    2  A    between atoms: C_2  and  C_3
REMARK    3  A    between atoms: C_8  and  C_9
REMARK    4  A    between atoms: N_12  and  C_13
REMARK    5  A    between atoms: C_13  and  C_14
REMARK    6  A    between atoms: C_14  and  O_15
REMARK    7  A    between atoms: O_15  and  C_16
REMARK                            x       y       z     vdW  Elec       q    Type
REMARK                         _______ _______ _______ _____ _____    ______ ____
ROOT
ATOM      1  C   UNL     1       2.348   4.039  18.952  0.00  0.00    +0.000 A 
ATOM      2  C   UNL     1       2.514   2.649  18.748  0.00  0.00    +0.000 A 
ATOM      3  C   UNL     1       3.420   2.133  17.832  0.00  0.00    +0.000 A 
ATOM      4  C   UNL     1       4.218   2.993  17.085  0.00  0.00    +0.000 A 
ATOM      5  C   UNL     1       4.090   4.391  17.242  0.00  0.00    +0.000 A 
ATOM      6  C   UNL     1       4.769   5.489  16.644  0.00  0.00    +0.000 A 
ATOM      7  C   UNL     1       4.229   6.640  17.163  0.00  0.00    +0.000 A 
ATOM      8  N   UNL     1       3.246   6.292  18.061  0.00  0.00    +0.000 N 
ATOM      9  C   UNL     1       3.149   4.906  18.159  0.00  0.00    +0.000 A 
ENDROOT
BRANCH   1  11
ATOM     10  C   UNL     1       1.391   3.469  21.198  0.00  0.00    +0.000 C 
ATOM     11  C   UNL     1       1.389   4.461  20.042  0.00  0.00    +0.000 C 
ENDBRANCH   1  11
BRANCH   6  12
ATOM     12  C   UNL     1       5.822   5.434  15.676  0.00  0.00    +0.000 C 
ATOM     13  N   UNL     1       6.673   5.388  14.893  0.00  0.00    +0.000 NA
ENDBRANCH   6  12
BRANCH   8  14
ATOM     14  C   UNL     1       2.451   7.302  18.746  0.00  0.00    +0.000 C 
BRANCH  14  15
ATOM     15  C   UNL     1       2.392   8.617  17.974  0.00  0.00    +0.000 C 
BRANCH  15  16
ATOM     16  O   UNL     1       1.102   9.221  18.151  0.00  0.00    +0.000 OA
BRANCH  16  17
ATOM     17  C   UNL     1       1.084  10.307  18.993  0.00  0.00    +0.000 A 
ATOM     18  C   UNL     1       1.593  11.564  18.655  0.00  0.00    +0.000 A 
ATOM     19  C   UNL     1       1.555  12.617  19.572  0.00  0.00    +0.000 A 
ATOM     20  C   UNL     1       0.986  12.433  20.829  0.00  0.00    +0.000 A 
ATOM     21  C   UNL     1       0.442  11.194  21.165  0.00  0.00    +0.000 A 
ATOM     22  C   UNL     1       0.488  10.144  20.248  0.00  0.00    +0.000 A 
ATOM     23  F   UNL     1      -0.034   8.960  20.603  0.00  0.00    +0.000 F 
ENDBRANCH  16  17
ENDBRANCH  15  16
ENDBRANCH  14  15
ENDBRANCH   8  14
TORSDOF 6
ENDMDL
MODEL 9
REMARK VINA RESULT:      -6.9      4.228      7.976
REMARK  Name = 
REMARK  7 active torsions:
REMARK  status: ('A' for Active; 'I' for Inactive)
REMARK    1  A    between atoms: C_1  and  C_2
REMARK    2  A    between atoms: C_2  and  C_3
REMARK    3  A    between atoms: C_8  and  C_9
REMARK    4  A    between atoms: N_12  and  C_13
REMARK    5  A    between atoms: C_13  and  C_14
REMARK    6  A    between atoms: C_14  and  O_15
REMARK    7  A    between atoms: O_15  and  C_16
REMARK                            x       y       z     vdW  Elec       q    Type
REMARK                         _______ _______ _______ _____ _____    ______ ____
ROOT
ATOM      1  C   UNL     1       3.424   3.890  19.453  0.00  0.00    +0.000 A 
ATOM      2  C   UNL     1       2.327   3.602  20.298  0.00  0.00    +0.000 A 
ATOM      3  C   UNL     1       1.341   4.537  20.585  0.00  0.00    +0.000 A 
ATOM      4  C   UNL     1       1.404   5.806  20.021  0.00  0.00    +0.000 A 
ATOM      5  C   UNL     1       2.480   6.152  19.175  0.00  0.00    +0.000 A 
ATOM      6  C   UNL     1       2.792   7.339  18.456  0.00  0.00    +0.000 A 
ATOM      7  C   UNL     1       3.976   7.125  17.797  0.00  0.00    +0.000 A 
ATOM      8  N   UNL     1       4.405   5.847  18.080  0.00  0.00    +0.000 N 
ATOM      9  C   UNL     1       3.489   5.203  18.908  0.00  0.00    +0.000 A 
ENDROOT
BRANCH   1  11
ATOM     10  C   UNL     1       3.635   1.529  18.637  0.00  0.00    +0.000 C 
ATOM     11  C   UNL     1       4.376   2.754  19.157  0.00  0.00    +0.000 C 
ENDBRANCH   1  11
BRANCH   6  12
ATOM     12  C   UNL     1       2.030   8.551  18.412  0.00  0.00    +0.000 C 
ATOM     13  N   UNL     1       1.414   9.530  18.375  0.00  0.00    +0.000 NA
ENDBRANCH   6  12
BRANCH   8  14
ATOM     14  C   UNL     1       5.666   5.337  17.561  0.00  0.00    +0.000 C 
BRANCH  14  15
ATOM     15  C   UNL     1       6.075   6.016  16.256  0.00  0.00    +0.000 C 
BRANCH  15  16
ATOM     16  O   UNL     1       7.253   5.384  15.735  0.00  0.00    +0.000 OA
BRANCH  16  17
ATOM     17  C   UNL     1       7.150   4.954  14.434  0.00  0.00    +0.000 A 
ATOM     18  C   UNL     1       7.881   5.497  13.373  0.00  0.00    +0.000 A 
ATOM     19  C   UNL     1       7.709   5.019  12.072  0.00  0.00    +0.000 A 
ATOM     20  C   UNL     1       6.820   3.976  11.819  0.00  0.00    +0.000 A 
ATOM     21  C   UNL     1       6.112   3.402  12.874  0.00  0.00    +0.000 A 
ATOM     22  C   UNL     1       6.283   3.888  14.170  0.00  0.00    +0.000 A 
ATOM     23  F   UNL     1       5.581   3.322  15.163  0.00  0.00    +0.000 F 
ENDBRANCH  16  17
ENDBRANCH  15  16
ENDBRANCH  14  15
ENDBRANCH   8  14
TORSDOF 6
ENDMDL
