MODEL 1
REMARK VINA RESULT:      -8.3      0.000      0.000
REMARK  Name = 
REMARK  5 active torsions:
REMARK  status: ('A' for Active; 'I' for Inactive)
REMARK    1  A    between atoms: C_2  and  C_3
REMARK    2  A    between atoms: C_3  and  N_4
REMARK    3  A    between atoms: N_13  and  C_14
REMARK    4  A    between atoms: C_16  and  S_17
REMARK    5  A    between atoms: S_17  and  N_20
REMARK                            x       y       z     vdW  Elec       q    Type
REMARK                         _______ _______ _______ _____ _____    ______ ____
ROOT
ATOM      1  C   UNL     1       1.037   9.146  20.082  0.00  0.00    +0.000 A 
ATOM      2  C   UNL     1       1.451   7.835  20.343  0.00  0.00    +0.000 A 
ATOM      3  C   UNL     1       2.225   7.133  19.419  0.00  0.00    +0.000 A 
ATOM      4  C   UNL     1       2.556   7.713  18.190  0.00  0.00    +0.000 A 
ATOM      5  C   UNL     1       2.162   9.024  17.918  0.00  0.00    +0.000 A 
ATOM      6  C   UNL     1       1.423   9.743  18.867  0.00  0.00    +0.000 A 
ATOM      7 CL   UNL     1       1.017  11.389  18.511  0.00  0.00    +0.000 Cl
ENDROOT
BRANCH   1  10
ATOM      8  O   UNL     1       1.301   9.571  22.993  0.00  0.00    +0.000 OA
ATOM      9  C   UNL     1       0.328   9.958  22.347  0.00  0.00    +0.000 C 
ATOM     10  N   UNL     1       0.189   9.853  20.971  0.00  0.00    +0.000 N 
ATOM     11  H   UNL     1      -0.623  10.309  20.561  0.00  0.00    +0.000 HD
BRANCH   9  12
ATOM     12  C   UNL     1      -0.933  10.418  23.072  0.00  0.00    +0.000 C 
BRANCH  12  13
ATOM     13  N   UNL     1      -1.193  11.846  22.924  0.00  0.00    +0.000 N 
ATOM     14  N   UNL     1      -0.199  12.600  22.347  0.00  0.00    +0.000 NA
ATOM     15  C   UNL     1      -0.463  13.848  22.132  0.00  0.00    +0.000 A 
ATOM     16  C   UNL     1      -1.713  14.531  22.490  0.00  0.00    +0.000 A 
ATOM     17 CL   UNL     1      -1.811  16.209  22.148  0.00  0.00    +0.000 Cl
ATOM     18  C   UNL     1      -2.664  13.796  23.066  0.00  0.00    +0.000 A 
ATOM     19 CL   UNL     1      -4.183  14.446  23.569  0.00  0.00    +0.000 Cl
ATOM     20  C   UNL     1      -2.440  12.342  23.301  0.00  0.00    +0.000 A 
ATOM     21  O   UNL     1      -3.310  11.635  23.806  0.00  0.00    +0.000 OA
ENDBRANCH  12  13
ENDBRANCH   9  12
ENDBRANCH   1  10
BRANCH   3  22
ATOM     22  S   UNL     1       2.772   5.468  19.739  0.00  0.00    +0.000 S 
ATOM     23  O   UNL     1       4.208   5.495  19.587  0.00  0.00    +0.000 OA
ATOM     24  O   UNL     1       2.164   5.062  20.988  0.00  0.00    +0.000 OA
BRANCH  22  25
ATOM     25  N   UNL     1       2.128   4.496  18.496  0.00  0.00    +0.000 NA
ATOM     26  C   UNL     1       1.227   3.361  18.887  0.00  0.00    +0.000 C 
ATOM     27  C   UNL     1       2.029   2.131  19.342  0.00  0.00    +0.000 C 
ATOM     28  O   UNL     1       2.984   1.720  18.352  0.00  0.00    +0.000 OA
ATOM     29  C   UNL     1       3.883   2.787  18.014  0.00  0.00    +0.000 C 
ATOM     30  C   UNL     1       3.118   4.003  17.485  0.00  0.00    +0.000 C 
ENDBRANCH  22  25
ENDBRANCH   3  22
TORSDOF 5
ENDMDL
MODEL 2
REMARK VINA RESULT:      -7.7      1.446      1.583
REMARK  Name = 
REMARK  5 active torsions:
REMARK  status: ('A' for Active; 'I' for Inactive)
REMARK    1  A    between atoms: C_2  and  C_3
REMARK    2  A    between atoms: C_3  and  N_4
REMARK    3  A    between atoms: N_13  and  C_14
REMARK    4  A    between atoms: C_16  and  S_17
REMARK    5  A    between atoms: S_17  and  N_20
REMARK                            x       y       z     vdW  Elec       q    Type
REMARK                         _______ _______ _______ _____ _____    ______ ____
ROOT
ATOM      1  C   UNL     1       1.341   9.362  20.227  0.00  0.00    +0.000 A 
ATOM      2  C   UNL     1       1.748   8.048  20.483  0.00  0.00    +0.000 A 
ATOM      3  C   UNL     1       2.168   7.215  19.446  0.00  0.00    +0.000 A 
ATOM      4  C   UNL     1       2.138   7.666  18.122  0.00  0.00    +0.000 A 
ATOM      5  C   UNL     1       1.748   8.978  17.850  0.00  0.00    +0.000 A 
ATOM      6  C   UNL     1       1.369   9.827  18.898  0.00  0.00    +0.000 A 
ATOM      7 CL   UNL     1       0.958  11.465  18.515  0.00  0.00    +0.000 Cl
ENDROOT
BRANCH   1  10
ATOM      8  O   UNL     1      -0.814   8.863  22.183  0.00  0.00    +0.000 OA
ATOM      9  C   UNL     1      -0.226   9.940  22.098  0.00  0.00    +0.000 C 
ATOM     10  N   UNL     1       0.841  10.203  21.252  0.00  0.00    +0.000 N 
ATOM     11  H   UNL     1       1.295  11.108  21.362  0.00  0.00    +0.000 HD
BRANCH   9  12
ATOM     12  C   UNL     1      -0.788  11.171  22.802  0.00  0.00    +0.000 C 
BRANCH  12  13
ATOM     13  N   UNL     1      -1.886  11.799  22.076  0.00  0.00    +0.000 N 
ATOM     14  N   UNL     1      -1.746  11.905  20.712  0.00  0.00    +0.000 NA
ATOM     15  C   UNL     1      -2.756  12.378  20.057  0.00  0.00    +0.000 A 
ATOM     16  C   UNL     1      -4.015  12.848  20.649  0.00  0.00    +0.000 A 
ATOM     17 CL   UNL     1      -5.193  13.481  19.576  0.00  0.00    +0.000 Cl
ATOM     18  C   UNL     1      -4.135  12.758  21.973  0.00  0.00    +0.000 A 
ATOM     19 CL   UNL     1      -5.538  13.285  22.832  0.00  0.00    +0.000 Cl
ATOM     20  C   UNL     1      -3.025  12.181  22.783  0.00  0.00    +0.000 A 
ATOM     21  O   UNL     1      -3.119  12.062  24.003  0.00  0.00    +0.000 OA
ENDBRANCH  12  13
ENDBRANCH   9  12
ENDBRANCH   1  10
BRANCH   3  22
ATOM     22  S   UNL     1       2.701   5.544  19.754  0.00  0.00    +0.000 S 
ATOM     23  O   UNL     1       4.141   5.571  19.658  0.00  0.00    +0.000 OA
ATOM     24  O   UNL     1       2.045   5.114  20.971  0.00  0.00    +0.000 OA
BRANCH  22  25
ATOM     25  N   UNL     1       2.104   4.596  18.469  0.00  0.00    +0.000 NA
ATOM     26  C   UNL     1       1.185   3.457  18.804  0.00  0.00    +0.000 C 
ATOM     27  C   UNL     1       1.965   2.216  19.267  0.00  0.00    +0.000 C 
ATOM     28  O   UNL     1       2.958   1.820  18.308  0.00  0.00    +0.000 OA
ATOM     29  C   UNL     1       3.872   2.891  18.025  0.00  0.00    +0.000 C 
ATOM     30  C   UNL     1       3.132   4.118  17.490  0.00  0.00    +0.000 C 
ENDBRANCH  22  25
ENDBRANCH   3  22
TORSDOF 5
ENDMDL
MODEL 3
REMARK VINA RESULT:      -7.7      1.223      1.364
REMARK  Name = 
REMARK  5 active torsions:
REMARK  status: ('A' for Active; 'I' for Inactive)
REMARK    1  A    between atoms: C_2  and  C_3
REMARK    2  A    between atoms: C_3  and  N_4
REMARK    3  A    between atoms: N_13  and  C_14
REMARK    4  A    between atoms: C_16  and  S_17
REMARK    5  A    between atoms: S_17  and  N_20
REMARK                            x       y       z     vdW  Elec       q    Type
REMARK                         _______ _______ _______ _____ _____    ______ ____
ROOT
ATOM      1  C   UNL     1       1.520   8.727  20.240  0.00  0.00    +0.000 A 
ATOM      2  C   UNL     1       2.211   7.515  20.128  0.00  0.00    +0.000 A 
ATOM      3  C   UNL     1       2.565   7.007  18.879  0.00  0.00    +0.000 A 
ATOM      4  C   UNL     1       2.186   7.677  17.711  0.00  0.00    +0.000 A 
ATOM      5  C   UNL     1       1.507   8.893  17.804  0.00  0.00    +0.000 A 
ATOM      6  C   UNL     1       1.192   9.424  19.061  0.00  0.00    +0.000 A 
ATOM      7 CL   UNL     1       0.410  10.968  19.124  0.00  0.00    +0.000 Cl
ENDROOT
BRANCH   1  10
ATOM      8  O   UNL     1      -1.010   8.236  21.683  0.00  0.00    +0.000 OA
ATOM      9  C   UNL     1      -0.150   9.017  22.089  0.00  0.00    +0.000 C 
ATOM     10  N   UNL     1       1.084   9.227  21.492  0.00  0.00    +0.000 N 
ATOM     11  H   UNL     1       1.736   9.826  21.996  0.00  0.00    +0.000 HD
BRANCH   9  12
ATOM     12  C   UNL     1      -0.480   9.997  23.210  0.00  0.00    +0.000 C 
BRANCH  12  13
ATOM     13  N   UNL     1      -0.721  11.354  22.735  0.00  0.00    +0.000 N 
ATOM     14  N   UNL     1       0.306  11.963  22.051  0.00  0.00    +0.000 NA
ATOM     15  C   UNL     1       0.062  13.130  21.552  0.00  0.00    +0.000 A 
ATOM     16  C   UNL     1      -1.197  13.875  21.690  0.00  0.00    +0.000 A 
ATOM     17 CL   UNL     1      -1.263  15.433  20.978  0.00  0.00    +0.000 Cl
ATOM     18  C   UNL     1      -2.179  13.285  22.370  0.00  0.00    +0.000 A 
ATOM     19 CL   UNL     1      -3.714  14.029  22.645  0.00  0.00    +0.000 Cl
ATOM     20  C   UNL     1      -1.979  11.921  22.934  0.00  0.00    +0.000 A 
ATOM     21  O   UNL     1      -2.878  11.343  23.543  0.00  0.00    +0.000 OA
ENDBRANCH  12  13
ENDBRANCH   9  12
ENDBRANCH   1  10
BRANCH   3  22
ATOM     22  S   UNL     1       3.456   5.473  18.718  0.00  0.00    +0.000 S 
ATOM     23  O   UNL     1       3.628   5.271  17.299  0.00  0.00    +0.000 OA
ATOM     24  O   UNL     1       4.599   5.560  19.601  0.00  0.00    +0.000 OA
BRANCH  22  25
ATOM     25  N   UNL     1       2.427   4.247  19.304  0.00  0.00    +0.000 NA
ATOM     26  C   UNL     1       2.981   3.290  20.319  0.00  0.00    +0.000 C 
ATOM     27  C   UNL     1       3.813   2.180  19.656  0.00  0.00    +0.000 C 
ATOM     28  O   UNL     1       3.071   1.490  18.639  0.00  0.00    +0.000 OA
ATOM     29  C   UNL     1       2.584   2.395  17.637  0.00  0.00    +0.000 C 
ATOM     30  C   UNL     1       1.688   3.471  18.258  0.00  0.00    +0.000 C 
ENDBRANCH  22  25
ENDBRANCH   3  22
TORSDOF 5
ENDMDL
MODEL 4
REMARK VINA RESULT:      -7.6      0.887      1.074
REMARK  Name = 
REMARK  5 active torsions:
REMARK  status: ('A' for Active; 'I' for Inactive)
REMARK    1  A    between atoms: C_2  and  C_3
REMARK    2  A    between atoms: C_3  and  N_4
REMARK    3  A    between atoms: N_13  and  C_14
REMARK    4  A    between atoms: C_16  and  S_17
REMARK    5  A    between atoms: S_17  and  N_20
REMARK                            x       y       z     vdW  Elec       q    Type
REMARK                         _______ _______ _______ _____ _____    ______ ____
ROOT
ATOM      1  C   UNL     1       1.072   8.707  20.149  0.00  0.00    +0.000 A 
ATOM      2  C   UNL     1       1.262   7.347  20.416  0.00  0.00    +0.000 A 
ATOM      3  C   UNL     1       1.995   6.543  19.543  0.00  0.00    +0.000 A 
ATOM      4  C   UNL     1       2.507   7.075  18.355  0.00  0.00    +0.000 A 
ATOM      5  C   UNL     1       2.338   8.433  18.079  0.00  0.00    +0.000 A 
ATOM      6  C   UNL     1       1.640   9.248  18.980  0.00  0.00    +0.000 A 
ATOM      7 CL   UNL     1       1.516  10.938  18.625  0.00  0.00    +0.000 Cl
ENDROOT
BRANCH   1  10
ATOM      8  O   UNL     1       1.465   9.470  22.975  0.00  0.00    +0.000 OA
ATOM      9  C   UNL     1       0.469   9.793  22.328  0.00  0.00    +0.000 C 
ATOM     10  N   UNL     1       0.271   9.527  20.982  0.00  0.00    +0.000 N 
ATOM     11  H   UNL     1      -0.554   9.944  20.554  0.00  0.00    +0.000 HD
BRANCH   9  12
ATOM     12  C   UNL     1      -0.754  10.355  23.045  0.00  0.00    +0.000 C 
BRANCH  12  13
ATOM     13  N   UNL     1      -0.997  11.763  22.750  0.00  0.00    +0.000 N 
ATOM     14  N   UNL     1       0.002  12.439  22.090  0.00  0.00    +0.000 NA
ATOM     15  C   UNL     1      -0.248  13.661  21.749  0.00  0.00    +0.000 A 
ATOM     16  C   UNL     1      -1.485  14.396  22.042  0.00  0.00    +0.000 A 
ATOM     17 CL   UNL     1      -1.564  16.029  21.528  0.00  0.00    +0.000 Cl
ATOM     18  C   UNL     1      -2.441  13.738  22.699  0.00  0.00    +0.000 A 
ATOM     19 CL   UNL     1      -3.946  14.458  23.144  0.00  0.00    +0.000 Cl
ATOM     20  C   UNL     1      -2.234  12.314  23.084  0.00  0.00    +0.000 A 
ATOM     21  O   UNL     1      -3.108  11.675  23.666  0.00  0.00    +0.000 OA
ENDBRANCH  12  13
ENDBRANCH   9  12
ENDBRANCH   1  10
BRANCH   3  22
ATOM     22  S   UNL     1       2.259   4.812  19.873  0.00  0.00    +0.000 S 
ATOM     23  O   UNL     1       2.840   4.752  21.193  0.00  0.00    +0.000 OA
ATOM     24  O   UNL     1       1.013   4.137  19.577  0.00  0.00    +0.000 OA
BRANCH  22  25
ATOM     25  N   UNL     1       3.429   4.276  18.756  0.00  0.00    +0.000 NA
ATOM     26  C   UNL     1       2.950   3.568  17.521  0.00  0.00    +0.000 C 
ATOM     27  C   UNL     1       2.637   2.089  17.801  0.00  0.00    +0.000 C 
ATOM     28  O   UNL     1       3.754   1.408  18.391  0.00  0.00    +0.000 OA
ATOM     29  C   UNL     1       4.182   2.050  19.602  0.00  0.00    +0.000 C 
ATOM     30  C   UNL     1       4.574   3.507  19.342  0.00  0.00    +0.000 C 
ENDBRANCH  22  25
ENDBRANCH   3  22
TORSDOF 5
ENDMDL
MODEL 5
REMARK VINA RESULT:      -7.5      4.606      8.685
REMARK  Name = 
REMARK  5 active torsions:
REMARK  status: ('A' for Active; 'I' for Inactive)
REMARK    1  A    between atoms: C_2  and  C_3
REMARK    2  A    between atoms: C_3  and  N_4
REMARK    3  A    between atoms: N_13  and  C_14
REMARK    4  A    between atoms: C_16  and  S_17
REMARK    5  A    between atoms: S_17  and  N_20
REMARK                            x       y       z     vdW  Elec       q    Type
REMARK                         _______ _______ _______ _____ _____    ______ ____
ROOT
ATOM      1  C   UNL     1       0.962   9.217  20.070  0.00  0.00    +0.000 A 
ATOM      2  C   UNL     1       0.038   9.869  19.246  0.00  0.00    +0.000 A 
ATOM      3  C   UNL     1      -0.877  10.777  19.778  0.00  0.00    +0.000 A 
ATOM      4  C   UNL     1      -0.921  11.011  21.156  0.00  0.00    +0.000 A 
ATOM      5  C   UNL     1       0.002  10.379  21.992  0.00  0.00    +0.000 A 
ATOM      6  C   UNL     1       0.950   9.501  21.450  0.00  0.00    +0.000 A 
ATOM      7 CL   UNL     1       2.115   8.795  22.518  0.00  0.00    +0.000 Cl
ENDROOT
BRANCH   1  10
ATOM      8  O   UNL     1       2.122   8.942  17.368  0.00  0.00    +0.000 OA
ATOM      9  C   UNL     1       2.308   8.117  18.262  0.00  0.00    +0.000 C 
ATOM     10  N   UNL     1       1.852   8.236  19.566  0.00  0.00    +0.000 N 
ATOM     11  H   UNL     1       2.169   7.526  20.224  0.00  0.00    +0.000 HD
BRANCH   9  12
ATOM     12  C   UNL     1       2.907   6.755  17.928  0.00  0.00    +0.000 C 
BRANCH  12  13
ATOM     13  N   UNL     1       2.499   5.704  18.853  0.00  0.00    +0.000 N 
ATOM     14  N   UNL     1       2.858   5.864  20.171  0.00  0.00    +0.000 NA
ATOM     15  C   UNL     1       2.420   4.980  21.006  0.00  0.00    +0.000 A 
ATOM     16  C   UNL     1       1.610   3.804  20.662  0.00  0.00    +0.000 A 
ATOM     17 CL   UNL     1       1.189   2.744  21.942  0.00  0.00    +0.000 Cl
ATOM     18  C   UNL     1       1.283   3.647  19.379  0.00  0.00    +0.000 A 
ATOM     19 CL   UNL     1       0.357   2.309  18.800  0.00  0.00    +0.000 Cl
ATOM     20  C   UNL     1       1.719   4.653  18.371  0.00  0.00    +0.000 A 
ATOM     21  O   UNL     1       1.409   4.547  17.186  0.00  0.00    +0.000 OA
ENDBRANCH  12  13
ENDBRANCH   9  12
ENDBRANCH   1  10
BRANCH   3  22
ATOM     22  S   UNL     1      -2.052  11.626  18.742  0.00  0.00    +0.000 S 
ATOM     23  O   UNL     1      -2.916  12.348  19.646  0.00  0.00    +0.000 OA
ATOM     24  O   UNL     1      -1.289  12.321  17.728  0.00  0.00    +0.000 OA
BRANCH  22  25
ATOM     25  N   UNL     1      -2.982  10.423  17.973  0.00  0.00    +0.000 NA
ATOM     26  C   UNL     1      -2.485   9.880  16.664  0.00  0.00    +0.000 C 
ATOM     27  C   UNL     1      -2.842  10.809  15.492  0.00  0.00    +0.000 C 
ATOM     28  O   UNL     1      -4.249  11.088  15.440  0.00  0.00    +0.000 OA
ATOM     29  C   UNL     1      -4.719  11.657  16.671  0.00  0.00    +0.000 C 
ATOM     30  C   UNL     1      -4.445  10.719  17.850  0.00  0.00    +0.000 C 
ENDBRANCH  22  25
ENDBRANCH   3  22
TORSDOF 5
ENDMDL
MODEL 6
REMARK VINA RESULT:      -7.5      1.118      1.149
REMARK  Name = 
REMARK  5 active torsions:
REMARK  status: ('A' for Active; 'I' for Inactive)
REMARK    1  A    between atoms: C_2  and  C_3
REMARK    2  A    between atoms: C_3  and  N_4
REMARK    3  A    between atoms: N_13  and  C_14
REMARK    4  A    between atoms: C_16  and  S_17
REMARK    5  A    between atoms: S_17  and  N_20
REMARK                            x       y       z     vdW  Elec       q    Type
REMARK                         _______ _______ _______ _____ _____    ______ ____
ROOT
ATOM      1  C   UNL     1       1.281   9.154  20.342  0.00  0.00    +0.000 A 
ATOM      2  C   UNL     1       1.807   7.866  20.492  0.00  0.00    +0.000 A 
ATOM      3  C   UNL     1       2.241   7.138  19.384  0.00  0.00    +0.000 A 
ATOM      4  C   UNL     1       2.105   7.665  18.096  0.00  0.00    +0.000 A 
ATOM      5  C   UNL     1       1.594   8.953  17.929  0.00  0.00    +0.000 A 
ATOM      6  C   UNL     1       1.201   9.701  19.047  0.00  0.00    +0.000 A 
ATOM      7 CL   UNL     1       0.637  11.318  18.793  0.00  0.00    +0.000 Cl
ENDROOT
BRANCH   1  10
ATOM      8  O   UNL     1      -0.911   8.463  22.197  0.00  0.00    +0.000 OA
ATOM      9  C   UNL     1      -0.317   9.539  22.237  0.00  0.00    +0.000 C 
ATOM     10  N   UNL     1       0.766   9.884  21.443  0.00  0.00    +0.000 N 
ATOM     11  H   UNL     1       1.222  10.769  21.656  0.00  0.00    +0.000 HD
BRANCH   9  12
ATOM     12  C   UNL     1      -0.885  10.692  23.060  0.00  0.00    +0.000 C 
BRANCH  12  13
ATOM     13  N   UNL     1      -0.875  11.965  22.349  0.00  0.00    +0.000 N 
ATOM     14  N   UNL     1       0.356  12.473  22.004  0.00  0.00    +0.000 NA
ATOM     15  C   UNL     1       0.362  13.555  21.296  0.00  0.00    +0.000 A 
ATOM     16  C   UNL     1      -0.826  14.304  20.867  0.00  0.00    +0.000 A 
ATOM     17 CL   UNL     1      -0.560  15.743  19.972  0.00  0.00    +0.000 Cl
ATOM     18  C   UNL     1      -2.013  13.815  21.221  0.00  0.00    +0.000 A 
ATOM     19 CL   UNL     1      -3.508  14.582  20.819  0.00  0.00    +0.000 Cl
ATOM     20  C   UNL     1      -2.093  12.548  22.000  0.00  0.00    +0.000 A 
ATOM     21  O   UNL     1      -3.176  12.059  22.317  0.00  0.00    +0.000 OA
ENDBRANCH  12  13
ENDBRANCH   9  12
ENDBRANCH   1  10
BRANCH   3  22
ATOM     22  S   UNL     1       2.925   5.503  19.557  0.00  0.00    +0.000 S 
ATOM     23  O   UNL     1       4.350   5.657  19.375  0.00  0.00    +0.000 OA
ATOM     24  O   UNL     1       2.387   4.952  20.782  0.00  0.00    +0.000 OA
BRANCH  22  25
ATOM     25  N   UNL     1       2.325   4.582  18.254  0.00  0.00    +0.000 NA
ATOM     26  C   UNL     1       1.282   3.543  18.550  0.00  0.00    +0.000 C 
ATOM     27  C   UNL     1       1.911   2.247  19.088  0.00  0.00    +0.000 C 
ATOM     28  O   UNL     1       2.920   1.736  18.204  0.00  0.00    +0.000 OA
ATOM     29  C   UNL     1       3.948   2.709  17.961  0.00  0.00    +0.000 C 
ATOM     30  C   UNL     1       3.362   3.986  17.354  0.00  0.00    +0.000 C 
ENDBRANCH  22  25
ENDBRANCH   3  22
TORSDOF 5
ENDMDL
MODEL 7
REMARK VINA RESULT:      -7.4      1.561      2.041
REMARK  Name = 
REMARK  5 active torsions:
REMARK  status: ('A' for Active; 'I' for Inactive)
REMARK    1  A    between atoms: C_2  and  C_3
REMARK    2  A    between atoms: C_3  and  N_4
REMARK    3  A    between atoms: N_13  and  C_14
REMARK    4  A    between atoms: C_16  and  S_17
REMARK    5  A    between atoms: S_17  and  N_20
REMARK                            x       y       z     vdW  Elec       q    Type
REMARK                         _______ _______ _______ _____ _____    ______ ____
ROOT
ATOM      1  C   UNL     1       1.577   8.663  20.266  0.00  0.00    +0.000 A 
ATOM      2  C   UNL     1       2.269   7.456  20.126  0.00  0.00    +0.000 A 
ATOM      3  C   UNL     1       2.587   6.957  18.863  0.00  0.00    +0.000 A 
ATOM      4  C   UNL     1       2.168   7.632  17.711  0.00  0.00    +0.000 A 
ATOM      5  C   UNL     1       1.487   8.844  17.833  0.00  0.00    +0.000 A 
ATOM      6  C   UNL     1       1.209   9.366  19.103  0.00  0.00    +0.000 A 
ATOM      7 CL   UNL     1       0.423  10.906  19.200  0.00  0.00    +0.000 Cl
ENDROOT
BRANCH   1  10
ATOM      8  O   UNL     1      -1.001   8.358  21.675  0.00  0.00    +0.000 OA
ATOM      9  C   UNL     1      -0.075   9.038  22.116  0.00  0.00    +0.000 C 
ATOM     10  N   UNL     1       1.179   9.154  21.535  0.00  0.00    +0.000 N 
ATOM     11  H   UNL     1       1.879   9.669  22.065  0.00  0.00    +0.000 HD
BRANCH   9  12
ATOM     12  C   UNL     1      -0.323  10.001  23.273  0.00  0.00    +0.000 C 
BRANCH  12  13
ATOM     13  N   UNL     1      -1.110  11.168  22.891  0.00  0.00    +0.000 N 
ATOM     14  N   UNL     1      -2.424  11.189  23.296  0.00  0.00    +0.000 NA
ATOM     15  C   UNL     1      -3.097  12.262  23.037  0.00  0.00    +0.000 A 
ATOM     16  C   UNL     1      -2.591  13.436  22.313  0.00  0.00    +0.000 A 
ATOM     17 CL   UNL     1      -3.692  14.723  22.047  0.00  0.00    +0.000 Cl
ATOM     18  C   UNL     1      -1.322  13.399  21.908  0.00  0.00    +0.000 A 
ATOM     19 CL   UNL     1      -0.576  14.683  21.026  0.00  0.00    +0.000 Cl
ATOM     20  C   UNL     1      -0.478  12.210  22.213  0.00  0.00    +0.000 A 
ATOM     21  O   UNL     1       0.703  12.160  21.875  0.00  0.00    +0.000 OA
ENDBRANCH  12  13
ENDBRANCH   9  12
ENDBRANCH   1  10
BRANCH   3  22
ATOM     22  S   UNL     1       3.479   5.428  18.665  0.00  0.00    +0.000 S 
ATOM     23  O   UNL     1       3.620   5.242  17.240  0.00  0.00    +0.000 OA
ATOM     24  O   UNL     1       4.641   5.509  19.523  0.00  0.00    +0.000 OA
BRANCH  22  25
ATOM     25  N   UNL     1       2.467   4.192  19.259  0.00  0.00    +0.000 NA
ATOM     26  C   UNL     1       3.029   3.262  20.296  0.00  0.00    +0.000 C 
ATOM     27  C   UNL     1       3.890   2.158  19.661  0.00  0.00    +0.000 C 
ATOM     28  O   UNL     1       3.173   1.437  18.648  0.00  0.00    +0.000 OA
ATOM     29  C   UNL     1       2.679   2.316  17.626  0.00  0.00    +0.000 C 
ATOM     30  C   UNL     1       1.756   3.384  18.218  0.00  0.00    +0.000 C 
ENDBRANCH  22  25
ENDBRANCH   3  22
TORSDOF 5
ENDMDL
MODEL 8
REMARK VINA RESULT:      -7.4      3.307      4.421
REMARK  Name = 
REMARK  5 active torsions:
REMARK  status: ('A' for Active; 'I' for Inactive)
REMARK    1  A    between atoms: C_2  and  C_3
REMARK    2  A    between atoms: C_3  and  N_4
REMARK    3  A    between atoms: N_13  and  C_14
REMARK    4  A    between atoms: C_16  and  S_17
REMARK    5  A    between atoms: S_17  and  N_20
REMARK                            x       y       z     vdW  Elec       q    Type
REMARK                         _______ _______ _______ _____ _____    ______ ____
ROOT
ATOM      1  C   UNL     1       2.011   7.492  19.571  0.00  0.00    +0.000 A 
ATOM      2  C   UNL     1       2.939   6.755  18.828  0.00  0.00    +0.000 A 
ATOM      3  C   UNL     1       3.239   5.436  19.166  0.00  0.00    +0.000 A 
ATOM      4  C   UNL     1       2.655   4.845  20.290  0.00  0.00    +0.000 A 
ATOM      5  C   UNL     1       1.717   5.561  21.036  0.00  0.00    +0.000 A 
ATOM      6  C   UNL     1       1.383   6.871  20.668  0.00  0.00    +0.000 A 
ATOM      7 CL   UNL     1       0.165   7.693  21.584  0.00  0.00    +0.000 Cl
ENDROOT
BRANCH   1  10
ATOM      8  O   UNL     1       2.293   8.984  17.038  0.00  0.00    +0.000 OA
ATOM      9  C   UNL     1       1.965   9.520  18.095  0.00  0.00    +0.000 C 
ATOM     10  N   UNL     1       1.744   8.856  19.293  0.00  0.00    +0.000 N 
ATOM     11  H   UNL     1       1.377   9.415  20.061  0.00  0.00    +0.000 HD
BRANCH   9  12
ATOM     12  C   UNL     1       1.975  11.041  18.213  0.00  0.00    +0.000 C 
BRANCH  12  13
ATOM     13  N   UNL     1       0.705  11.591  18.672  0.00  0.00    +0.000 N 
ATOM     14  N   UNL     1      -0.378  10.743  18.661  0.00  0.00    +0.000 NA
ATOM     15  C   UNL     1      -1.483  11.202  19.151  0.00  0.00    +0.000 A 
ATOM     16  C   UNL     1      -1.688  12.558  19.678  0.00  0.00    +0.000 A 
ATOM     17 CL   UNL     1      -3.262  12.950  20.232  0.00  0.00    +0.000 Cl
ATOM     18  C   UNL     1      -0.638  13.378  19.667  0.00  0.00    +0.000 A 
ATOM     19 CL   UNL     1      -0.711  15.011  20.227  0.00  0.00    +0.000 Cl
ATOM     20  C   UNL     1       0.676  12.898  19.155  0.00  0.00    +0.000 A 
ATOM     21  O   UNL     1       1.668  13.625  19.159  0.00  0.00    +0.000 OA
ENDBRANCH  12  13
ENDBRANCH   9  12
ENDBRANCH   1  10
BRANCH   3  22
ATOM     22  S   UNL     1       4.409   4.478  18.223  0.00  0.00    +0.000 S 
ATOM     23  O   UNL     1       5.178   3.737  19.196  0.00  0.00    +0.000 OA
ATOM     24  O   UNL     1       3.655   3.795  17.194  0.00  0.00    +0.000 OA
BRANCH  22  25
ATOM     25  N   UNL     1       5.452   5.591  17.464  0.00  0.00    +0.000 NA
ATOM     26  C   UNL     1       5.611   5.501  15.974  0.00  0.00    +0.000 C 
ATOM     27  C   UNL     1       6.608   4.400  15.576  0.00  0.00    +0.000 C 
ATOM     28  O   UNL     1       7.876   4.566  16.226  0.00  0.00    +0.000 OA
ATOM     29  C   UNL     1       7.735   4.599  17.655  0.00  0.00    +0.000 C 
ATOM     30  C   UNL     1       6.806   5.735  18.088  0.00  0.00    +0.000 C 
ENDBRANCH  22  25
ENDBRANCH   3  22
TORSDOF 5
ENDMDL
MODEL 9
REMARK VINA RESULT:      -7.4      2.910      3.489
REMARK  Name = 
REMARK  5 active torsions:
REMARK  status: ('A' for Active; 'I' for Inactive)
REMARK    1  A    between atoms: C_2  and  C_3
REMARK    2  A    between atoms: C_3  and  N_4
REMARK    3  A    between atoms: N_13  and  C_14
REMARK    4  A    between atoms: C_16  and  S_17
REMARK    5  A    between atoms: S_17  and  N_20
REMARK                            x       y       z     vdW  Elec       q    Type
REMARK                         _______ _______ _______ _____ _____    ______ ____
ROOT
ATOM      1  C   UNL     1       1.148   9.294  19.066  0.00  0.00    +0.000 A 
ATOM      2  C   UNL     1       2.044   8.431  18.426  0.00  0.00    +0.000 A 
ATOM      3  C   UNL     1       2.538   7.301  19.078  0.00  0.00    +0.000 A 
ATOM      4  C   UNL     1       2.185   7.042  20.406  0.00  0.00    +0.000 A 
ATOM      5  C   UNL     1       1.282   7.885  21.057  0.00  0.00    +0.000 A 
ATOM      6  C   UNL     1       0.752   8.995  20.384  0.00  0.00    +0.000 A 
ATOM      7 CL   UNL     1      -0.415   9.971  21.211  0.00  0.00    +0.000 Cl
ENDROOT
BRANCH   1  10
ATOM      8  O   UNL     1       1.872  12.100  19.638  0.00  0.00    +0.000 OA
ATOM      9  C   UNL     1       1.014  11.786  18.813  0.00  0.00    +0.000 C 
ATOM     10  N   UNL     1       0.690  10.486  18.452  0.00  0.00    +0.000 N 
ATOM     11  H   UNL     1       0.032  10.380  17.682  0.00  0.00    +0.000 HD
BRANCH   9  12
ATOM     12  C   UNL     1       0.069  12.846  18.257  0.00  0.00    +0.000 C 
BRANCH  12  13
ATOM     13  N   UNL     1      -1.339  12.493  18.400  0.00  0.00    +0.000 N 
ATOM     14  N   UNL     1      -1.913  11.801  17.358  0.00  0.00    +0.000 NA
ATOM     15  C   UNL     1      -3.135  11.409  17.522  0.00  0.00    +0.000 A 
ATOM     16  C   UNL     1      -3.968  11.675  18.702  0.00  0.00    +0.000 A 
ATOM     17 CL   UNL     1      -5.580  11.092  18.665  0.00  0.00    +0.000 Cl
ATOM     18  C   UNL     1      -3.410  12.362  19.698  0.00  0.00    +0.000 A 
ATOM     19 CL   UNL     1      -4.255  12.780  21.145  0.00  0.00    +0.000 Cl
ATOM     20  C   UNL     1      -1.992  12.806  19.592  0.00  0.00    +0.000 A 
ATOM     21  O   UNL     1      -1.443  13.417  20.507  0.00  0.00    +0.000 OA
ENDBRANCH  12  13
ENDBRANCH   9  12
ENDBRANCH   1  10
BRANCH   3  22
ATOM     22  S   UNL     1       3.669   6.184  18.274  0.00  0.00    +0.000 S 
ATOM     23  O   UNL     1       4.255   6.938  17.191  0.00  0.00    +0.000 OA
ATOM     24  O   UNL     1       4.496   5.610  19.313  0.00  0.00    +0.000 OA
BRANCH  22  25
ATOM     25  N   UNL     1       2.725   4.936  17.599  0.00  0.00    +0.000 NA
ATOM     26  C   UNL     1       1.538   4.452  18.380  0.00  0.00    +0.000 C 
ATOM     27  C   UNL     1       1.949   3.455  19.476  0.00  0.00    +0.000 C 
ATOM     28  O   UNL     1       2.706   2.358  18.944  0.00  0.00    +0.000 OA
ATOM     29  C   UNL     1       3.872   2.814  18.241  0.00  0.00    +0.000 C 
ATOM     30  C   UNL     1       3.489   3.752  17.093  0.00  0.00    +0.000 C 
ENDBRANCH  22  25
ENDBRANCH   3  22
TORSDOF 5
ENDMDL
