MODEL 1
REMARK VINA RESULT:      -9.2      0.000      0.000
REMARK  Name = 
REMARK  4 active torsions:
REMARK  status: ('A' for Active; 'I' for Inactive)
REMARK    1  A    between atoms: C_7  and  C_8
REMARK    2  A    between atoms: C_8  and  N_9
REMARK    3  A    between atoms: C_8  and  C_16
REMARK    4  A    between atoms: N_9  and  C_10
REMARK                            x       y       z     vdW  Elec       q    Type
REMARK                         _______ _______ _______ _____ _____    ______ ____
ROOT
ATOM      1  C   UNL     1       4.666   5.564  16.701  0.00  0.00    +0.000 C 
ENDROOT
BRANCH   1   2
ATOM      2  C   UNL     1       3.490   5.448  17.645  0.00  0.00    +0.000 A 
ATOM      3  C   UNL     1       2.841   6.537  18.208  0.00  0.00    +0.000 A 
ATOM      4  N   UNL     1       2.541   6.123  19.469  0.00  0.00    +0.000 N 
ATOM      5  C   UNL     1       2.030   4.856  19.305  0.00  0.00    +0.000 A 
ATOM      6  C   UNL     1       1.122   4.168  20.103  0.00  0.00    +0.000 A 
ATOM      7  C   UNL     1       0.729   2.912  19.651  0.00  0.00    +0.000 A 
ATOM      8  C   UNL     1       1.326   2.359  18.517  0.00  0.00    +0.000 A 
ATOM      9  C   UNL     1       2.324   3.039  17.785  0.00  0.00    +0.000 A 
ATOM     10  C   UNL     1       2.653   4.370  18.150  0.00  0.00    +0.000 A 
ATOM     11  H   UNL     1       3.081   6.356  20.293  0.00  0.00    +0.000 HD
ENDBRANCH   1   2
BRANCH   1  18
ATOM     12 CL   UNL     1       5.763   4.037  19.226  0.00  0.00    +0.000 Cl
ATOM     13  C   UNL     1       6.477   5.450  18.522  0.00  0.00    +0.000 A 
ATOM     14  C   UNL     1       7.662   5.905  19.115  0.00  0.00    +0.000 A 
ATOM     15  C   UNL     1       8.271   7.068  18.658  0.00  0.00    +0.000 A 
ATOM     16  C   UNL     1       7.665   7.808  17.650  0.00  0.00    +0.000 A 
ATOM     17  C   UNL     1       6.481   7.356  17.054  0.00  0.00    +0.000 A 
ATOM     18  C   UNL     1       5.896   6.130  17.427  0.00  0.00    +0.000 A 
ENDBRANCH   1  18
BRANCH   1  19
ATOM     19  N   UNL     1       5.065   4.328  15.959  0.00  0.00    +0.000 N 
ATOM     20  H   UNL     1       4.734   3.455  16.344  0.00  0.00    +0.000 HD
BRANCH  19  21
ATOM     21  C   UNL     1       5.729   4.283  14.739  0.00  0.00    +0.000 A 
ATOM     22  C   UNL     1       6.956   4.952  14.507  0.00  0.00    +0.000 A 
ATOM     23  C   UNL     1       7.597   4.887  13.260  0.00  0.00    +0.000 A 
ATOM     24  C   UNL     1       7.033   4.189  12.212  0.00  0.00    +0.000 A 
ATOM     25  C   UNL     1       5.807   3.552  12.408  0.00  0.00    +0.000 A 
ATOM     26  C   UNL     1       5.160   3.614  13.647  0.00  0.00    +0.000 A 
ENDBRANCH  19  21
ENDBRANCH   1  19
TORSDOF 4
ENDMDL
MODEL 2
REMARK VINA RESULT:      -9.0      2.441      6.849
REMARK  Name = 
REMARK  4 active torsions:
REMARK  status: ('A' for Active; 'I' for Inactive)
REMARK    1  A    between atoms: C_7  and  C_8
REMARK    2  A    between atoms: C_8  and  N_9
REMARK    3  A    between atoms: C_8  and  C_16
REMARK    4  A    between atoms: N_9  and  C_10
REMARK                            x       y       z     vdW  Elec       q    Type
REMARK                         _______ _______ _______ _____ _____    ______ ____
ROOT
ATOM      1  C   UNL     1       3.035   5.884  18.959  0.00  0.00    +0.000 C 
ENDROOT
BRANCH   1   2
ATOM      2  C   UNL     1       4.419   5.503  18.484  0.00  0.00    +0.000 A 
ATOM      3  C   UNL     1       5.507   5.337  19.328  0.00  0.00    +0.000 A 
ATOM      4  N   UNL     1       6.552   5.844  18.619  0.00  0.00    +0.000 N 
ATOM      5  C   UNL     1       6.403   5.316  17.356  0.00  0.00    +0.000 A 
ATOM      6  C   UNL     1       7.374   5.054  16.396  0.00  0.00    +0.000 A 
ATOM      7  C   UNL     1       6.935   4.450  15.222  0.00  0.00    +0.000 A 
ATOM      8  C   UNL     1       5.573   4.242  15.010  0.00  0.00    +0.000 A 
ATOM      9  C   UNL     1       4.597   4.616  15.961  0.00  0.00    +0.000 A 
ATOM     10  C   UNL     1       5.024   5.117  17.217  0.00  0.00    +0.000 A 
ATOM     11  H   UNL     1       6.934   6.772  18.745  0.00  0.00    +0.000 HD
ENDBRANCH   1   2
BRANCH   1  18
ATOM     12 CL   UNL     1       1.233   3.912  17.291  0.00  0.00    +0.000 Cl
ATOM     13  C   UNL     1       1.601   3.750  18.977  0.00  0.00    +0.000 A 
ATOM     14  C   UNL     1       1.079   2.619  19.617  0.00  0.00    +0.000 A 
ATOM     15  C   UNL     1       1.268   2.438  20.983  0.00  0.00    +0.000 A 
ATOM     16  C   UNL     1       1.927   3.417  21.718  0.00  0.00    +0.000 A 
ATOM     17  C   UNL     1       2.450   4.549  21.082  0.00  0.00    +0.000 A 
ATOM     18  C   UNL     1       2.362   4.708  19.684  0.00  0.00    +0.000 A 
ENDBRANCH   1  18
BRANCH   1  19
ATOM     19  N   UNL     1       2.923   7.108  19.811  0.00  0.00    +0.000 N 
ATOM     20  H   UNL     1       3.667   7.253  20.478  0.00  0.00    +0.000 HD
BRANCH  19  21
ATOM     21  C   UNL     1       1.972   8.113  19.680  0.00  0.00    +0.000 A 
ATOM     22  C   UNL     1       1.121   8.509  20.741  0.00  0.00    +0.000 A 
ATOM     23  C   UNL     1       0.170   9.527  20.571  0.00  0.00    +0.000 A 
ATOM     24  C   UNL     1       0.016  10.153  19.352  0.00  0.00    +0.000 A 
ATOM     25  C   UNL     1       0.819   9.754  18.283  0.00  0.00    +0.000 A 
ATOM     26  C   UNL     1       1.768   8.740  18.443  0.00  0.00    +0.000 A 
ENDBRANCH  19  21
ENDBRANCH   1  19
TORSDOF 4
ENDMDL
MODEL 3
REMARK VINA RESULT:      -8.9      1.633      2.303
REMARK  Name = 
REMARK  4 active torsions:
REMARK  status: ('A' for Active; 'I' for Inactive)
REMARK    1  A    between atoms: C_7  and  C_8
REMARK    2  A    between atoms: C_8  and  N_9
REMARK    3  A    between atoms: C_8  and  C_16
REMARK    4  A    between atoms: N_9  and  C_10
REMARK                            x       y       z     vdW  Elec       q    Type
REMARK                         _______ _______ _______ _____ _____    ______ ____
ROOT
ATOM      1  C   UNL     1       4.895   4.232  16.502  0.00  0.00    +0.000 C 
ENDROOT
BRANCH   1   2
ATOM      2  C   UNL     1       4.030   3.566  17.548  0.00  0.00    +0.000 A 
ATOM      3  C   UNL     1       4.002   2.197  17.770  0.00  0.00    +0.000 A 
ATOM      4  N   UNL     1       2.695   1.936  18.042  0.00  0.00    +0.000 N 
ATOM      5  C   UNL     1       2.322   2.920  18.929  0.00  0.00    +0.000 A 
ATOM      6  C   UNL     1       1.337   2.888  19.911  0.00  0.00    +0.000 A 
ATOM      7  C   UNL     1       1.226   4.020  20.712  0.00  0.00    +0.000 A 
ATOM      8  C   UNL     1       1.998   5.148  20.438  0.00  0.00    +0.000 A 
ATOM      9  C   UNL     1       2.917   5.190  19.367  0.00  0.00    +0.000 A 
ATOM     10  C   UNL     1       3.142   4.010  18.612  0.00  0.00    +0.000 A 
ATOM     11  H   UNL     1       2.031   1.571  17.371  0.00  0.00    +0.000 HD
ENDBRANCH   1   2
BRANCH   1  18
ATOM     12 CL   UNL     1       4.942   7.273  15.686  0.00  0.00    +0.000 Cl
ATOM     13  C   UNL     1       5.957   6.542  16.885  0.00  0.00    +0.000 A 
ATOM     14  C   UNL     1       6.831   7.402  17.563  0.00  0.00    +0.000 A 
ATOM     15  C   UNL     1       7.728   6.894  18.498  0.00  0.00    +0.000 A 
ATOM     16  C   UNL     1       7.793   5.522  18.709  0.00  0.00    +0.000 A 
ATOM     17  C   UNL     1       6.921   4.659  18.033  0.00  0.00    +0.000 A 
ATOM     18  C   UNL     1       5.934   5.155  17.158  0.00  0.00    +0.000 A 
ENDBRANCH   1  18
BRANCH   1  19
ATOM     19  N   UNL     1       5.589   3.337  15.525  0.00  0.00    +0.000 N 
ATOM     20  H   UNL     1       5.543   2.347  15.721  0.00  0.00    +0.000 HD
BRANCH  19  21
ATOM     21  C   UNL     1       6.170   3.728  14.325  0.00  0.00    +0.000 A 
ATOM     22  C   UNL     1       7.181   4.718  14.247  0.00  0.00    +0.000 A 
ATOM     23  C   UNL     1       7.743   5.090  13.016  0.00  0.00    +0.000 A 
ATOM     24  C   UNL     1       7.305   4.520  11.839  0.00  0.00    +0.000 A 
ATOM     25  C   UNL     1       6.285   3.569  11.888  0.00  0.00    +0.000 A 
ATOM     26  C   UNL     1       5.718   3.194  13.110  0.00  0.00    +0.000 A 
ENDBRANCH  19  21
ENDBRANCH   1  19
TORSDOF 4
ENDMDL
MODEL 4
REMARK VINA RESULT:      -8.7      2.804      5.378
REMARK  Name = 
REMARK  4 active torsions:
REMARK  status: ('A' for Active; 'I' for Inactive)
REMARK    1  A    between atoms: C_7  and  C_8
REMARK    2  A    between atoms: C_8  and  N_9
REMARK    3  A    between atoms: C_8  and  C_16
REMARK    4  A    between atoms: N_9  and  C_10
REMARK                            x       y       z     vdW  Elec       q    Type
REMARK                         _______ _______ _______ _____ _____    ______ ____
ROOT
ATOM      1  C   UNL     1       3.149   6.239  19.085  0.00  0.00    +0.000 C 
ENDROOT
BRANCH   1   2
ATOM      2  C   UNL     1       2.247   7.453  19.063  0.00  0.00    +0.000 A 
ATOM      3  C   UNL     1       1.842   8.093  17.901  0.00  0.00    +0.000 A 
ATOM      4  N   UNL     1       1.846   9.412  18.235  0.00  0.00    +0.000 N 
ATOM      5  C   UNL     1       1.222   9.461  19.461  0.00  0.00    +0.000 A 
ATOM      6  C   UNL     1       0.502  10.502  20.036  0.00  0.00    +0.000 A 
ATOM      7  C   UNL     1      -0.080  10.241  21.273  0.00  0.00    +0.000 A 
ATOM      8  C   UNL     1       0.168   9.031  21.921  0.00  0.00    +0.000 A 
ATOM      9  C   UNL     1       0.991   8.031  21.359  0.00  0.00    +0.000 A 
ATOM     10  C   UNL     1       1.494   8.218  20.045  0.00  0.00    +0.000 A 
ATOM     11  H   UNL     1       2.593  10.058  18.013  0.00  0.00    +0.000 HD
ENDBRANCH   1   2
BRANCH   1  18
ATOM     12 CL   UNL     1       1.190   4.520  17.318  0.00  0.00    +0.000 Cl
ATOM     13  C   UNL     1       1.601   4.189  18.968  0.00  0.00    +0.000 A 
ATOM     14  C   UNL     1       1.038   3.034  19.525  0.00  0.00    +0.000 A 
ATOM     15  C   UNL     1       1.261   2.722  20.863  0.00  0.00    +0.000 A 
ATOM     16  C   UNL     1       1.995   3.596  21.656  0.00  0.00    +0.000 A 
ATOM     17  C   UNL     1       2.559   4.752  21.103  0.00  0.00    +0.000 A 
ATOM     18  C   UNL     1       2.436   5.040  19.729  0.00  0.00    +0.000 A 
ENDBRANCH   1  18
BRANCH   1  19
ATOM     19  N   UNL     1       3.740   5.809  17.780  0.00  0.00    +0.000 N 
ATOM     20  H   UNL     1       3.151   5.923  16.967  0.00  0.00    +0.000 HD
BRANCH  19  21
ATOM     21  C   UNL     1       5.050   5.394  17.571  0.00  0.00    +0.000 A 
ATOM     22  C   UNL     1       5.474   4.759  16.378  0.00  0.00    +0.000 A 
ATOM     23  C   UNL     1       6.806   4.352  16.203  0.00  0.00    +0.000 A 
ATOM     24  C   UNL     1       7.736   4.533  17.205  0.00  0.00    +0.000 A 
ATOM     25  C   UNL     1       7.333   5.124  18.402  0.00  0.00    +0.000 A 
ATOM     26  C   UNL     1       6.007   5.531  18.586  0.00  0.00    +0.000 A 
ENDBRANCH  19  21
ENDBRANCH   1  19
TORSDOF 4
ENDMDL
MODEL 5
REMARK VINA RESULT:      -8.7      2.925      7.336
REMARK  Name = 
REMARK  4 active torsions:
REMARK  status: ('A' for Active; 'I' for Inactive)
REMARK    1  A    between atoms: C_7  and  C_8
REMARK    2  A    between atoms: C_8  and  N_9
REMARK    3  A    between atoms: C_8  and  C_16
REMARK    4  A    between atoms: N_9  and  C_10
REMARK                            x       y       z     vdW  Elec       q    Type
REMARK                         _______ _______ _______ _____ _____    ______ ____
ROOT
ATOM      1  C   UNL     1       2.263   6.484  19.403  0.00  0.00    +0.000 C 
ENDROOT
BRANCH   1   2
ATOM      2  C   UNL     1       3.483   6.577  18.513  0.00  0.00    +0.000 A 
ATOM      3  C   UNL     1       3.644   7.534  17.522  0.00  0.00    +0.000 A 
ATOM      4  N   UNL     1       4.266   6.862  16.515  0.00  0.00    +0.000 N 
ATOM      5  C   UNL     1       5.264   6.149  17.140  0.00  0.00    +0.000 A 
ATOM      6  C   UNL     1       6.483   5.717  16.628  0.00  0.00    +0.000 A 
ATOM      7  C   UNL     1       7.331   5.067  17.520  0.00  0.00    +0.000 A 
ATOM      8  C   UNL     1       6.898   4.781  18.814  0.00  0.00    +0.000 A 
ATOM      9  C   UNL     1       5.612   5.139  19.274  0.00  0.00    +0.000 A 
ATOM     10  C   UNL     1       4.774   5.912  18.430  0.00  0.00    +0.000 A 
ATOM     11  H   UNL     1       3.796   6.483  15.702  0.00  0.00    +0.000 HD
ENDBRANCH   1   2
BRANCH   1  18
ATOM     12 CL   UNL     1       1.236   4.351  17.327  0.00  0.00    +0.000 Cl
ATOM     13  C   UNL     1       1.652   4.023  18.977  0.00  0.00    +0.000 A 
ATOM     14  C   UNL     1       1.557   2.686  19.385  0.00  0.00    +0.000 A 
ATOM     15  C   UNL     1       1.809   2.339  20.708  0.00  0.00    +0.000 A 
ATOM     16  C   UNL     1       2.096   3.334  21.634  0.00  0.00    +0.000 A 
ATOM     17  C   UNL     1       2.193   4.671  21.231  0.00  0.00    +0.000 A 
ATOM     18  C   UNL     1       2.043   5.040  19.879  0.00  0.00    +0.000 A 
ENDBRANCH   1  18
BRANCH   1  19
ATOM     19  N   UNL     1       2.215   7.398  20.586  0.00  0.00    +0.000 N 
ATOM     20  H   UNL     1       2.950   7.278  21.268  0.00  0.00    +0.000 HD
BRANCH  19  21
ATOM     21  C   UNL     1       1.341   8.463  20.762  0.00  0.00    +0.000 A 
ATOM     22  C   UNL     1       0.953   9.322  19.705  0.00  0.00    +0.000 A 
ATOM     23  C   UNL     1       0.069  10.390  19.921  0.00  0.00    +0.000 A 
ATOM     24  C   UNL     1      -0.426  10.653  21.181  0.00  0.00    +0.000 A 
ATOM     25  C   UNL     1      -0.029   9.842  22.245  0.00  0.00    +0.000 A 
ATOM     26  C   UNL     1       0.853   8.776  22.039  0.00  0.00    +0.000 A 
ENDBRANCH  19  21
ENDBRANCH   1  19
TORSDOF 4
ENDMDL
MODEL 6
REMARK VINA RESULT:      -8.7      2.097      5.056
REMARK  Name = 
REMARK  4 active torsions:
REMARK  status: ('A' for Active; 'I' for Inactive)
REMARK    1  A    between atoms: C_7  and  C_8
REMARK    2  A    between atoms: C_8  and  N_9
REMARK    3  A    between atoms: C_8  and  C_16
REMARK    4  A    between atoms: N_9  and  C_10
REMARK                            x       y       z     vdW  Elec       q    Type
REMARK                         _______ _______ _______ _____ _____    ______ ____
ROOT
ATOM      1  C   UNL     1       4.013   6.183  18.135  0.00  0.00    +0.000 C 
ENDROOT
BRANCH   1   2
ATOM      2  C   UNL     1       3.099   5.013  18.424  0.00  0.00    +0.000 A 
ATOM      3  C   UNL     1       2.589   4.172  17.446  0.00  0.00    +0.000 A 
ATOM      4  N   UNL     1       1.324   3.905  17.872  0.00  0.00    +0.000 N 
ATOM      5  C   UNL     1       1.462   3.620  19.211  0.00  0.00    +0.000 A 
ATOM      6  C   UNL     1       0.669   2.815  20.022  0.00  0.00    +0.000 A 
ATOM      7  C   UNL     1       1.092   2.655  21.337  0.00  0.00    +0.000 A 
ATOM      8  C   UNL     1       2.190   3.373  21.810  0.00  0.00    +0.000 A 
ATOM      9  C   UNL     1       2.915   4.266  20.991  0.00  0.00    +0.000 A 
ATOM     10  C   UNL     1       2.584   4.354  19.614  0.00  0.00    +0.000 A 
ATOM     11  H   UNL     1       0.493   4.371  17.529  0.00  0.00    +0.000 HD
ENDBRANCH   1   2
BRANCH   1  18
ATOM     12 CL   UNL     1       6.762   5.283  19.378  0.00  0.00    +0.000 Cl
ATOM     13  C   UNL     1       6.381   5.289  17.687  0.00  0.00    +0.000 A 
ATOM     14  C   UNL     1       7.377   4.809  16.828  0.00  0.00    +0.000 A 
ATOM     15  C   UNL     1       7.185   4.835  15.450  0.00  0.00    +0.000 A 
ATOM     16  C   UNL     1       6.024   5.396  14.932  0.00  0.00    +0.000 A 
ATOM     17  C   UNL     1       5.026   5.876  15.788  0.00  0.00    +0.000 A 
ATOM     18  C   UNL     1       5.149   5.770  17.187  0.00  0.00    +0.000 A 
ENDBRANCH   1  18
BRANCH   1  19
ATOM     19  N   UNL     1       3.373   7.430  17.611  0.00  0.00    +0.000 N 
ATOM     20  H   UNL     1       3.569   7.657  16.647  0.00  0.00    +0.000 HD
BRANCH  19  21
ATOM     21  C   UNL     1       2.448   8.220  18.283  0.00  0.00    +0.000 A 
ATOM     22  C   UNL     1       1.881   9.388  17.718  0.00  0.00    +0.000 A 
ATOM     23  C   UNL     1       0.950  10.163  18.427  0.00  0.00    +0.000 A 
ATOM     24  C   UNL     1       0.582   9.823  19.712  0.00  0.00    +0.000 A 
ATOM     25  C   UNL     1       1.155   8.696  20.302  0.00  0.00    +0.000 A 
ATOM     26  C   UNL     1       2.084   7.919  19.603  0.00  0.00    +0.000 A 
ENDBRANCH  19  21
ENDBRANCH   1  19
TORSDOF 4
ENDMDL
MODEL 7
REMARK VINA RESULT:      -8.5      1.969      6.438
REMARK  Name = 
REMARK  4 active torsions:
REMARK  status: ('A' for Active; 'I' for Inactive)
REMARK    1  A    between atoms: C_7  and  C_8
REMARK    2  A    between atoms: C_8  and  N_9
REMARK    3  A    between atoms: C_8  and  C_16
REMARK    4  A    between atoms: N_9  and  C_10
REMARK                            x       y       z     vdW  Elec       q    Type
REMARK                         _______ _______ _______ _____ _____    ______ ____
ROOT
ATOM      1  C   UNL     1       4.393   5.330  16.709  0.00  0.00    +0.000 C 
ENDROOT
BRANCH   1   2
ATOM      2  C   UNL     1       5.572   5.045  15.805  0.00  0.00    +0.000 A 
ATOM      3  C   UNL     1       6.895   5.151  16.206  0.00  0.00    +0.000 A 
ATOM      4  N   UNL     1       7.528   5.656  15.112  0.00  0.00    +0.000 N 
ATOM      5  C   UNL     1       7.045   4.915  14.058  0.00  0.00    +0.000 A 
ATOM      6  C   UNL     1       7.654   4.618  12.844  0.00  0.00    +0.000 A 
ATOM      7  C   UNL     1       6.947   3.782  11.985  0.00  0.00    +0.000 A 
ATOM      8  C   UNL     1       5.652   3.381  12.311  0.00  0.00    +0.000 A 
ATOM      9  C   UNL     1       5.016   3.785  13.506  0.00  0.00    +0.000 A 
ATOM     10  C   UNL     1       5.758   4.533  14.456  0.00  0.00    +0.000 A 
ATOM     11  H   UNL     1       7.766   6.632  14.987  0.00  0.00    +0.000 HD
ENDBRANCH   1   2
BRANCH   1  18
ATOM     12 CL   UNL     1       5.947   4.641  19.360  0.00  0.00    +0.000 Cl
ATOM     13  C   UNL     1       4.601   3.751  18.727  0.00  0.00    +0.000 A 
ATOM     14  C   UNL     1       4.160   2.667  19.498  0.00  0.00    +0.000 A 
ATOM     15  C   UNL     1       3.128   1.856  19.038  0.00  0.00    +0.000 A 
ATOM     16  C   UNL     1       2.579   2.092  17.784  0.00  0.00    +0.000 A 
ATOM     17  C   UNL     1       3.016   3.175  17.011  0.00  0.00    +0.000 A 
ATOM     18  C   UNL     1       3.989   4.072  17.494  0.00  0.00    +0.000 A 
ENDBRANCH   1  18
BRANCH   1  19
ATOM     19  N   UNL     1       4.530   6.474  17.663  0.00  0.00    +0.000 N 
ATOM     20  H   UNL     1       5.472   6.797  17.835  0.00  0.00    +0.000 HD
BRANCH  19  21
ATOM     21  C   UNL     1       3.488   7.203  18.223  0.00  0.00    +0.000 A 
ATOM     22  C   UNL     1       2.911   6.879  19.476  0.00  0.00    +0.000 A 
ATOM     23  C   UNL     1       1.857   7.637  20.010  0.00  0.00    +0.000 A 
ATOM     24  C   UNL     1       1.333   8.705  19.314  0.00  0.00    +0.000 A 
ATOM     25  C   UNL     1       1.862   9.021  18.062  0.00  0.00    +0.000 A 
ATOM     26  C   UNL     1       2.911   8.269  17.521  0.00  0.00    +0.000 A 
ENDBRANCH  19  21
ENDBRANCH   1  19
TORSDOF 4
ENDMDL
MODEL 8
REMARK VINA RESULT:      -8.4      2.067      5.033
REMARK  Name = 
REMARK  4 active torsions:
REMARK  status: ('A' for Active; 'I' for Inactive)
REMARK    1  A    between atoms: C_7  and  C_8
REMARK    2  A    between atoms: C_8  and  N_9
REMARK    3  A    between atoms: C_8  and  C_16
REMARK    4  A    between atoms: N_9  and  C_10
REMARK                            x       y       z     vdW  Elec       q    Type
REMARK                         _______ _______ _______ _____ _____    ______ ____
ROOT
ATOM      1  C   UNL     1       4.590   5.967  17.783  0.00  0.00    +0.000 C 
ENDROOT
BRANCH   1   2
ATOM      2  C   UNL     1       4.153   4.744  18.559  0.00  0.00    +0.000 A 
ATOM      3  C   UNL     1       4.904   4.162  19.570  0.00  0.00    +0.000 A 
ATOM      4  N   UNL     1       4.699   2.827  19.402  0.00  0.00    +0.000 N 
ATOM      5  C   UNL     1       3.341   2.706  19.213  0.00  0.00    +0.000 A 
ATOM      6  C   UNL     1       2.510   1.627  19.495  0.00  0.00    +0.000 A 
ATOM      7  C   UNL     1       1.152   1.815  19.259  0.00  0.00    +0.000 A 
ATOM      8  C   UNL     1       0.703   2.992  18.660  0.00  0.00    +0.000 A 
ATOM      9  C   UNL     1       1.584   4.031  18.287  0.00  0.00    +0.000 A 
ATOM     10  C   UNL     1       2.956   3.920  18.630  0.00  0.00    +0.000 A 
ATOM     11  H   UNL     1       5.341   2.203  18.930  0.00  0.00    +0.000 HD
ENDBRANCH   1   2
BRANCH   1  18
ATOM     12 CL   UNL     1       7.570   6.963  17.586  0.00  0.00    +0.000 Cl
ATOM     13  C   UNL     1       6.784   5.923  16.444  0.00  0.00    +0.000 A 
ATOM     14  C   UNL     1       7.572   5.468  15.379  0.00  0.00    +0.000 A 
ATOM     15  C   UNL     1       7.009   4.681  14.379  0.00  0.00    +0.000 A 
ATOM     16  C   UNL     1       5.648   4.401  14.413  0.00  0.00    +0.000 A 
ATOM     17  C   UNL     1       4.857   4.854  15.476  0.00  0.00    +0.000 A 
ATOM     18  C   UNL     1       5.420   5.566  16.554  0.00  0.00    +0.000 A 
ENDBRANCH   1  18
BRANCH   1  19
ATOM     19  N   UNL     1       3.517   6.918  17.356  0.00  0.00    +0.000 N 
ATOM     20  H   UNL     1       3.298   6.924  16.370  0.00  0.00    +0.000 HD
BRANCH  19  21
ATOM     21  C   UNL     1       2.722   7.686  18.197  0.00  0.00    +0.000 A 
ATOM     22  C   UNL     1       2.421   7.307  19.528  0.00  0.00    +0.000 A 
ATOM     23  C   UNL     1       1.611   8.107  20.348  0.00  0.00    +0.000 A 
ATOM     24  C   UNL     1       1.059   9.277  19.869  0.00  0.00    +0.000 A 
ATOM     25  C   UNL     1       1.312   9.652  18.549  0.00  0.00    +0.000 A 
ATOM     26  C   UNL     1       2.117   8.859  17.725  0.00  0.00    +0.000 A 
ENDBRANCH  19  21
ENDBRANCH   1  19
TORSDOF 4
ENDMDL
MODEL 9
REMARK VINA RESULT:      -8.4      2.913      5.659
REMARK  Name = 
REMARK  4 active torsions:
REMARK  status: ('A' for Active; 'I' for Inactive)
REMARK    1  A    between atoms: C_7  and  C_8
REMARK    2  A    between atoms: C_8  and  N_9
REMARK    3  A    between atoms: C_8  and  C_16
REMARK    4  A    between atoms: N_9  and  C_10
REMARK                            x       y       z     vdW  Elec       q    Type
REMARK                         _______ _______ _______ _____ _____    ______ ____
ROOT
ATOM      1  C   UNL     1       3.246   5.968  19.600  0.00  0.00    +0.000 C 
ENDROOT
BRANCH   1   2
ATOM      2  C   UNL     1       2.352   7.160  19.338  0.00  0.00    +0.000 A 
ATOM      3  C   UNL     1       2.093   7.668  18.073  0.00  0.00    +0.000 A 
ATOM      4  N   UNL     1       2.052   9.015  18.264  0.00  0.00    +0.000 N 
ATOM      5  C   UNL     1       1.281   9.182  19.391  0.00  0.00    +0.000 A 
ATOM      6  C   UNL     1       0.492  10.267  19.760  0.00  0.00    +0.000 A 
ATOM      7  C   UNL     1      -0.238  10.129  20.936  0.00  0.00    +0.000 A 
ATOM      8  C   UNL     1      -0.070   8.997  21.734  0.00  0.00    +0.000 A 
ATOM      9  C   UNL     1       0.819   7.956  21.387  0.00  0.00    +0.000 A 
ATOM     10  C   UNL     1       1.481   8.012  20.133  0.00  0.00    +0.000 A 
ATOM     11  H   UNL     1       2.820   9.645  18.069  0.00  0.00    +0.000 HD
ENDBRANCH   1   2
BRANCH   1  18
ATOM     12 CL   UNL     1       1.557   4.515  17.375  0.00  0.00    +0.000 Cl
ATOM     13  C   UNL     1       1.695   4.001  19.024  0.00  0.00    +0.000 A 
ATOM     14  C   UNL     1       1.027   2.816  19.360  0.00  0.00    +0.000 A 
ATOM     15  C   UNL     1       1.028   2.360  20.674  0.00  0.00    +0.000 A 
ATOM     16  C   UNL     1       1.645   3.119  21.661  0.00  0.00    +0.000 A 
ATOM     17  C   UNL     1       2.314   4.304  21.330  0.00  0.00    +0.000 A 
ATOM     18  C   UNL     1       2.416   4.737  19.992  0.00  0.00    +0.000 A 
ENDBRANCH   1  18
BRANCH   1  19
ATOM     19  N   UNL     1       4.201   5.585  18.514  0.00  0.00    +0.000 N 
ATOM     20  H   UNL     1       3.827   4.994  17.784  0.00  0.00    +0.000 HD
BRANCH  19  21
ATOM     21  C   UNL     1       5.494   6.065  18.353  0.00  0.00    +0.000 A 
ATOM     22  C   UNL     1       5.843   7.017  17.364  0.00  0.00    +0.000 A 
ATOM     23  C   UNL     1       7.162   7.478  17.230  0.00  0.00    +0.000 A 
ATOM     24  C   UNL     1       8.166   6.993  18.042  0.00  0.00    +0.000 A 
ATOM     25  C   UNL     1       7.852   6.028  19.000  0.00  0.00    +0.000 A 
ATOM     26  C   UNL     1       6.540   5.562  19.139  0.00  0.00    +0.000 A 
ENDBRANCH  19  21
ENDBRANCH   1  19
TORSDOF 4
ENDMDL
