MODEL 1
REMARK VINA RESULT:      -8.7      0.000      0.000
REMARK  Name = 
REMARK  5 active torsions:
REMARK  status: ('A' for Active; 'I' for Inactive)
REMARK    1  A    between atoms: C_1  and  O_2
REMARK    2  A    between atoms: O_2  and  C_3
REMARK    3  A    between atoms: C_10  and  C_11
REMARK    4  A    between atoms: C_17  and  S_18
REMARK    5  A    between atoms: S_18  and  N_21
REMARK                            x       y       z     vdW  Elec       q    Type
REMARK                         _______ _______ _______ _____ _____    ______ ____
ROOT
ATOM      1  C   UNL     1       3.964   4.426  18.370  0.00  0.00    +0.000 A 
ATOM      2  N   UNL     1       4.006   3.187  18.933  0.00  0.00    +0.000 NA
ATOM      3  C   UNL     1       3.241   2.938  20.011  0.00  0.00    +0.000 A 
ATOM      4  C   UNL     1       2.466   3.893  20.635  0.00  0.00    +0.000 A 
ATOM      5  C   UNL     1       2.426   5.178  20.099  0.00  0.00    +0.000 A 
ATOM      6  C   UNL     1       1.703   6.187  20.757  0.00  0.00    +0.000 A 
ATOM      7  C   UNL     1       1.655   7.477  20.230  0.00  0.00    +0.000 A 
ATOM      8  C   UNL     1       2.275   7.766  19.019  0.00  0.00    +0.000 A 
ATOM      9  C   UNL     1       2.964   6.758  18.348  0.00  0.00    +0.000 A 
ATOM     10  C   UNL     1       3.132   5.460  18.900  0.00  0.00    +0.000 A 
ENDROOT
BRANCH   1  18
ATOM     11  C   UNL     1       6.227   5.219  17.444  0.00  0.00    +0.000 A 
ATOM     12  C   UNL     1       7.107   5.387  16.360  0.00  0.00    +0.000 A 
ATOM     13  C   UNL     1       6.759   4.957  15.081  0.00  0.00    +0.000 A 
ATOM     14 CL   UNL     1       7.911   5.168  13.811  0.00  0.00    +0.000 Cl
ATOM     15  C   UNL     1       5.512   4.378  14.871  0.00  0.00    +0.000 A 
ATOM     16 CL   UNL     1       5.018   3.762  13.334  0.00  0.00    +0.000 Cl
ATOM     17  C   UNL     1       4.616   4.257  15.938  0.00  0.00    +0.000 A 
ATOM     18  C   UNL     1       4.956   4.616  17.263  0.00  0.00    +0.000 A 
BRANCH  11  20
ATOM     19  C   UNL     1       7.860   6.256  18.807  0.00  0.00    +0.000 C 
ATOM     20  O   UNL     1       6.617   5.562  18.717  0.00  0.00    +0.000 OA
ENDBRANCH  11  20
ENDBRANCH   1  18
BRANCH   7  21
ATOM     21  S   UNL     1       0.902   8.796  21.140  0.00  0.00    +0.000 S 
ATOM     22  O   UNL     1      -0.518   8.502  21.234  0.00  0.00    +0.000 OA
ATOM     23  O   UNL     1       1.691   9.005  22.333  0.00  0.00    +0.000 OA
BRANCH  21  24
ATOM     24  N   UNL     1       1.035  10.078  20.057  0.00  0.00    +0.000 N 
ATOM     25  C   UNL     1      -0.187  10.775  19.910  0.00  0.00    +0.000 A 
ATOM     26  N   UNL     1      -0.910  10.563  18.840  0.00  0.00    +0.000 NA
ATOM     27  C   UNL     1      -2.054  11.335  18.919  0.00  0.00    +0.000 A 
ATOM     28  C   UNL     1      -2.115  12.206  19.988  0.00  0.00    +0.000 A 
ATOM     29  S   UNL     1      -0.720  12.005  20.968  0.00  0.00    +0.000 S 
ATOM     30  H   UNL     1       1.276   9.662  19.157  0.00  0.00    +0.000 HD
ENDBRANCH  21  24
ENDBRANCH   7  21
TORSDOF 4
ENDMDL
MODEL 2
REMARK VINA RESULT:      -8.2      1.985      2.861
REMARK  Name = 
REMARK  5 active torsions:
REMARK  status: ('A' for Active; 'I' for Inactive)
REMARK    1  A    between atoms: C_1  and  O_2
REMARK    2  A    between atoms: O_2  and  C_3
REMARK    3  A    between atoms: C_10  and  C_11
REMARK    4  A    between atoms: C_17  and  S_18
REMARK    5  A    between atoms: S_18  and  N_21
REMARK                            x       y       z     vdW  Elec       q    Type
REMARK                         _______ _______ _______ _____ _____    ______ ____
ROOT
ATOM      1  C   UNL     1       3.111   5.784  18.970  0.00  0.00    +0.000 A 
ATOM      2  N   UNL     1       3.042   4.844  19.952  0.00  0.00    +0.000 NA
ATOM      3  C   UNL     1       2.239   5.067  21.008  0.00  0.00    +0.000 A 
ATOM      4  C   UNL     1       1.532   6.236  21.197  0.00  0.00    +0.000 A 
ATOM      5  C   UNL     1       1.606   7.228  20.222  0.00  0.00    +0.000 A 
ATOM      6  C   UNL     1       0.954   8.456  20.425  0.00  0.00    +0.000 A 
ATOM      7  C   UNL     1       1.020   9.457  19.457  0.00  0.00    +0.000 A 
ATOM      8  C   UNL     1       1.684   9.232  18.256  0.00  0.00    +0.000 A 
ATOM      9  C   UNL     1       2.302   8.002  18.039  0.00  0.00    +0.000 A 
ATOM     10  C   UNL     1       2.354   6.995  19.039  0.00  0.00    +0.000 A 
ENDROOT
BRANCH   1  18
ATOM     11  C   UNL     1       4.018   4.412  16.995  0.00  0.00    +0.000 A 
ATOM     12  C   UNL     1       5.024   4.168  16.042  0.00  0.00    +0.000 A 
ATOM     13  C   UNL     1       6.159   4.974  15.976  0.00  0.00    +0.000 A 
ATOM     14 CL   UNL     1       7.331   4.628  14.755  0.00  0.00    +0.000 Cl
ATOM     15  C   UNL     1       6.309   6.018  16.881  0.00  0.00    +0.000 A 
ATOM     16 CL   UNL     1       7.651   7.105  16.836  0.00  0.00    +0.000 Cl
ATOM     17  C   UNL     1       5.334   6.231  17.861  0.00  0.00    +0.000 A 
ATOM     18  C   UNL     1       4.136   5.481  17.919  0.00  0.00    +0.000 A 
BRANCH  11  20
ATOM     19  C   UNL     1       2.972   2.368  17.567  0.00  0.00    +0.000 C 
ATOM     20  O   UNL     1       2.861   3.669  16.991  0.00  0.00    +0.000 OA
ENDBRANCH  11  20
ENDBRANCH   1  18
BRANCH   7  21
ATOM     21  S   UNL     1       0.358  11.068  19.777  0.00  0.00    +0.000 S 
ATOM     22  O   UNL     1      -0.817  10.894  20.614  0.00  0.00    +0.000 OA
ATOM     23  O   UNL     1       1.452  11.907  20.210  0.00  0.00    +0.000 OA
BRANCH  21  24
ATOM     24  N   UNL     1      -0.219  11.508  18.258  0.00  0.00    +0.000 N 
ATOM     25  C   UNL     1      -1.540  11.050  18.042  0.00  0.00    +0.000 A 
ATOM     26  N   UNL     1      -1.728   9.997  17.287  0.00  0.00    +0.000 NA
ATOM     27  C   UNL     1      -3.083   9.731  17.229  0.00  0.00    +0.000 A 
ATOM     28  C   UNL     1      -3.901  10.658  17.842  0.00  0.00    +0.000 A 
ATOM     29  S   UNL     1      -2.937  11.875  18.575  0.00  0.00    +0.000 S 
ATOM     30  H   UNL     1       0.393  11.051  17.581  0.00  0.00    +0.000 HD
ENDBRANCH  21  24
ENDBRANCH   7  21
TORSDOF 4
ENDMDL
MODEL 3
REMARK VINA RESULT:      -8.1      1.397      1.579
REMARK  Name = 
REMARK  5 active torsions:
REMARK  status: ('A' for Active; 'I' for Inactive)
REMARK    1  A    between atoms: C_1  and  O_2
REMARK    2  A    between atoms: O_2  and  C_3
REMARK    3  A    between atoms: C_10  and  C_11
REMARK    4  A    between atoms: C_17  and  S_18
REMARK    5  A    between atoms: S_18  and  N_21
REMARK                            x       y       z     vdW  Elec       q    Type
REMARK                         _______ _______ _______ _____ _____    ______ ____
ROOT
ATOM      1  C   UNL     1       3.949   5.200  18.122  0.00  0.00    +0.000 A 
ATOM      2  N   UNL     1       3.954   4.065  18.874  0.00  0.00    +0.000 NA
ATOM      3  C   UNL     1       3.178   4.010  19.971  0.00  0.00    +0.000 A 
ATOM      4  C   UNL     1       2.428   5.071  20.431  0.00  0.00    +0.000 A 
ATOM      5  C   UNL     1       2.425   6.257  19.698  0.00  0.00    +0.000 A 
ATOM      6  C   UNL     1       1.728   7.375  20.183  0.00  0.00    +0.000 A 
ATOM      7  C   UNL     1       1.718   8.567  19.458  0.00  0.00    +0.000 A 
ATOM      8  C   UNL     1       2.350   8.645  18.223  0.00  0.00    +0.000 A 
ATOM      9  C   UNL     1       3.013   7.526  17.724  0.00  0.00    +0.000 A 
ATOM     10  C   UNL     1       3.143   6.327  18.475  0.00  0.00    +0.000 A 
ENDROOT
BRANCH   1  18
ATOM     11  C   UNL     1       6.233   5.783  17.099  0.00  0.00    +0.000 A 
ATOM     12  C   UNL     1       7.122   5.754  16.009  0.00  0.00    +0.000 A 
ATOM     13  C   UNL     1       6.770   5.130  14.813  0.00  0.00    +0.000 A 
ATOM     14 CL   UNL     1       7.932   5.108  13.536  0.00  0.00    +0.000 Cl
ATOM     15  C   UNL     1       5.511   4.552  14.689  0.00  0.00    +0.000 A 
ATOM     16 CL   UNL     1       5.010   3.707  13.269  0.00  0.00    +0.000 Cl
ATOM     17  C   UNL     1       4.607   4.626  15.754  0.00  0.00    +0.000 A 
ATOM     18  C   UNL     1       4.950   5.187  17.007  0.00  0.00    +0.000 A 
BRANCH  11  20
ATOM     19  C   UNL     1       7.642   5.592  18.991  0.00  0.00    +0.000 C 
ATOM     20  O   UNL     1       6.625   6.319  18.303  0.00  0.00    +0.000 OA
ENDBRANCH  11  20
ENDBRANCH   1  18
BRANCH   7  21
ATOM     21  S   UNL     1       0.997  10.033  20.143  0.00  0.00    +0.000 S 
ATOM     22  O   UNL     1       1.357  10.076  21.549  0.00  0.00    +0.000 OA
ATOM     23  O   UNL     1       1.331  11.130  19.263  0.00  0.00    +0.000 OA
BRANCH  21  24
ATOM     24  N   UNL     1      -0.644   9.659  20.099  0.00  0.00    +0.000 N 
ATOM     25  C   UNL     1      -1.327  10.393  19.102  0.00  0.00    +0.000 A 
ATOM     26  N   UNL     1      -2.052  11.422  19.460  0.00  0.00    +0.000 NA
ATOM     27  C   UNL     1      -2.609  11.986  18.327  0.00  0.00    +0.000 A 
ATOM     28  C   UNL     1      -2.391  11.301  17.149  0.00  0.00    +0.000 A 
ATOM     29  S   UNL     1      -1.398   9.935  17.458  0.00  0.00    +0.000 S 
ATOM     30  H   UNL     1      -1.019   9.931  21.009  0.00  0.00    +0.000 HD
ENDBRANCH  21  24
ENDBRANCH   7  21
TORSDOF 4
ENDMDL
MODEL 4
REMARK VINA RESULT:      -8.0      2.462      3.399
REMARK  Name = 
REMARK  5 active torsions:
REMARK  status: ('A' for Active; 'I' for Inactive)
REMARK    1  A    between atoms: C_1  and  O_2
REMARK    2  A    between atoms: O_2  and  C_3
REMARK    3  A    between atoms: C_10  and  C_11
REMARK    4  A    between atoms: C_17  and  S_18
REMARK    5  A    between atoms: S_18  and  N_21
REMARK                            x       y       z     vdW  Elec       q    Type
REMARK                         _______ _______ _______ _____ _____    ______ ____
ROOT
ATOM      1  C   UNL     1       2.910   6.199  18.959  0.00  0.00    +0.000 A 
ATOM      2  N   UNL     1       2.715   5.341  19.997  0.00  0.00    +0.000 NA
ATOM      3  C   UNL     1       1.888   5.705  20.994  0.00  0.00    +0.000 A 
ATOM      4  C   UNL     1       1.280   6.940  21.069  0.00  0.00    +0.000 A 
ATOM      5  C   UNL     1       1.485   7.851  20.034  0.00  0.00    +0.000 A 
ATOM      6  C   UNL     1       0.936   9.141  20.122  0.00  0.00    +0.000 A 
ATOM      7  C   UNL     1       1.134  10.063  19.094  0.00  0.00    +0.000 A 
ATOM      8  C   UNL     1       1.828   9.697  17.946  0.00  0.00    +0.000 A 
ATOM      9  C   UNL     1       2.344   8.407  17.843  0.00  0.00    +0.000 A 
ATOM     10  C   UNL     1       2.262   7.472  18.909  0.00  0.00    +0.000 A 
ENDROOT
BRANCH   1  18
ATOM     11  C   UNL     1       3.785   4.611  17.137  0.00  0.00    +0.000 A 
ATOM     12  C   UNL     1       4.807   4.215  16.255  0.00  0.00    +0.000 A 
ATOM     13  C   UNL     1       6.005   4.924  16.183  0.00  0.00    +0.000 A 
ATOM     14 CL   UNL     1       7.195   4.393  15.049  0.00  0.00    +0.000 Cl
ATOM     15  C   UNL     1       6.201   6.021  17.014  0.00  0.00    +0.000 A 
ATOM     16 CL   UNL     1       7.627   6.994  16.951  0.00  0.00    +0.000 Cl
ATOM     17  C   UNL     1       5.206   6.385  17.927  0.00  0.00    +0.000 A 
ATOM     18  C   UNL     1       3.950   5.736  17.984  0.00  0.00    +0.000 A 
BRANCH  11  20
ATOM     19  C   UNL     1       2.607   2.608  17.587  0.00  0.00    +0.000 C 
ATOM     20  O   UNL     1       2.573   3.961  17.135  0.00  0.00    +0.000 OA
ENDBRANCH  11  20
ENDBRANCH   1  18
BRANCH   7  21
ATOM     21  S   UNL     1       0.603  11.742  19.273  0.00  0.00    +0.000 S 
ATOM     22  O   UNL     1       1.416  12.551  18.380  0.00  0.00    +0.000 OA
ATOM     23  O   UNL     1      -0.839  11.754  19.169  0.00  0.00    +0.000 OA
BRANCH  21  24
ATOM     24  N   UNL     1       1.131  12.104  20.830  0.00  0.00    +0.000 N 
ATOM     25  C   UNL     1       0.062  12.479  21.676  0.00  0.00    +0.000 A 
ATOM     26  N   UNL     1      -0.113  13.747  21.949  0.00  0.00    +0.000 NA
ATOM     27  C   UNL     1      -1.213  13.875  22.776  0.00  0.00    +0.000 A 
ATOM     28  C   UNL     1      -1.775  12.691  23.209  0.00  0.00    +0.000 A 
ATOM     29  S   UNL     1      -0.937  11.368  22.504  0.00  0.00    +0.000 S 
ATOM     30  H   UNL     1       1.760  12.903  20.736  0.00  0.00    +0.000 HD
ENDBRANCH  21  24
ENDBRANCH   7  21
TORSDOF 4
ENDMDL
MODEL 5
REMARK VINA RESULT:      -8.0      2.427      3.133
REMARK  Name = 
REMARK  5 active torsions:
REMARK  status: ('A' for Active; 'I' for Inactive)
REMARK    1  A    between atoms: C_1  and  O_2
REMARK    2  A    between atoms: O_2  and  C_3
REMARK    3  A    between atoms: C_10  and  C_11
REMARK    4  A    between atoms: C_17  and  S_18
REMARK    5  A    between atoms: S_18  and  N_21
REMARK                            x       y       z     vdW  Elec       q    Type
REMARK                         _______ _______ _______ _____ _____    ______ ____
ROOT
ATOM      1  C   UNL     1       3.093   5.760  18.989  0.00  0.00    +0.000 A 
ATOM      2  N   UNL     1       2.994   4.776  19.925  0.00  0.00    +0.000 NA
ATOM      3  C   UNL     1       2.186   4.967  20.984  0.00  0.00    +0.000 A 
ATOM      4  C   UNL     1       1.505   6.141  21.224  0.00  0.00    +0.000 A 
ATOM      5  C   UNL     1       1.610   7.177  20.298  0.00  0.00    +0.000 A 
ATOM      6  C   UNL     1       0.984   8.408  20.554  0.00  0.00    +0.000 A 
ATOM      7  C   UNL     1       1.082   9.453  19.636  0.00  0.00    +0.000 A 
ATOM      8  C   UNL     1       1.751   9.270  18.431  0.00  0.00    +0.000 A 
ATOM      9  C   UNL     1       2.343   8.039  18.160  0.00  0.00    +0.000 A 
ATOM     10  C   UNL     1       2.363   6.984  19.110  0.00  0.00    +0.000 A 
ENDROOT
BRANCH   1  18
ATOM     11  C   UNL     1       4.001   4.444  16.977  0.00  0.00    +0.000 A 
ATOM     12  C   UNL     1       5.010   4.224  16.022  0.00  0.00    +0.000 A 
ATOM     13  C   UNL     1       6.148   5.027  15.982  0.00  0.00    +0.000 A 
ATOM     14 CL   UNL     1       7.322   4.713  14.756  0.00  0.00    +0.000 Cl
ATOM     15  C   UNL     1       6.299   6.044  16.919  0.00  0.00    +0.000 A 
ATOM     16 CL   UNL     1       7.645   7.126  16.910  0.00  0.00    +0.000 Cl
ATOM     17  C   UNL     1       5.321   6.231  17.901  0.00  0.00    +0.000 A 
ATOM     18  C   UNL     1       4.120   5.484  17.934  0.00  0.00    +0.000 A 
BRANCH  11  20
ATOM     19  C   UNL     1       2.952   2.379  17.464  0.00  0.00    +0.000 C 
ATOM     20  O   UNL     1       2.842   3.705  16.949  0.00  0.00    +0.000 OA
ENDBRANCH  11  20
ENDBRANCH   1  18
BRANCH   7  21
ATOM     21  S   UNL     1       0.454  11.061  20.028  0.00  0.00    +0.000 S 
ATOM     22  O   UNL     1      -0.971  10.921  20.274  0.00  0.00    +0.000 OA
ATOM     23  O   UNL     1       1.322  11.632  21.034  0.00  0.00    +0.000 OA
BRANCH  21  24
ATOM     24  N   UNL     1       0.590  11.852  18.548  0.00  0.00    +0.000 N 
ATOM     25  C   UNL     1       0.896  13.223  18.708  0.00  0.00    +0.000 A 
ATOM     26  N   UNL     1      -0.058  14.106  18.558  0.00  0.00    +0.000 NA
ATOM     27  C   UNL     1       0.467  15.367  18.771  0.00  0.00    +0.000 A 
ATOM     28  C   UNL     1       1.834  15.421  18.959  0.00  0.00    +0.000 A 
ATOM     29  S   UNL     1       2.477  13.829  18.934  0.00  0.00    +0.000 S 
ATOM     30  H   UNL     1      -0.328  11.779  18.105  0.00  0.00    +0.000 HD
ENDBRANCH  21  24
ENDBRANCH   7  21
TORSDOF 4
ENDMDL
MODEL 6
REMARK VINA RESULT:      -8.0      1.433      1.524
REMARK  Name = 
REMARK  5 active torsions:
REMARK  status: ('A' for Active; 'I' for Inactive)
REMARK    1  A    between atoms: C_1  and  O_2
REMARK    2  A    between atoms: O_2  and  C_3
REMARK    3  A    between atoms: C_10  and  C_11
REMARK    4  A    between atoms: C_17  and  S_18
REMARK    5  A    between atoms: S_18  and  N_21
REMARK                            x       y       z     vdW  Elec       q    Type
REMARK                         _______ _______ _______ _____ _____    ______ ____
ROOT
ATOM      1  C   UNL     1       3.941   5.208  18.233  0.00  0.00    +0.000 A 
ATOM      2  N   UNL     1       3.974   4.093  19.013  0.00  0.00    +0.000 NA
ATOM      3  C   UNL     1       3.189   4.041  20.105  0.00  0.00    +0.000 A 
ATOM      4  C   UNL     1       2.403   5.090  20.531  0.00  0.00    +0.000 A 
ATOM      5  C   UNL     1       2.372   6.256  19.769  0.00  0.00    +0.000 A 
ATOM      6  C   UNL     1       1.637   7.365  20.220  0.00  0.00    +0.000 A 
ATOM      7  C   UNL     1       1.597   8.538  19.466  0.00  0.00    +0.000 A 
ATOM      8  C   UNL     1       2.238   8.604  18.234  0.00  0.00    +0.000 A 
ATOM      9  C   UNL     1       2.939   7.494  17.770  0.00  0.00    +0.000 A 
ATOM     10  C   UNL     1       3.098   6.318  18.551  0.00  0.00    +0.000 A 
ENDROOT
BRANCH   1  18
ATOM     11  C   UNL     1       6.237   5.788  17.235  0.00  0.00    +0.000 A 
ATOM     12  C   UNL     1       7.136   5.762  16.153  0.00  0.00    +0.000 A 
ATOM     13  C   UNL     1       6.792   5.147  14.950  0.00  0.00    +0.000 A 
ATOM     14 CL   UNL     1       7.966   5.129  13.683  0.00  0.00    +0.000 Cl
ATOM     15  C   UNL     1       5.532   4.576  14.811  0.00  0.00    +0.000 A 
ATOM     16 CL   UNL     1       5.041   3.743  13.380  0.00  0.00    +0.000 Cl
ATOM     17  C   UNL     1       4.619   4.647  15.868  0.00  0.00    +0.000 A 
ATOM     18  C   UNL     1       4.952   5.198  17.127  0.00  0.00    +0.000 A 
BRANCH  11  20
ATOM     19  C   UNL     1       7.772   5.712  19.034  0.00  0.00    +0.000 C 
ATOM     20  O   UNL     1       6.621   6.314  18.446  0.00  0.00    +0.000 OA
ENDBRANCH  11  20
ENDBRANCH   1  18
BRANCH   7  21
ATOM     21  S   UNL     1       0.826   9.997  20.108  0.00  0.00    +0.000 S 
ATOM     22  O   UNL     1      -0.598   9.887  19.842  0.00  0.00    +0.000 OA
ATOM     23  O   UNL     1       1.311  10.185  21.457  0.00  0.00    +0.000 OA
BRANCH  21  24
ATOM     24  N   UNL     1       1.401  11.178  19.055  0.00  0.00    +0.000 N 
ATOM     25  C   UNL     1       0.908  12.463  19.382  0.00  0.00    +0.000 A 
ATOM     26  N   UNL     1      -0.065  12.967  18.666  0.00  0.00    +0.000 NA
ATOM     27  C   UNL     1      -0.387  14.212  19.172  0.00  0.00    +0.000 A 
ATOM     28  C   UNL     1       0.429  14.676  20.185  0.00  0.00    +0.000 A 
ATOM     29  S   UNL     1       1.603  13.482  20.563  0.00  0.00    +0.000 S 
ATOM     30  H   UNL     1       1.049  10.926  18.131  0.00  0.00    +0.000 HD
ENDBRANCH  21  24
ENDBRANCH   7  21
TORSDOF 4
ENDMDL
MODEL 7
REMARK VINA RESULT:      -7.9      2.262      3.156
REMARK  Name = 
REMARK  5 active torsions:
REMARK  status: ('A' for Active; 'I' for Inactive)
REMARK    1  A    between atoms: C_1  and  O_2
REMARK    2  A    between atoms: O_2  and  C_3
REMARK    3  A    between atoms: C_10  and  C_11
REMARK    4  A    between atoms: C_17  and  S_18
REMARK    5  A    between atoms: S_18  and  N_21
REMARK                            x       y       z     vdW  Elec       q    Type
REMARK                         _______ _______ _______ _____ _____    ______ ____
ROOT
ATOM      1  C   UNL     1       3.051   5.850  19.025  0.00  0.00    +0.000 A 
ATOM      2  N   UNL     1       2.919   4.877  19.968  0.00  0.00    +0.000 NA
ATOM      3  C   UNL     1       2.109   5.098  21.020  0.00  0.00    +0.000 A 
ATOM      4  C   UNL     1       1.457   6.292  21.245  0.00  0.00    +0.000 A 
ATOM      5  C   UNL     1       1.597   7.317  20.311  0.00  0.00    +0.000 A 
ATOM      6  C   UNL     1       1.002   8.567  20.553  0.00  0.00    +0.000 A 
ATOM      7  C   UNL     1       1.134   9.601  19.626  0.00  0.00    +0.000 A 
ATOM      8  C   UNL     1       1.807   9.390  18.428  0.00  0.00    +0.000 A 
ATOM      9  C   UNL     1       2.368   8.141  18.172  0.00  0.00    +0.000 A 
ATOM     10  C   UNL     1       2.353   7.094  19.131  0.00  0.00    +0.000 A 
ENDROOT
BRANCH   1  18
ATOM     11  C   UNL     1       3.944   4.484  17.040  0.00  0.00    +0.000 A 
ATOM     12  C   UNL     1       4.953   4.230  16.093  0.00  0.00    +0.000 A 
ATOM     13  C   UNL     1       6.106   5.012  16.046  0.00  0.00    +0.000 A 
ATOM     14 CL   UNL     1       7.280   4.655  14.831  0.00  0.00    +0.000 Cl
ATOM     15  C   UNL     1       6.271   6.041  16.967  0.00  0.00    +0.000 A 
ATOM     16 CL   UNL     1       7.637   7.098  16.947  0.00  0.00    +0.000 Cl
ATOM     17  C   UNL     1       5.292   6.262  17.941  0.00  0.00    +0.000 A 
ATOM     18  C   UNL     1       4.077   5.538  17.979  0.00  0.00    +0.000 A 
BRANCH  11  20
ATOM     19  C   UNL     1       2.865   2.432  17.513  0.00  0.00    +0.000 C 
ATOM     20  O   UNL     1       2.771   3.767  17.018  0.00  0.00    +0.000 OA
ENDBRANCH  11  20
ENDBRANCH   1  18
BRANCH   7  21
ATOM     21  S   UNL     1       0.546  11.228  20.001  0.00  0.00    +0.000 S 
ATOM     22  O   UNL     1       1.529  11.856  20.867  0.00  0.00    +0.000 OA
ATOM     23  O   UNL     1       0.164  11.848  18.752  0.00  0.00    +0.000 OA
BRANCH  21  24
ATOM     24  N   UNL     1      -0.783  10.895  20.978  0.00  0.00    +0.000 N 
ATOM     25  C   UNL     1      -1.232  12.044  21.670  0.00  0.00    +0.000 A 
ATOM     26  N   UNL     1      -0.929  12.178  22.936  0.00  0.00    +0.000 NA
ATOM     27  C   UNL     1      -1.457  13.371  23.394  0.00  0.00    +0.000 A 
ATOM     28  C   UNL     1      -2.252  14.056  22.497  0.00  0.00    +0.000 A 
ATOM     29  S   UNL     1      -2.286  13.211  21.003  0.00  0.00    +0.000 S 
ATOM     30  H   UNL     1      -0.462  10.213  21.667  0.00  0.00    +0.000 HD
ENDBRANCH  21  24
ENDBRANCH   7  21
TORSDOF 4
ENDMDL
MODEL 8
REMARK VINA RESULT:      -7.7      2.844      3.814
REMARK  Name = 
REMARK  5 active torsions:
REMARK  status: ('A' for Active; 'I' for Inactive)
REMARK    1  A    between atoms: C_1  and  O_2
REMARK    2  A    between atoms: O_2  and  C_3
REMARK    3  A    between atoms: C_10  and  C_11
REMARK    4  A    between atoms: C_17  and  S_18
REMARK    5  A    between atoms: S_18  and  N_21
REMARK                            x       y       z     vdW  Elec       q    Type
REMARK                         _______ _______ _______ _____ _____    ______ ____
ROOT
ATOM      1  C   UNL     1       2.839   6.363  18.943  0.00  0.00    +0.000 A 
ATOM      2  N   UNL     1       2.600   5.534  19.996  0.00  0.00    +0.000 NA
ATOM      3  C   UNL     1       1.769   5.946  20.971  0.00  0.00    +0.000 A 
ATOM      4  C   UNL     1       1.196   7.199  21.007  0.00  0.00    +0.000 A 
ATOM      5  C   UNL     1       1.445   8.080  19.957  0.00  0.00    +0.000 A 
ATOM      6  C   UNL     1       0.934   9.387  20.006  0.00  0.00    +0.000 A 
ATOM      7  C   UNL     1       1.176  10.279  18.961  0.00  0.00    +0.000 A 
ATOM      8  C   UNL     1       1.877   9.867  17.834  0.00  0.00    +0.000 A 
ATOM      9  C   UNL     1       2.356   8.560  17.768  0.00  0.00    +0.000 A 
ATOM     10  C   UNL     1       2.229   7.653  18.853  0.00  0.00    +0.000 A 
ENDROOT
BRANCH   1  18
ATOM     11  C   UNL     1       3.709   4.687  17.199  0.00  0.00    +0.000 A 
ATOM     12  C   UNL     1       4.733   4.243  16.343  0.00  0.00    +0.000 A 
ATOM     13  C   UNL     1       5.939   4.936  16.247  0.00  0.00    +0.000 A 
ATOM     14 CL   UNL     1       7.130   4.345  15.146  0.00  0.00    +0.000 Cl
ATOM     15  C   UNL     1       6.140   6.068  17.030  0.00  0.00    +0.000 A 
ATOM     16 CL   UNL     1       7.576   7.023  16.934  0.00  0.00    +0.000 Cl
ATOM     17  C   UNL     1       5.143   6.481  17.920  0.00  0.00    +0.000 A 
ATOM     18  C   UNL     1       3.880   5.847  17.997  0.00  0.00    +0.000 A 
BRANCH  11  20
ATOM     19  C   UNL     1       2.519   2.697  17.670  0.00  0.00    +0.000 C 
ATOM     20  O   UNL     1       2.491   4.050  17.217  0.00  0.00    +0.000 OA
ENDBRANCH  11  20
ENDBRANCH   1  18
BRANCH   7  21
ATOM     21  S   UNL     1       0.692  11.977  19.093  0.00  0.00    +0.000 S 
ATOM     22  O   UNL     1       1.755  12.776  18.508  0.00  0.00    +0.000 OA
ATOM     23  O   UNL     1      -0.663  12.081  18.601  0.00  0.00    +0.000 OA
BRANCH  21  24
ATOM     24  N   UNL     1       0.787  12.231  20.754  0.00  0.00    +0.000 N 
ATOM     25  C   UNL     1       1.314  13.506  21.065  0.00  0.00    +0.000 A 
ATOM     26  N   UNL     1       2.560  13.596  21.456  0.00  0.00    +0.000 NA
ATOM     27  C   UNL     1       2.855  14.926  21.689  0.00  0.00    +0.000 A 
ATOM     28  C   UNL     1       1.793  15.802  21.586  0.00  0.00    +0.000 A 
ATOM     29  S   UNL     1       0.385  14.939  21.116  0.00  0.00    +0.000 S 
ATOM     30  H   UNL     1       1.430  11.523  21.111  0.00  0.00    +0.000 HD
ENDBRANCH  21  24
ENDBRANCH   7  21
TORSDOF 4
ENDMDL
MODEL 9
REMARK VINA RESULT:      -7.7      2.960      3.741
REMARK  Name = 
REMARK  5 active torsions:
REMARK  status: ('A' for Active; 'I' for Inactive)
REMARK    1  A    between atoms: C_1  and  O_2
REMARK    2  A    between atoms: O_2  and  C_3
REMARK    3  A    between atoms: C_10  and  C_11
REMARK    4  A    between atoms: C_17  and  S_18
REMARK    5  A    between atoms: S_18  and  N_21
REMARK                            x       y       z     vdW  Elec       q    Type
REMARK                         _______ _______ _______ _____ _____    ______ ____
ROOT
ATOM      1  C   UNL     1       2.892   6.273  18.968  0.00  0.00    +0.000 A 
ATOM      2  N   UNL     1       2.672   5.412  19.998  0.00  0.00    +0.000 NA
ATOM      3  C   UNL     1       1.839   5.782  20.988  0.00  0.00    +0.000 A 
ATOM      4  C   UNL     1       1.248   7.025  21.063  0.00  0.00    +0.000 A 
ATOM      5  C   UNL     1       1.478   7.940  20.037  0.00  0.00    +0.000 A 
ATOM      6  C   UNL     1       0.946   9.237  20.126  0.00  0.00    +0.000 A 
ATOM      7  C   UNL     1       1.169  10.161  19.105  0.00  0.00    +0.000 A 
ATOM      8  C   UNL     1       1.871   9.792  17.964  0.00  0.00    +0.000 A 
ATOM      9  C   UNL     1       2.370   8.496  17.859  0.00  0.00    +0.000 A 
ATOM     10  C   UNL     1       2.262   7.556  18.918  0.00  0.00    +0.000 A 
ENDROOT
BRANCH   1  18
ATOM     11  C   UNL     1       3.778   4.665  17.169  0.00  0.00    +0.000 A 
ATOM     12  C   UNL     1       4.804   4.262  16.296  0.00  0.00    +0.000 A 
ATOM     13  C   UNL     1       6.000   4.973  16.218  0.00  0.00    +0.000 A 
ATOM     14 CL   UNL     1       7.195   4.432  15.095  0.00  0.00    +0.000 Cl
ATOM     15  C   UNL     1       6.190   6.081  17.036  0.00  0.00    +0.000 A 
ATOM     16 CL   UNL     1       7.613   7.058  16.966  0.00  0.00    +0.000 Cl
ATOM     17  C   UNL     1       5.191   6.453  17.941  0.00  0.00    +0.000 A 
ATOM     18  C   UNL     1       3.937   5.802  18.002  0.00  0.00    +0.000 A 
BRANCH  11  20
ATOM     19  C   UNL     1       2.611   2.652  17.601  0.00  0.00    +0.000 C 
ATOM     20  O   UNL     1       2.568   4.012  17.171  0.00  0.00    +0.000 OA
ENDBRANCH  11  20
ENDBRANCH   1  18
BRANCH   7  21
ATOM     21  S   UNL     1       0.660  11.847  19.288  0.00  0.00    +0.000 S 
ATOM     22  O   UNL     1      -0.467  12.058  18.396  0.00  0.00    +0.000 OA
ATOM     23  O   UNL     1       0.537  12.111  20.704  0.00  0.00    +0.000 OA
BRANCH  21  24
ATOM     24  N   UNL     1       1.954  12.672  18.598  0.00  0.00    +0.000 N 
ATOM     25  C   UNL     1       2.191  13.912  19.234  0.00  0.00    +0.000 A 
ATOM     26  N   UNL     1       1.789  15.011  18.647  0.00  0.00    +0.000 NA
ATOM     27  C   UNL     1       2.113  16.087  19.451  0.00  0.00    +0.000 A 
ATOM     28  C   UNL     1       2.862  15.791  20.573  0.00  0.00    +0.000 A 
ATOM     29  S   UNL     1       3.113  14.095  20.660  0.00  0.00    +0.000 S 
ATOM     30  H   UNL     1       1.687  12.855  17.629  0.00  0.00    +0.000 HD
ENDBRANCH  21  24
ENDBRANCH   7  21
TORSDOF 4
ENDMDL
