MODEL 1
REMARK VINA RESULT:      -8.7      0.000      0.000
REMARK  Name = 
REMARK  5 active torsions:
REMARK  status: ('A' for Active; 'I' for Inactive)
REMARK    1  A    between atoms: C_1  and  C_2
REMARK    2  A    between atoms: C_2  and  C_3
REMARK    3  A    between atoms: N_5  and  C_6
REMARK    4  A    between atoms: C_10  and  C_11
REMARK    5  A    between atoms: C_11  and  C_13
REMARK                            x       y       z     vdW  Elec       q    Type
REMARK                         _______ _______ _______ _____ _____    ______ ____
ROOT
ATOM      1  C   UNL     1       5.317   5.931  16.293  0.00  0.00    +0.000 C 
ATOM      2  O   UNL     1       5.166   6.556  15.236  0.00  0.00    +0.000 OA
ENDROOT
BRANCH   1   3
ATOM      3  C   UNL     1       4.323   4.843  16.640  0.00  0.00    +0.000 C 
ATOM      4  C   UNL     1       3.457   5.067  17.650  0.00  0.00    +0.000 C 
ATOM      5  C   UNL     1       3.235   6.489  18.084  0.00  0.00    +0.000 C 
ATOM      6  O   UNL     1       3.269   7.486  17.392  0.00  0.00    +0.000 OA
ATOM      7  N   UNL     1       2.849   6.383  19.395  0.00  0.00    +0.000 N 
ATOM      8  C   UNL     1       2.403   5.100  19.690  0.00  0.00    +0.000 A 
ATOM      9  C   UNL     1       1.698   4.765  20.816  0.00  0.00    +0.000 A 
ATOM     10  C   UNL     1       1.267   3.448  20.933  0.00  0.00    +0.000 A 
ATOM     11  C   UNL     1       1.624   2.514  19.939  0.00  0.00    +0.000 A 
ATOM     12  C   UNL     1       2.380   2.889  18.793  0.00  0.00    +0.000 A 
ATOM     13  C   UNL     1       2.740   4.216  18.636  0.00  0.00    +0.000 A 
ATOM     14  H   UNL     1       2.960   7.141  20.045  0.00  0.00    +0.000 HD
ENDBRANCH   1   3
BRANCH   1  19
ATOM     15  C   UNL     1       7.974   8.187  17.887  0.00  0.00    +0.000 A 
ATOM     16  C   UNL     1       8.438   7.343  18.901  0.00  0.00    +0.000 A 
ATOM     17  C   UNL     1       7.931   6.058  19.060  0.00  0.00    +0.000 A 
ATOM     18  C   UNL     1       6.939   5.560  18.211  0.00  0.00    +0.000 A 
ATOM     19  C   UNL     1       6.414   6.380  17.215  0.00  0.00    +0.000 A 
ATOM     20  C   UNL     1       6.945   7.700  17.072  0.00  0.00    +0.000 A 
BRANCH  15  23
ATOM     21  C   UNL     1       9.052  10.318  18.670  0.00  0.00    +0.000 C 
ATOM     22  O   UNL     1       9.254   9.996  19.836  0.00  0.00    +0.000 OA
ATOM     23  N   UNL     1       8.494   9.500  17.682  0.00  0.00    +0.000 N 
ATOM     24  H   UNL     1       8.537   9.827  16.730  0.00  0.00    +0.000 HD
BRANCH  21  26
ATOM     25  C   UNL     1      10.941  11.876  18.055  0.00  0.00    +0.000 C 
ATOM     26  C   UNL     1       9.427  11.712  18.176  0.00  0.00    +0.000 C 
ENDBRANCH  21  26
ENDBRANCH  15  23
ENDBRANCH   1  19
TORSDOF 4
ENDMDL
MODEL 2
REMARK VINA RESULT:      -8.2      3.687      6.920
REMARK  Name = 
REMARK  5 active torsions:
REMARK  status: ('A' for Active; 'I' for Inactive)
REMARK    1  A    between atoms: C_1  and  C_2
REMARK    2  A    between atoms: C_2  and  C_3
REMARK    3  A    between atoms: N_5  and  C_6
REMARK    4  A    between atoms: C_10  and  C_11
REMARK    5  A    between atoms: C_11  and  C_13
REMARK                            x       y       z     vdW  Elec       q    Type
REMARK                         _______ _______ _______ _____ _____    ______ ____
ROOT
ATOM      1  C   UNL     1       2.835   5.378  19.222  0.00  0.00    +0.000 C 
ATOM      2  O   UNL     1       2.931   4.922  20.368  0.00  0.00    +0.000 OA
ENDROOT
BRANCH   1   3
ATOM      3  C   UNL     1       3.297   4.523  18.061  0.00  0.00    +0.000 C 
ATOM      4  C   UNL     1       4.540   4.720  17.577  0.00  0.00    +0.000 C 
ATOM      5  C   UNL     1       5.528   5.444  18.449  0.00  0.00    +0.000 C 
ATOM      6  O   UNL     1       5.597   5.424  19.661  0.00  0.00    +0.000 OA
ATOM      7  N   UNL     1       6.408   6.008  17.563  0.00  0.00    +0.000 N 
ATOM      8  C   UNL     1       6.341   5.389  16.320  0.00  0.00    +0.000 A 
ATOM      9  C   UNL     1       7.278   5.535  15.331  0.00  0.00    +0.000 A 
ATOM     10  C   UNL     1       7.100   4.796  14.166  0.00  0.00    +0.000 A 
ATOM     11  C   UNL     1       5.950   3.994  14.026  0.00  0.00    +0.000 A 
ATOM     12  C   UNL     1       4.981   3.884  15.063  0.00  0.00    +0.000 A 
ATOM     13  C   UNL     1       5.199   4.555  16.254  0.00  0.00    +0.000 A 
ATOM     14  H   UNL     1       6.960   6.812  17.800  0.00  0.00    +0.000 HD
ENDBRANCH   1   3
BRANCH   1  19
ATOM     15  C   UNL     1       1.442   8.820  20.172  0.00  0.00    +0.000 A 
ATOM     16  C   UNL     1       1.521   9.468  18.935  0.00  0.00    +0.000 A 
ATOM     17  C   UNL     1       1.987   8.810  17.802  0.00  0.00    +0.000 A 
ATOM     18  C   UNL     1       2.393   7.473  17.857  0.00  0.00    +0.000 A 
ATOM     19  C   UNL     1       2.374   6.800  19.077  0.00  0.00    +0.000 A 
ATOM     20  C   UNL     1       1.897   7.497  20.230  0.00  0.00    +0.000 A 
BRANCH  15  23
ATOM     21  C   UNL     1      -0.203   9.083  22.053  0.00  0.00    +0.000 C 
ATOM     22  O   UNL     1      -0.896   8.099  21.821  0.00  0.00    +0.000 OA
ATOM     23  N   UNL     1       0.943   9.461  21.345  0.00  0.00    +0.000 N 
ATOM     24  H   UNL     1       1.512  10.193  21.739  0.00  0.00    +0.000 HD
BRANCH  21  26
ATOM     25  C   UNL     1      -1.075  11.362  22.700  0.00  0.00    +0.000 C 
ATOM     26  C   UNL     1      -0.551  10.020  23.206  0.00  0.00    +0.000 C 
ENDBRANCH  21  26
ENDBRANCH  15  23
ENDBRANCH   1  19
TORSDOF 4
ENDMDL
MODEL 3
REMARK VINA RESULT:      -8.0      3.479      7.065
REMARK  Name = 
REMARK  5 active torsions:
REMARK  status: ('A' for Active; 'I' for Inactive)
REMARK    1  A    between atoms: C_1  and  C_2
REMARK    2  A    between atoms: C_2  and  C_3
REMARK    3  A    between atoms: N_5  and  C_6
REMARK    4  A    between atoms: C_10  and  C_11
REMARK    5  A    between atoms: C_11  and  C_13
REMARK                            x       y       z     vdW  Elec       q    Type
REMARK                         _______ _______ _______ _____ _____    ______ ____
ROOT
ATOM      1  C   UNL     1       4.127   5.334  17.461  0.00  0.00    +0.000 C 
ATOM      2  O   UNL     1       4.734   6.412  17.478  0.00  0.00    +0.000 OA
ENDROOT
BRANCH   1   3
ATOM      3  C   UNL     1       4.355   4.393  16.297  0.00  0.00    +0.000 C 
ATOM      4  C   UNL     1       5.516   4.486  15.617  0.00  0.00    +0.000 C 
ATOM      5  C   UNL     1       6.666   5.191  16.283  0.00  0.00    +0.000 C 
ATOM      6  O   UNL     1       6.922   5.229  17.469  0.00  0.00    +0.000 OA
ATOM      7  N   UNL     1       7.425   5.652  15.240  0.00  0.00    +0.000 N 
ATOM      8  C   UNL     1       7.132   4.976  14.061  0.00  0.00    +0.000 A 
ATOM      9  C   UNL     1       7.910   5.012  12.934  0.00  0.00    +0.000 A 
ATOM     10  C   UNL     1       7.512   4.226  11.857  0.00  0.00    +0.000 A 
ATOM     11  C   UNL     1       6.312   3.491  11.944  0.00  0.00    +0.000 A 
ATOM     12  C   UNL     1       5.513   3.496  13.121  0.00  0.00    +0.000 A 
ATOM     13  C   UNL     1       5.950   4.213  14.222  0.00  0.00    +0.000 A 
ATOM     14  H   UNL     1       8.050   6.432  15.341  0.00  0.00    +0.000 HD
ENDBRANCH   1   3
BRANCH   1  19
ATOM     15  C   UNL     1       1.902   5.979  20.515  0.00  0.00    +0.000 A 
ATOM     16  C   UNL     1       1.216   4.762  20.581  0.00  0.00    +0.000 A 
ATOM     17  C   UNL     1       1.476   3.735  19.680  0.00  0.00    +0.000 A 
ATOM     18  C   UNL     1       2.436   3.880  18.675  0.00  0.00    +0.000 A 
ATOM     19  C   UNL     1       3.114   5.090  18.542  0.00  0.00    +0.000 A 
ATOM     20  C   UNL     1       2.827   6.134  19.475  0.00  0.00    +0.000 A 
BRANCH  15  23
ATOM     21  C   UNL     1       1.283   8.341  21.110  0.00  0.00    +0.000 C 
ATOM     22  O   UNL     1       0.991   8.735  19.986  0.00  0.00    +0.000 OA
ATOM     23  N   UNL     1       1.677   7.040  21.442  0.00  0.00    +0.000 N 
ATOM     24  H   UNL     1       1.726   6.806  22.420  0.00  0.00    +0.000 HD
BRANCH  21  26
ATOM     25  C   UNL     1      -0.194   9.401  22.861  0.00  0.00    +0.000 C 
ATOM     26  C   UNL     1       1.223   9.290  22.303  0.00  0.00    +0.000 C 
ENDBRANCH  21  26
ENDBRANCH  15  23
ENDBRANCH   1  19
TORSDOF 4
ENDMDL
MODEL 4
REMARK VINA RESULT:      -7.9      3.880      6.786
REMARK  Name = 
REMARK  5 active torsions:
REMARK  status: ('A' for Active; 'I' for Inactive)
REMARK    1  A    between atoms: C_1  and  C_2
REMARK    2  A    between atoms: C_2  and  C_3
REMARK    3  A    between atoms: N_5  and  C_6
REMARK    4  A    between atoms: C_10  and  C_11
REMARK    5  A    between atoms: C_11  and  C_13
REMARK                            x       y       z     vdW  Elec       q    Type
REMARK                         _______ _______ _______ _____ _____    ______ ____
ROOT
ATOM      1  C   UNL     1       3.550   4.427  18.508  0.00  0.00    +0.000 C 
ATOM      2  O   UNL     1       3.750   3.810  19.562  0.00  0.00    +0.000 OA
ENDROOT
BRANCH   1   3
ATOM      3  C   UNL     1       3.927   3.767  17.199  0.00  0.00    +0.000 C 
ATOM      4  C   UNL     1       5.122   4.068  16.651  0.00  0.00    +0.000 C 
ATOM      5  C   UNL     1       6.168   4.682  17.541  0.00  0.00    +0.000 C 
ATOM      6  O   UNL     1       6.338   4.485  18.727  0.00  0.00    +0.000 OA
ATOM      7  N   UNL     1       6.962   5.395  16.681  0.00  0.00    +0.000 N 
ATOM      8  C   UNL     1       6.802   4.966  15.369  0.00  0.00    +0.000 A 
ATOM      9  C   UNL     1       7.650   5.283  14.341  0.00  0.00    +0.000 A 
ATOM     10  C   UNL     1       7.387   4.720  13.096  0.00  0.00    +0.000 A 
ATOM     11  C   UNL     1       6.242   3.915  12.931  0.00  0.00    +0.000 A 
ATOM     12  C   UNL     1       5.365   3.626  14.014  0.00  0.00    +0.000 A 
ATOM     13  C   UNL     1       5.671   4.119  15.271  0.00  0.00    +0.000 A 
ATOM     14  H   UNL     1       7.519   6.171  16.991  0.00  0.00    +0.000 HD
ENDBRANCH   1   3
BRANCH   1  19
ATOM     15  C   UNL     1       1.988   7.585  20.018  0.00  0.00    +0.000 A 
ATOM     16  C   UNL     1       2.130   8.468  18.944  0.00  0.00    +0.000 A 
ATOM     17  C   UNL     1       2.693   8.058  17.740  0.00  0.00    +0.000 A 
ATOM     18  C   UNL     1       3.136   6.745  17.558  0.00  0.00    +0.000 A 
ATOM     19  C   UNL     1       3.056   5.841  18.615  0.00  0.00    +0.000 A 
ATOM     20  C   UNL     1       2.479   6.285  19.845  0.00  0.00    +0.000 A 
BRANCH  15  23
ATOM     21  C   UNL     1       0.948   9.256  21.581  0.00  0.00    +0.000 C 
ATOM     22  O   UNL     1       0.933  10.220  20.824  0.00  0.00    +0.000 OA
ATOM     23  N   UNL     1       1.389   7.969  21.255  0.00  0.00    +0.000 N 
ATOM     24  H   UNL     1       1.193   7.231  21.913  0.00  0.00    +0.000 HD
BRANCH  21  26
ATOM     25  C   UNL     1      -0.835  10.217  23.087  0.00  0.00    +0.000 C 
ATOM     26  C   UNL     1       0.447   9.390  23.016  0.00  0.00    +0.000 C 
ENDBRANCH  21  26
ENDBRANCH  15  23
ENDBRANCH   1  19
TORSDOF 4
ENDMDL
MODEL 5
REMARK VINA RESULT:      -7.9      3.571      5.499
REMARK  Name = 
REMARK  5 active torsions:
REMARK  status: ('A' for Active; 'I' for Inactive)
REMARK    1  A    between atoms: C_1  and  C_2
REMARK    2  A    between atoms: C_2  and  C_3
REMARK    3  A    between atoms: N_5  and  C_6
REMARK    4  A    between atoms: C_10  and  C_11
REMARK    5  A    between atoms: C_11  and  C_13
REMARK                            x       y       z     vdW  Elec       q    Type
REMARK                         _______ _______ _______ _____ _____    ______ ____
ROOT
ATOM      1  C   UNL     1       3.755   3.844  19.480  0.00  0.00    +0.000 C 
ATOM      2  O   UNL     1       3.379   2.669  19.382  0.00  0.00    +0.000 OA
ENDROOT
BRANCH   1   3
ATOM      3  C   UNL     1       2.921   4.805  20.301  0.00  0.00    +0.000 C 
ATOM      4  C   UNL     1       2.331   5.841  19.669  0.00  0.00    +0.000 C 
ATOM      5  C   UNL     1       2.173   5.756  18.176  0.00  0.00    +0.000 C 
ATOM      6  O   UNL     1       1.994   4.758  17.508  0.00  0.00    +0.000 OA
ATOM      7  N   UNL     1       2.135   7.064  17.769  0.00  0.00    +0.000 N 
ATOM      8  C   UNL     1       1.826   7.914  18.823  0.00  0.00    +0.000 A 
ATOM      9  C   UNL     1       1.441   9.221  18.676  0.00  0.00    +0.000 A 
ATOM     10  C   UNL     1       1.102   9.922  19.830  0.00  0.00    +0.000 A 
ATOM     11  C   UNL     1       1.231   9.291  21.084  0.00  0.00    +0.000 A 
ATOM     12  C   UNL     1       1.659   7.940  21.204  0.00  0.00    +0.000 A 
ATOM     13  C   UNL     1       1.918   7.217  20.052  0.00  0.00    +0.000 A 
ATOM     14  H   UNL     1       2.378   7.336  16.833  0.00  0.00    +0.000 HD
ENDBRANCH   1   3
BRANCH   1  19
ATOM     15  C   UNL     1       6.160   4.152  16.512  0.00  0.00    +0.000 A 
ATOM     16  C   UNL     1       7.125   5.001  17.064  0.00  0.00    +0.000 A 
ATOM     17  C   UNL     1       7.027   5.451  18.376  0.00  0.00    +0.000 A 
ATOM     18  C   UNL     1       5.961   5.069  19.194  0.00  0.00    +0.000 A 
ATOM     19  C   UNL     1       4.952   4.260  18.675  0.00  0.00    +0.000 A 
ATOM     20  C   UNL     1       5.069   3.814  17.322  0.00  0.00    +0.000 A 
BRANCH  15  23
ATOM     21  C   UNL     1       6.650   4.388  14.058  0.00  0.00    +0.000 C 
ATOM     22  O   UNL     1       7.066   5.542  14.071  0.00  0.00    +0.000 OA
ATOM     23  N   UNL     1       6.248   3.652  15.178  0.00  0.00    +0.000 N 
ATOM     24  H   UNL     1       6.088   2.666  15.052  0.00  0.00    +0.000 HD
BRANCH  21  26
ATOM     25  C   UNL     1       5.093   3.487  12.288  0.00  0.00    +0.000 C 
ATOM     26  C   UNL     1       6.544   3.618  12.745  0.00  0.00    +0.000 C 
ENDBRANCH  21  26
ENDBRANCH  15  23
ENDBRANCH   1  19
TORSDOF 4
ENDMDL
MODEL 6
REMARK VINA RESULT:      -7.8      3.908      5.808
REMARK  Name = 
REMARK  5 active torsions:
REMARK  status: ('A' for Active; 'I' for Inactive)
REMARK    1  A    between atoms: C_1  and  C_2
REMARK    2  A    between atoms: C_2  and  C_3
REMARK    3  A    between atoms: N_5  and  C_6
REMARK    4  A    between atoms: C_10  and  C_11
REMARK    5  A    between atoms: C_11  and  C_13
REMARK                            x       y       z     vdW  Elec       q    Type
REMARK                         _______ _______ _______ _____ _____    ______ ____
ROOT
ATOM      1  C   UNL     1       3.139   5.949  17.785  0.00  0.00    +0.000 C 
ATOM      2  O   UNL     1       2.179   5.177  17.671  0.00  0.00    +0.000 OA
ENDROOT
BRANCH   1   3
ATOM      3  C   UNL     1       2.864   7.401  18.119  0.00  0.00    +0.000 C 
ATOM      4  C   UNL     1       2.272   7.685  19.296  0.00  0.00    +0.000 C 
ATOM      5  C   UNL     1       2.302   6.633  20.371  0.00  0.00    +0.000 C 
ATOM      6  O   UNL     1       3.175   5.815  20.578  0.00  0.00    +0.000 OA
ATOM      7  N   UNL     1       1.200   6.906  21.138  0.00  0.00    +0.000 N 
ATOM      8  C   UNL     1       0.750   8.205  20.935  0.00  0.00    +0.000 A 
ATOM      9  C   UNL     1      -0.140   8.853  21.751  0.00  0.00    +0.000 A 
ATOM     10  C   UNL     1      -0.441  10.177  21.447  0.00  0.00    +0.000 A 
ATOM     11  C   UNL     1       0.120  10.765  20.296  0.00  0.00    +0.000 A 
ATOM     12  C   UNL     1       1.022  10.057  19.454  0.00  0.00    +0.000 A 
ATOM     13  C   UNL     1       1.385   8.766  19.800  0.00  0.00    +0.000 A 
ATOM     14  H   UNL     1       0.761   6.204  21.706  0.00  0.00    +0.000 HD
ENDBRANCH   1   3
BRANCH   1  19
ATOM     15  C   UNL     1       5.980   4.293  15.817  0.00  0.00    +0.000 A 
ATOM     16  C   UNL     1       7.022   4.409  16.743  0.00  0.00    +0.000 A 
ATOM     17  C   UNL     1       6.818   4.985  17.992  0.00  0.00    +0.000 A 
ATOM     18  C   UNL     1       5.562   5.467  18.371  0.00  0.00    +0.000 A 
ATOM     19  C   UNL     1       4.504   5.413  17.465  0.00  0.00    +0.000 A 
ATOM     20  C   UNL     1       4.737   4.823  16.185  0.00  0.00    +0.000 A 
BRANCH  15  23
ATOM     21  C   UNL     1       6.799   4.261  13.441  0.00  0.00    +0.000 C 
ATOM     22  O   UNL     1       7.385   5.338  13.442  0.00  0.00    +0.000 OA
ATOM     23  N   UNL     1       6.152   3.682  14.539  0.00  0.00    +0.000 N 
ATOM     24  H   UNL     1       5.857   2.724  14.450  0.00  0.00    +0.000 HD
BRANCH  21  26
ATOM     25  C   UNL     1       5.295   3.103  11.778  0.00  0.00    +0.000 C 
ATOM     26  C   UNL     1       6.737   3.414  12.173  0.00  0.00    +0.000 C 
ENDBRANCH  21  26
ENDBRANCH  15  23
ENDBRANCH   1  19
TORSDOF 4
ENDMDL
MODEL 7
REMARK VINA RESULT:      -7.7      4.042      6.140
REMARK  Name = 
REMARK  5 active torsions:
REMARK  status: ('A' for Active; 'I' for Inactive)
REMARK    1  A    between atoms: C_1  and  C_2
REMARK    2  A    between atoms: C_2  and  C_3
REMARK    3  A    between atoms: N_5  and  C_6
REMARK    4  A    between atoms: C_10  and  C_11
REMARK    5  A    between atoms: C_11  and  C_13
REMARK                            x       y       z     vdW  Elec       q    Type
REMARK                         _______ _______ _______ _____ _____    ______ ____
ROOT
ATOM      1  C   UNL     1       1.845   3.545  18.193  0.00  0.00    +0.000 C 
ATOM      2  O   UNL     1       1.223   2.546  18.575  0.00  0.00    +0.000 OA
ENDROOT
BRANCH   1   3
ATOM      3  C   UNL     1       2.690   3.436  16.941  0.00  0.00    +0.000 C 
ATOM      4  C   UNL     1       4.028   3.557  17.061  0.00  0.00    +0.000 C 
ATOM      5  C   UNL     1       4.632   3.367  18.425  0.00  0.00    +0.000 C 
ATOM      6  O   UNL     1       4.241   2.634  19.310  0.00  0.00    +0.000 OA
ATOM      7  N   UNL     1       5.792   4.097  18.382  0.00  0.00    +0.000 N 
ATOM      8  C   UNL     1       6.183   4.351  17.073  0.00  0.00    +0.000 A 
ATOM      9  C   UNL     1       7.425   4.801  16.710  0.00  0.00    +0.000 A 
ATOM     10  C   UNL     1       7.680   4.945  15.350  0.00  0.00    +0.000 A 
ATOM     11  C   UNL     1       6.650   4.691  14.423  0.00  0.00    +0.000 A 
ATOM     12  C   UNL     1       5.361   4.249  14.835  0.00  0.00    +0.000 A 
ATOM     13  C   UNL     1       5.131   4.028  16.182  0.00  0.00    +0.000 A 
ATOM     14  H   UNL     1       6.231   4.446  19.215  0.00  0.00    +0.000 HD
ENDBRANCH   1   3
BRANCH   1  19
ATOM     15  C   UNL     1       2.058   7.225  19.242  0.00  0.00    +0.000 A 
ATOM     16  C   UNL     1       1.734   7.114  20.598  0.00  0.00    +0.000 A 
ATOM     17  C   UNL     1       1.475   5.878  21.181  0.00  0.00    +0.000 A 
ATOM     18  C   UNL     1       1.533   4.699  20.433  0.00  0.00    +0.000 A 
ATOM     19  C   UNL     1       1.809   4.763  19.069  0.00  0.00    +0.000 A 
ATOM     20  C   UNL     1       2.065   6.044  18.489  0.00  0.00    +0.000 A 
BRANCH  15  23
ATOM     21  C   UNL     1       1.518   9.596  18.611  0.00  0.00    +0.000 C 
ATOM     22  O   UNL     1       0.448   9.697  19.200  0.00  0.00    +0.000 OA
ATOM     23  N   UNL     1       2.355   8.476  18.623  0.00  0.00    +0.000 N 
ATOM     24  H   UNL     1       3.279   8.582  18.236  0.00  0.00    +0.000 HD
BRANCH  21  26
ATOM     25  C   UNL     1       1.985  12.076  18.546  0.00  0.00    +0.000 C 
ATOM     26  C   UNL     1       2.056  10.758  17.779  0.00  0.00    +0.000 C 
ENDBRANCH  21  26
ENDBRANCH  15  23
ENDBRANCH   1  19
TORSDOF 4
ENDMDL
MODEL 8
REMARK VINA RESULT:      -7.7      0.971      1.053
REMARK  Name = 
REMARK  5 active torsions:
REMARK  status: ('A' for Active; 'I' for Inactive)
REMARK    1  A    between atoms: C_1  and  C_2
REMARK    2  A    between atoms: C_2  and  C_3
REMARK    3  A    between atoms: N_5  and  C_6
REMARK    4  A    between atoms: C_10  and  C_11
REMARK    5  A    between atoms: C_11  and  C_13
REMARK                            x       y       z     vdW  Elec       q    Type
REMARK                         _______ _______ _______ _____ _____    ______ ____
ROOT
ATOM      1  C   UNL     1       5.399   5.919  16.346  0.00  0.00    +0.000 C 
ATOM      2  O   UNL     1       5.428   6.809  15.487  0.00  0.00    +0.000 OA
ENDROOT
BRANCH   1   3
ATOM      3  C   UNL     1       4.198   4.998  16.394  0.00  0.00    +0.000 C 
ATOM      4  C   UNL     1       3.332   5.130  17.420  0.00  0.00    +0.000 C 
ATOM      5  C   UNL     1       3.357   6.415  18.200  0.00  0.00    +0.000 C 
ATOM      6  O   UNL     1       3.620   7.526  17.786  0.00  0.00    +0.000 OA
ATOM      7  N   UNL     1       2.881   6.065  19.437  0.00  0.00    +0.000 N 
ATOM      8  C   UNL     1       2.184   4.864  19.390  0.00  0.00    +0.000 A 
ATOM      9  C   UNL     1       1.363   4.406  20.387  0.00  0.00    +0.000 A 
ATOM     10  C   UNL     1       0.684   3.213  20.160  0.00  0.00    +0.000 A 
ATOM     11  C   UNL     1       0.917   2.503  18.964  0.00  0.00    +0.000 A 
ATOM     12  C   UNL     1       1.797   2.994  17.959  0.00  0.00    +0.000 A 
ATOM     13  C   UNL     1       2.409   4.221  18.149  0.00  0.00    +0.000 A 
ATOM     14  H   UNL     1       3.094   6.600  20.259  0.00  0.00    +0.000 HD
ENDBRANCH   1   3
BRANCH   1  19
ATOM     15  C   UNL     1       8.157   7.180  18.690  0.00  0.00    +0.000 A 
ATOM     16  C   UNL     1       8.565   5.972  19.263  0.00  0.00    +0.000 A 
ATOM     17  C   UNL     1       7.988   4.763  18.890  0.00  0.00    +0.000 A 
ATOM     18  C   UNL     1       6.979   4.710  17.924  0.00  0.00    +0.000 A 
ATOM     19  C   UNL     1       6.509   5.893  17.357  0.00  0.00    +0.000 A 
ATOM     20  C   UNL     1       7.111   7.125  17.760  0.00  0.00    +0.000 A 
BRANCH  15  23
ATOM     21  C   UNL     1       8.566   9.635  18.342  0.00  0.00    +0.000 C 
ATOM     22  O   UNL     1       7.807   9.809  17.395  0.00  0.00    +0.000 OA
ATOM     23  N   UNL     1       8.749   8.433  19.033  0.00  0.00    +0.000 N 
ATOM     24  H   UNL     1       9.273   8.466  19.892  0.00  0.00    +0.000 HD
BRANCH  21  26
ATOM     25  C   UNL     1      10.254  11.424  17.776  0.00  0.00    +0.000 C 
ATOM     26  C   UNL     1       9.410  10.788  18.878  0.00  0.00    +0.000 C 
ENDBRANCH  21  26
ENDBRANCH  15  23
ENDBRANCH   1  19
TORSDOF 4
ENDMDL
MODEL 9
REMARK VINA RESULT:      -7.6      0.898      1.055
REMARK  Name = 
REMARK  5 active torsions:
REMARK  status: ('A' for Active; 'I' for Inactive)
REMARK    1  A    between atoms: C_1  and  C_2
REMARK    2  A    between atoms: C_2  and  C_3
REMARK    3  A    between atoms: N_5  and  C_6
REMARK    4  A    between atoms: C_10  and  C_11
REMARK    5  A    between atoms: C_11  and  C_13
REMARK                            x       y       z     vdW  Elec       q    Type
REMARK                         _______ _______ _______ _____ _____    ______ ____
ROOT
ATOM      1  C   UNL     1       6.260   5.395  15.919  0.00  0.00    +0.000 C 
ATOM      2  O   UNL     1       6.480   5.787  14.766  0.00  0.00    +0.000 OA
ENDROOT
BRANCH   1   3
ATOM      3  C   UNL     1       5.164   4.373  16.140  0.00  0.00    +0.000 C 
ATOM      4  C   UNL     1       4.156   4.688  16.980  0.00  0.00    +0.000 C 
ATOM      5  C   UNL     1       3.943   6.140  17.309  0.00  0.00    +0.000 C 
ATOM      6  O   UNL     1       4.145   7.098  16.590  0.00  0.00    +0.000 OA
ATOM      7  N   UNL     1       3.339   6.119  18.539  0.00  0.00    +0.000 N 
ATOM      8  C   UNL     1       2.782   4.875  18.809  0.00  0.00    +0.000 A 
ATOM      9  C   UNL     1       1.883   4.632  19.814  0.00  0.00    +0.000 A 
ATOM     10  C   UNL     1       1.367   3.343  19.913  0.00  0.00    +0.000 A 
ATOM     11  C   UNL     1       1.833   2.344  19.034  0.00  0.00    +0.000 A 
ATOM     12  C   UNL     1       2.788   2.624  18.017  0.00  0.00    +0.000 A 
ATOM     13  C   UNL     1       3.240   3.924  17.866  0.00  0.00    +0.000 A 
ATOM     14  H   UNL     1       3.382   6.903  19.165  0.00  0.00    +0.000 HD
ENDBRANCH   1   3
BRANCH   1  19
ATOM     15  C   UNL     1       7.952   8.146  17.982  0.00  0.00    +0.000 A 
ATOM     16  C   UNL     1       8.399   7.396  19.075  0.00  0.00    +0.000 A 
ATOM     17  C   UNL     1       8.187   6.023  19.144  0.00  0.00    +0.000 A 
ATOM     18  C   UNL     1       7.523   5.341  18.122  0.00  0.00    +0.000 A 
ATOM     19  C   UNL     1       7.021   6.052  17.034  0.00  0.00    +0.000 A 
ATOM     20  C   UNL     1       7.244   7.464  16.986  0.00  0.00    +0.000 A 
BRANCH  15  23
ATOM     21  C   UNL     1       8.986  10.315  18.719  0.00  0.00    +0.000 C 
ATOM     22  O   UNL     1       9.683   9.879  19.629  0.00  0.00    +0.000 OA
ATOM     23  N   UNL     1       8.178   9.551  17.871  0.00  0.00    +0.000 N 
ATOM     24  H   UNL     1       7.789  10.010  17.063  0.00  0.00    +0.000 HD
BRANCH  21  26
ATOM     25  C   UNL     1       8.033  12.126  17.241  0.00  0.00    +0.000 C 
ATOM     26  C   UNL     1       8.953  11.811  18.419  0.00  0.00    +0.000 C 
ENDBRANCH  21  26
ENDBRANCH  15  23
ENDBRANCH   1  19
TORSDOF 4
ENDMDL
