MODEL 1
REMARK VINA RESULT:      -8.0      0.000      0.000
REMARK  Name = 
REMARK  9 active torsions:
REMARK  status: ('A' for Active; 'I' for Inactive)
REMARK    1  A    between atoms: C_1  and  C_2
REMARK    2  A    between atoms: C_5  and  C_6
REMARK    3  A    between atoms: C_6  and  N_7
REMARK    4  A    between atoms: N_10  and  C_11
REMARK    5  A    between atoms: C_11  and  C_12
REMARK    6  A    between atoms: C_13  and  O_14
REMARK    7  A    between atoms: C_16  and  O_17
REMARK    8  A    between atoms: C_22  and  C_23
REMARK    9  A    between atoms: C_26  and  O_27
REMARK                            x       y       z     vdW  Elec       q    Type
REMARK                         _______ _______ _______ _____ _____    ______ ____
ROOT
ATOM      1  C   UNL     1       3.988   3.939  17.192  0.00  0.00    +0.000 A 
ATOM      2  C   UNL     1       3.975   2.514  17.420  0.00  0.00    +0.000 A 
ATOM      3  C   UNL     1       3.125   1.888  18.309  0.00  0.00    +0.000 A 
ATOM      4  C   UNL     1       2.339   2.663  19.126  0.00  0.00    +0.000 A 
ATOM      5  C   UNL     1       2.419   4.072  19.064  0.00  0.00    +0.000 A 
ATOM      6  C   UNL     1       1.828   4.850  20.153  0.00  0.00    +0.000 A 
ATOM      7  O   UNL     1       1.043   4.413  20.997  0.00  0.00    +0.000 OA
ATOM      8  C   UNL     1       2.206   6.249  20.261  0.00  0.00    +0.000 A 
ATOM      9  C   UNL     1       2.423   6.893  19.110  0.00  0.00    +0.000 A 
ATOM     10  O   UNL     1       2.977   6.182  17.961  0.00  0.00    +0.000 OA
ATOM     11  C   UNL     1       3.164   4.759  18.064  0.00  0.00    +0.000 A 
ENDROOT
BRANCH   9  12
ATOM     12  C   UNL     1       1.896   8.356  19.097  0.00  0.00    +0.000 A 
ATOM     13  C   UNL     1       2.212   9.222  17.988  0.00  0.00    +0.000 A 
ATOM     14  C   UNL     1       1.849  10.585  17.875  0.00  0.00    +0.000 A 
ATOM     15  C   UNL     1       1.155  11.169  18.908  0.00  0.00    +0.000 A 
ATOM     16  C   UNL     1       0.772  10.387  19.986  0.00  0.00    +0.000 A 
ATOM     17  C   UNL     1       1.143   9.000  20.089  0.00  0.00    +0.000 A 
BRANCH  15  18
ATOM     18  O   UNL     1       0.857  12.500  18.887  0.00  0.00    +0.000 OA
ATOM     19  H   UNL     1      -0.118  12.615  18.909  0.00  0.00    +0.000 HD
ENDBRANCH  15  18
ENDBRANCH   9  12
BRANCH   2  20
ATOM     20  O   UNL     1       4.772   1.627  16.733  0.00  0.00    +0.000 OA
ATOM     21  H   UNL     1       5.410   2.141  16.194  0.00  0.00    +0.000 HD
ENDBRANCH   2  20
BRANCH   4  22
ATOM     22  O   UNL     1       1.509   2.022  20.002  0.00  0.00    +0.000 OA
ATOM     23  H   UNL     1       0.751   2.585  20.224  0.00  0.00    +0.000 HD
ENDBRANCH   4  22
BRANCH   1  24
ATOM     24  C   UNL     1       4.948   4.396  16.070  0.00  0.00    +0.000 C 
BRANCH  24  28
ATOM     25  N   UNL     1       6.807   7.154  17.883  0.00  0.00    +0.000 NA
ATOM     26  C   UNL     1       6.486   6.887  16.456  0.00  0.00    +0.000 C 
ATOM     27  C   UNL     1       7.121   5.589  15.943  0.00  0.00    +0.000 C 
ATOM     28  N   UNL     1       6.404   4.430  16.498  0.00  0.00    +0.000 NA
ATOM     29  C   UNL     1       6.663   4.483  17.961  0.00  0.00    +0.000 C 
ATOM     30  C   UNL     1       6.706   5.908  18.672  0.00  0.00    +0.000 C 
BRANCH  25  31
ATOM     31  C   UNL     1       7.991   8.023  17.815  0.00  0.00    +0.000 C 
BRANCH  31  36
ATOM     32  C   UNL     1      10.602  13.045  18.063  0.00  0.00    +0.000 C 
ATOM     33  C   UNL     1       9.699  11.868  18.281  0.00  0.00    +0.000 A 
ATOM     34  C   UNL     1      10.018  10.848  19.190  0.00  0.00    +0.000 A 
ATOM     35  C   UNL     1       9.299   9.649  19.234  0.00  0.00    +0.000 A 
ATOM     36  C   UNL     1       8.245   9.426  18.347  0.00  0.00    +0.000 A 
ATOM     37  C   UNL     1       7.833  10.512  17.533  0.00  0.00    +0.000 A 
ATOM     38  C   UNL     1       8.556  11.711  17.486  0.00  0.00    +0.000 A 
ENDBRANCH  31  36
ENDBRANCH  25  31
ENDBRANCH  24  28
ENDBRANCH   1  24
TORSDOF 8
ENDMDL
MODEL 2
REMARK VINA RESULT:      -7.9      1.184      1.414
REMARK  Name = 
REMARK  9 active torsions:
REMARK  status: ('A' for Active; 'I' for Inactive)
REMARK    1  A    between atoms: C_1  and  C_2
REMARK    2  A    between atoms: C_5  and  C_6
REMARK    3  A    between atoms: C_6  and  N_7
REMARK    4  A    between atoms: N_10  and  C_11
REMARK    5  A    between atoms: C_11  and  C_12
REMARK    6  A    between atoms: C_13  and  O_14
REMARK    7  A    between atoms: C_16  and  O_17
REMARK    8  A    between atoms: C_22  and  C_23
REMARK    9  A    between atoms: C_26  and  O_27
REMARK                            x       y       z     vdW  Elec       q    Type
REMARK                         _______ _______ _______ _____ _____    ______ ____
ROOT
ATOM      1  C   UNL     1       4.357   4.895  17.123  0.00  0.00    +0.000 A 
ATOM      2  C   UNL     1       4.548   3.490  16.856  0.00  0.00    +0.000 A 
ATOM      3  C   UNL     1       3.766   2.492  17.404  0.00  0.00    +0.000 A 
ATOM      4  C   UNL     1       2.841   2.831  18.361  0.00  0.00    +0.000 A 
ATOM      5  C   UNL     1       2.713   4.173  18.784  0.00  0.00    +0.000 A 
ATOM      6  C   UNL     1       1.970   4.445  20.015  0.00  0.00    +0.000 A 
ATOM      7  O   UNL     1       1.227   3.648  20.590  0.00  0.00    +0.000 OA
ATOM      8  C   UNL     1       2.130   5.757  20.619  0.00  0.00    +0.000 A 
ATOM      9  C   UNL     1       2.294   6.781  19.777  0.00  0.00    +0.000 A 
ATOM     10  O   UNL     1       2.993   6.587  18.509  0.00  0.00    +0.000 OA
ATOM     11  C   UNL     1       3.386   5.251  18.143  0.00  0.00    +0.000 A 
ENDROOT
BRANCH   9  12
ATOM     12  C   UNL     1       1.556   8.079  20.209  0.00  0.00    +0.000 A 
ATOM     13  C   UNL     1       1.333   9.132  19.249  0.00  0.00    +0.000 A 
ATOM     14  C   UNL     1       0.730  10.382  19.520  0.00  0.00    +0.000 A 
ATOM     15  C   UNL     1       0.334  10.658  20.807  0.00  0.00    +0.000 A 
ATOM     16  C   UNL     1       0.471   9.676  21.775  0.00  0.00    +0.000 A 
ATOM     17  C   UNL     1       1.081   8.404  21.488  0.00  0.00    +0.000 A 
BRANCH  15  18
ATOM     18  O   UNL     1      -0.172  11.880  21.138  0.00  0.00    +0.000 OA
ATOM     19  H   UNL     1       0.567  12.512  21.275  0.00  0.00    +0.000 HD
ENDBRANCH  15  18
ENDBRANCH   9  12
BRANCH   2  20
ATOM     20  O   UNL     1       5.495   3.003  15.984  0.00  0.00    +0.000 OA
ATOM     21  H   UNL     1       5.082   2.290  15.450  0.00  0.00    +0.000 HD
ENDBRANCH   2  20
BRANCH   4  22
ATOM     22  O   UNL     1       2.083   1.827  18.894  0.00  0.00    +0.000 OA
ATOM     23  H   UNL     1       2.331   0.973  18.505  0.00  0.00    +0.000 HD
ENDBRANCH   4  22
BRANCH   1  24
ATOM     24  C   UNL     1       5.282   5.829  16.308  0.00  0.00    +0.000 C 
BRANCH  24  28
ATOM     25  N   UNL     1       7.547   7.760  18.652  0.00  0.00    +0.000 NA
ATOM     26  C   UNL     1       7.106   7.955  17.245  0.00  0.00    +0.000 C 
ATOM     27  C   UNL     1       7.559   6.815  16.325  0.00  0.00    +0.000 C 
ATOM     28  N   UNL     1       6.758   5.610  16.590  0.00  0.00    +0.000 NA
ATOM     29  C   UNL     1       7.116   5.208  17.975  0.00  0.00    +0.000 C 
ATOM     30  C   UNL     1       7.361   6.351  19.057  0.00  0.00    +0.000 C 
BRANCH  25  31
ATOM     31  C   UNL     1       8.812   8.507  18.725  0.00  0.00    +0.000 C 
BRANCH  31  36
ATOM     32  C   UNL     1      12.092  13.053  19.540  0.00  0.00    +0.000 C 
ATOM     33  C   UNL     1      10.944  12.113  19.325  0.00  0.00    +0.000 A 
ATOM     34  C   UNL     1      10.263  11.518  20.398  0.00  0.00    +0.000 A 
ATOM     35  C   UNL     1       9.347  10.479  20.204  0.00  0.00    +0.000 A 
ATOM     36  C   UNL     1       9.100   9.987  18.921  0.00  0.00    +0.000 A 
ATOM     37  C   UNL     1       9.676  10.686  17.830  0.00  0.00    +0.000 A 
ATOM     38  C   UNL     1      10.597  11.724  18.025  0.00  0.00    +0.000 A 
ENDBRANCH  31  36
ENDBRANCH  25  31
ENDBRANCH  24  28
ENDBRANCH   1  24
TORSDOF 8
ENDMDL
MODEL 3
REMARK VINA RESULT:      -7.6      3.820      8.341
REMARK  Name = 
REMARK  9 active torsions:
REMARK  status: ('A' for Active; 'I' for Inactive)
REMARK    1  A    between atoms: C_1  and  C_2
REMARK    2  A    between atoms: C_5  and  C_6
REMARK    3  A    between atoms: C_6  and  N_7
REMARK    4  A    between atoms: N_10  and  C_11
REMARK    5  A    between atoms: C_11  and  C_12
REMARK    6  A    between atoms: C_13  and  O_14
REMARK    7  A    between atoms: C_16  and  O_17
REMARK    8  A    between atoms: C_22  and  C_23
REMARK    9  A    between atoms: C_26  and  O_27
REMARK                            x       y       z     vdW  Elec       q    Type
REMARK                         _______ _______ _______ _____ _____    ______ ____
ROOT
ATOM      1  C   UNL     1       0.227  14.047  20.152  0.00  0.00    +0.000 A 
ATOM      2  C   UNL     1      -0.480  14.909  21.068  0.00  0.00    +0.000 A 
ATOM      3  C   UNL     1      -0.970  14.492  22.289  0.00  0.00    +0.000 A 
ATOM      4  C   UNL     1      -0.910  13.156  22.602  0.00  0.00    +0.000 A 
ATOM      5  C   UNL     1      -0.371  12.232  21.678  0.00  0.00    +0.000 A 
ATOM      6  C   UNL     1      -0.619  10.807  21.897  0.00  0.00    +0.000 A 
ATOM      7  O   UNL     1      -1.037  10.309  22.943  0.00  0.00    +0.000 OA
ATOM      8  C   UNL     1      -0.368   9.904  20.787  0.00  0.00    +0.000 A 
ATOM      9  C   UNL     1       0.655  10.221  19.986  0.00  0.00    +0.000 A 
ATOM     10  O   UNL     1       0.993  11.620  19.743  0.00  0.00    +0.000 OA
ATOM     11  C   UNL     1       0.282  12.633  20.479  0.00  0.00    +0.000 A 
ENDROOT
BRANCH   9  12
ATOM     12  C   UNL     1       1.485   8.997  19.508  0.00  0.00    +0.000 A 
ATOM     13  C   UNL     1       2.035   8.979  18.174  0.00  0.00    +0.000 A 
ATOM     14  C   UNL     1       2.755   7.909  17.593  0.00  0.00    +0.000 A 
ATOM     15  C   UNL     1       2.944   6.765  18.330  0.00  0.00    +0.000 A 
ATOM     16  C   UNL     1       2.488   6.726  19.637  0.00  0.00    +0.000 A 
ATOM     17  C   UNL     1       1.759   7.821  20.222  0.00  0.00    +0.000 A 
BRANCH  15  18
ATOM     18  O   UNL     1       3.557   5.674  17.785  0.00  0.00    +0.000 OA
ATOM     19  H   UNL     1       4.514   5.695  18.004  0.00  0.00    +0.000 HD
ENDBRANCH  15  18
ENDBRANCH   9  12
BRANCH   2  20
ATOM     20  O   UNL     1      -0.689  16.251  20.843  0.00  0.00    +0.000 OA
ATOM     21  H   UNL     1      -1.654  16.397  20.737  0.00  0.00    +0.000 HD
ENDBRANCH   2  20
BRANCH   4  22
ATOM     22  O   UNL     1      -1.406  12.765  23.813  0.00  0.00    +0.000 OA
ATOM     23  H   UNL     1      -1.013  11.919  24.083  0.00  0.00    +0.000 HD
ENDBRANCH   4  22
BRANCH   1  24
ATOM     24  C   UNL     1       0.778  14.766  18.899  0.00  0.00    +0.000 C 
BRANCH  24  28
ATOM     25  N   UNL     1       4.400  14.905  17.796  0.00  0.00    +0.000 NA
ATOM     26  C   UNL     1       3.685  14.240  18.917  0.00  0.00    +0.000 C 
ATOM     27  C   UNL     1       3.015  15.243  19.864  0.00  0.00    +0.000 C 
ATOM     28  N   UNL     1       1.824  15.819  19.219  0.00  0.00    +0.000 NA
ATOM     29  C   UNL     1       2.350  16.603  18.071  0.00  0.00    +0.000 C 
ATOM     30  C   UNL     1       3.588  16.016  17.257  0.00  0.00    +0.000 C 
BRANCH  25  31
ATOM     31  C   UNL     1       5.782  15.022  18.287  0.00  0.00    +0.000 C 
BRANCH  31  36
ATOM     32  C   UNL     1      10.996  12.808  18.228  0.00  0.00    +0.000 C 
ATOM     33  C   UNL     1       9.694  13.460  17.872  0.00  0.00    +0.000 A 
ATOM     34  C   UNL     1       9.504  14.845  17.989  0.00  0.00    +0.000 A 
ATOM     35  C   UNL     1       8.237  15.428  17.874  0.00  0.00    +0.000 A 
ATOM     36  C   UNL     1       7.111  14.631  17.660  0.00  0.00    +0.000 A 
ATOM     37  C   UNL     1       7.325  13.254  17.397  0.00  0.00    +0.000 A 
ATOM     38  C   UNL     1       8.593  12.670  17.516  0.00  0.00    +0.000 A 
ENDBRANCH  31  36
ENDBRANCH  25  31
ENDBRANCH  24  28
ENDBRANCH   1  24
TORSDOF 8
ENDMDL
MODEL 4
REMARK VINA RESULT:      -7.5      3.633      7.984
REMARK  Name = 
REMARK  9 active torsions:
REMARK  status: ('A' for Active; 'I' for Inactive)
REMARK    1  A    between atoms: C_1  and  C_2
REMARK    2  A    between atoms: C_5  and  C_6
REMARK    3  A    between atoms: C_6  and  N_7
REMARK    4  A    between atoms: N_10  and  C_11
REMARK    5  A    between atoms: C_11  and  C_12
REMARK    6  A    between atoms: C_13  and  O_14
REMARK    7  A    between atoms: C_16  and  O_17
REMARK    8  A    between atoms: C_22  and  C_23
REMARK    9  A    between atoms: C_26  and  O_27
REMARK                            x       y       z     vdW  Elec       q    Type
REMARK                         _______ _______ _______ _____ _____    ______ ____
ROOT
ATOM      1  C   UNL     1       0.409  13.296  20.055  0.00  0.00    +0.000 A 
ATOM      2  C   UNL     1      -0.356  14.065  21.007  0.00  0.00    +0.000 A 
ATOM      3  C   UNL     1      -0.848  13.548  22.190  0.00  0.00    +0.000 A 
ATOM      4  C   UNL     1      -0.728  12.200  22.420  0.00  0.00    +0.000 A 
ATOM      5  C   UNL     1      -0.128  11.363  21.453  0.00  0.00    +0.000 A 
ATOM      6  C   UNL     1      -0.309   9.916  21.578  0.00  0.00    +0.000 A 
ATOM      7  O   UNL     1      -0.722   9.334  22.583  0.00  0.00    +0.000 OA
ATOM      8  C   UNL     1       0.006   9.098  20.420  0.00  0.00    +0.000 A 
ATOM      9  C   UNL     1       1.027   9.513  19.662  0.00  0.00    +0.000 A 
ATOM     10  O   UNL     1       1.301  10.939  19.513  0.00  0.00    +0.000 OA
ATOM     11  C   UNL     1       0.527  11.868  20.295  0.00  0.00    +0.000 A 
ENDROOT
BRANCH   9  12
ATOM     12  C   UNL     1       1.925   8.362  19.128  0.00  0.00    +0.000 A 
ATOM     13  C   UNL     1       2.117   7.173  19.922  0.00  0.00    +0.000 A 
ATOM     14  C   UNL     1       2.951   6.082  19.586  0.00  0.00    +0.000 A 
ATOM     15  C   UNL     1       3.672   6.139  18.417  0.00  0.00    +0.000 A 
ATOM     16  C   UNL     1       3.502   7.227  17.577  0.00  0.00    +0.000 A 
ATOM     17  C   UNL     1       2.647   8.332  17.926  0.00  0.00    +0.000 A 
BRANCH  15  18
ATOM     18  O   UNL     1       4.555   5.152  18.090  0.00  0.00    +0.000 OA
ATOM     19  H   UNL     1       4.118   4.512  17.487  0.00  0.00    +0.000 HD
ENDBRANCH  15  18
ENDBRANCH   9  12
BRANCH   2  20
ATOM     20  O   UNL     1      -0.627  15.406  20.861  0.00  0.00    +0.000 OA
ATOM     21  H   UNL     1      -1.394  15.500  20.257  0.00  0.00    +0.000 HD
ENDBRANCH   2  20
BRANCH   4  22
ATOM     22  O   UNL     1      -1.227  11.710  23.594  0.00  0.00    +0.000 OA
ATOM     23  H   UNL     1      -1.115  10.747  23.634  0.00  0.00    +0.000 HD
ENDBRANCH   4  22
BRANCH   1  24
ATOM     24  C   UNL     1       0.948  14.118  18.861  0.00  0.00    +0.000 C 
BRANCH  24  28
ATOM     25  N   UNL     1       4.521  14.958  17.923  0.00  0.00    +0.000 NA
ATOM     26  C   UNL     1       3.899  14.113  18.977  0.00  0.00    +0.000 C 
ATOM     27  C   UNL     1       3.030  14.924  19.945  0.00  0.00    +0.000 C 
ATOM     28  N   UNL     1       1.778  15.318  19.281  0.00  0.00    +0.000 NA
ATOM     29  C   UNL     1       2.193  16.248  18.198  0.00  0.00    +0.000 C 
ATOM     30  C   UNL     1       3.542  15.938  17.409  0.00  0.00    +0.000 C 
BRANCH  25  31
ATOM     31  C   UNL     1       5.842  15.288  18.479  0.00  0.00    +0.000 C 
BRANCH  31  36
ATOM     32  C   UNL     1       9.797  11.249  18.855  0.00  0.00    +0.000 C 
ATOM     33  C   UNL     1       9.028  12.503  18.563  0.00  0.00    +0.000 A 
ATOM     34  C   UNL     1       9.033  13.596  19.443  0.00  0.00    +0.000 A 
ATOM     35  C   UNL     1       8.150  14.669  19.289  0.00  0.00    +0.000 A 
ATOM     36  C   UNL     1       7.214  14.670  18.254  0.00  0.00    +0.000 A 
ATOM     37  C   UNL     1       7.310  13.639  17.285  0.00  0.00    +0.000 A 
ATOM     38  C   UNL     1       8.191  12.561  17.442  0.00  0.00    +0.000 A 
ENDBRANCH  31  36
ENDBRANCH  25  31
ENDBRANCH  24  28
ENDBRANCH   1  24
TORSDOF 8
ENDMDL
MODEL 5
REMARK VINA RESULT:      -7.4      0.787      1.144
REMARK  Name = 
REMARK  9 active torsions:
REMARK  status: ('A' for Active; 'I' for Inactive)
REMARK    1  A    between atoms: C_1  and  C_2
REMARK    2  A    between atoms: C_5  and  C_6
REMARK    3  A    between atoms: C_6  and  N_7
REMARK    4  A    between atoms: N_10  and  C_11
REMARK    5  A    between atoms: C_11  and  C_12
REMARK    6  A    between atoms: C_13  and  O_14
REMARK    7  A    between atoms: C_16  and  O_17
REMARK    8  A    between atoms: C_22  and  C_23
REMARK    9  A    between atoms: C_26  and  O_27
REMARK                            x       y       z     vdW  Elec       q    Type
REMARK                         _______ _______ _______ _____ _____    ______ ____
ROOT
ATOM      1  C   UNL     1       4.202   4.715  17.035  0.00  0.00    +0.000 A 
ATOM      2  C   UNL     1       4.312   3.276  17.047  0.00  0.00    +0.000 A 
ATOM      3  C   UNL     1       3.480   2.450  17.777  0.00  0.00    +0.000 A 
ATOM      4  C   UNL     1       2.586   3.020  18.650  0.00  0.00    +0.000 A 
ATOM      5  C   UNL     1       2.537   4.424  18.803  0.00  0.00    +0.000 A 
ATOM      6  C   UNL     1       1.822   4.971  19.957  0.00  0.00    +0.000 A 
ATOM      7  O   UNL     1       1.041   4.344  20.674  0.00  0.00    +0.000 OA
ATOM      8  C   UNL     1       2.061   6.364  20.295  0.00  0.00    +0.000 A 
ATOM      9  C   UNL     1       2.274   7.194  19.269  0.00  0.00    +0.000 A 
ATOM     10  O   UNL     1       2.949   6.719  18.065  0.00  0.00    +0.000 OA
ATOM     11  C   UNL     1       3.262   5.317  17.966  0.00  0.00    +0.000 A 
ENDROOT
BRANCH   9  12
ATOM     12  C   UNL     1       1.613   8.591  19.441  0.00  0.00    +0.000 A 
ATOM     13  C   UNL     1       1.151   9.012  20.740  0.00  0.00    +0.000 A 
ATOM     14  C   UNL     1       0.482  10.225  21.025  0.00  0.00    +0.000 A 
ATOM     15  C   UNL     1       0.214  11.088  19.991  0.00  0.00    +0.000 A 
ATOM     16  C   UNL     1       0.671  10.776  18.721  0.00  0.00    +0.000 A 
ATOM     17  C   UNL     1       1.355   9.541  18.441  0.00  0.00    +0.000 A 
BRANCH  15  18
ATOM     18  O   UNL     1      -0.504  12.230  20.198  0.00  0.00    +0.000 OA
ATOM     19  H   UNL     1      -0.013  12.815  20.815  0.00  0.00    +0.000 HD
ENDBRANCH  15  18
ENDBRANCH   9  12
BRANCH   2  20
ATOM     20  O   UNL     1       5.221   2.576  16.288  0.00  0.00    +0.000 OA
ATOM     21  H   UNL     1       4.938   2.623  15.350  0.00  0.00    +0.000 HD
ENDBRANCH   2  20
BRANCH   4  22
ATOM     22  O   UNL     1       1.778   2.184  19.366  0.00  0.00    +0.000 OA
ATOM     23  H   UNL     1       1.660   1.343  18.896  0.00  0.00    +0.000 HD
ENDBRANCH   4  22
BRANCH   1  24
ATOM     24  C   UNL     1       5.170   5.419  16.056  0.00  0.00    +0.000 C 
BRANCH  24  28
ATOM     25  N   UNL     1       7.264   7.556  18.380  0.00  0.00    +0.000 NA
ATOM     26  C   UNL     1       6.898   7.645  16.941  0.00  0.00    +0.000 C 
ATOM     27  C   UNL     1       7.423   6.457  16.127  0.00  0.00    +0.000 C 
ATOM     28  N   UNL     1       6.632   5.254  16.431  0.00  0.00    +0.000 NA
ATOM     29  C   UNL     1       6.921   4.955  17.858  0.00  0.00    +0.000 C 
ATOM     30  C   UNL     1       7.083   6.174  18.870  0.00  0.00    +0.000 C 
BRANCH  25  31
ATOM     31  C   UNL     1       8.509   8.335  18.469  0.00  0.00    +0.000 C 
BRANCH  31  36
ATOM     32  C   UNL     1      10.754  13.454  17.552  0.00  0.00    +0.000 C 
ATOM     33  C   UNL     1       9.996  12.279  18.093  0.00  0.00    +0.000 A 
ATOM     34  C   UNL     1      10.556  11.410  19.040  0.00  0.00    +0.000 A 
ATOM     35  C   UNL     1       9.946  10.197  19.379  0.00  0.00    +0.000 A 
ATOM     36  C   UNL     1       8.759   9.807  18.757  0.00  0.00    +0.000 A 
ATOM     37  C   UNL     1       8.122  10.751  17.912  0.00  0.00    +0.000 A 
ATOM     38  C   UNL     1       8.735  11.963  17.570  0.00  0.00    +0.000 A 
ENDBRANCH  31  36
ENDBRANCH  25  31
ENDBRANCH  24  28
ENDBRANCH   1  24
TORSDOF 8
ENDMDL
MODEL 6
REMARK VINA RESULT:      -7.3      6.170     10.966
REMARK  Name = 
REMARK  9 active torsions:
REMARK  status: ('A' for Active; 'I' for Inactive)
REMARK    1  A    between atoms: C_1  and  C_2
REMARK    2  A    between atoms: C_5  and  C_6
REMARK    3  A    between atoms: C_6  and  N_7
REMARK    4  A    between atoms: N_10  and  C_11
REMARK    5  A    between atoms: C_11  and  C_12
REMARK    6  A    between atoms: C_13  and  O_14
REMARK    7  A    between atoms: C_16  and  O_17
REMARK    8  A    between atoms: C_22  and  C_23
REMARK    9  A    between atoms: C_26  and  O_27
REMARK                            x       y       z     vdW  Elec       q    Type
REMARK                         _______ _______ _______ _____ _____    ______ ____
ROOT
ATOM      1  C   UNL     1      -4.204  14.160  22.590  0.00  0.00    +0.000 A 
ATOM      2  C   UNL     1      -5.109  14.354  23.697  0.00  0.00    +0.000 A 
ATOM      3  C   UNL     1      -6.265  13.622  23.880  0.00  0.00    +0.000 A 
ATOM      4  C   UNL     1      -6.659  12.754  22.890  0.00  0.00    +0.000 A 
ATOM      5  C   UNL     1      -5.898  12.633  21.706  0.00  0.00    +0.000 A 
ATOM      6  C   UNL     1      -6.507  11.964  20.556  0.00  0.00    +0.000 A 
ATOM      7  O   UNL     1      -7.524  11.270  20.591  0.00  0.00    +0.000 OA
ATOM      8  C   UNL     1      -5.871  12.143  19.261  0.00  0.00    +0.000 A 
ATOM      9  C   UNL     1      -4.538  12.239  19.265  0.00  0.00    +0.000 A 
ATOM     10  O   UNL     1      -3.848  12.860  20.392  0.00  0.00    +0.000 OA
ATOM     11  C   UNL     1      -4.626  13.249  21.539  0.00  0.00    +0.000 A 
ENDROOT
BRANCH   9  12
ATOM     12  C   UNL     1      -3.849  11.510  18.077  0.00  0.00    +0.000 A 
ATOM     13  C   UNL     1      -4.456  11.538  16.769  0.00  0.00    +0.000 A 
ATOM     14  C   UNL     1      -3.970  10.872  15.620  0.00  0.00    +0.000 A 
ATOM     15  C   UNL     1      -2.837  10.103  15.733  0.00  0.00    +0.000 A 
ATOM     16  C   UNL     1      -2.170  10.067  16.947  0.00  0.00    +0.000 A 
ATOM     17  C   UNL     1      -2.670  10.752  18.110  0.00  0.00    +0.000 A 
BRANCH  15  18
ATOM     18  O   UNL     1      -2.377   9.372  14.677  0.00  0.00    +0.000 OA
ATOM     19  H   UNL     1      -2.836   9.660  13.858  0.00  0.00    +0.000 HD
ENDBRANCH  15  18
ENDBRANCH   9  12
BRANCH   2  20
ATOM     20  O   UNL     1      -4.883  15.251  24.716  0.00  0.00    +0.000 OA
ATOM     21  H   UNL     1      -5.617  15.173  25.362  0.00  0.00    +0.000 HD
ENDBRANCH   2  20
BRANCH   4  22
ATOM     22  O   UNL     1      -7.809  12.045  23.090  0.00  0.00    +0.000 OA
ATOM     23  H   UNL     1      -7.976  11.453  22.339  0.00  0.00    +0.000 HD
ENDBRANCH   4  22
BRANCH   1  24
ATOM     24  C   UNL     1      -2.920  15.018  22.659  0.00  0.00    +0.000 C 
BRANCH  24  28
ATOM     25  N   UNL     1       0.208  13.799  20.903  0.00  0.00    +0.000 NA
ATOM     26  C   UNL     1      -1.156  13.236  21.099  0.00  0.00    +0.000 C 
ATOM     27  C   UNL     1      -1.485  12.995  22.576  0.00  0.00    +0.000 C 
ATOM     28  N   UNL     1      -1.732  14.280  23.249  0.00  0.00    +0.000 NA
ATOM     29  C   UNL     1      -0.426  14.989  23.214  0.00  0.00    +0.000 C 
ATOM     30  C   UNL     1       0.480  14.844  21.912  0.00  0.00    +0.000 C 
BRANCH  25  31
ATOM     31  C   UNL     1       1.041  12.611  20.662  0.00  0.00    +0.000 C 
BRANCH  31  36
ATOM     32  C   UNL     1       2.455   7.675  18.268  0.00  0.00    +0.000 C 
ATOM     33  C   UNL     1       1.759   8.933  18.696  0.00  0.00    +0.000 A 
ATOM     34  C   UNL     1       1.917  10.140  17.998  0.00  0.00    +0.000 A 
ATOM     35  C   UNL     1       1.455  11.355  18.514  0.00  0.00    +0.000 A 
ATOM     36  C   UNL     1       0.836  11.400  19.764  0.00  0.00    +0.000 A 
ATOM     37  C   UNL     1       0.549  10.164  20.397  0.00  0.00    +0.000 A 
ATOM     38  C   UNL     1       1.015   8.948  19.882  0.00  0.00    +0.000 A 
ENDBRANCH  31  36
ENDBRANCH  25  31
ENDBRANCH  24  28
ENDBRANCH   1  24
TORSDOF 8
ENDMDL
MODEL 7
REMARK VINA RESULT:      -7.3      5.622      9.862
REMARK  Name = 
REMARK  9 active torsions:
REMARK  status: ('A' for Active; 'I' for Inactive)
REMARK    1  A    between atoms: C_1  and  C_2
REMARK    2  A    between atoms: C_5  and  C_6
REMARK    3  A    between atoms: C_6  and  N_7
REMARK    4  A    between atoms: N_10  and  C_11
REMARK    5  A    between atoms: C_11  and  C_12
REMARK    6  A    between atoms: C_13  and  O_14
REMARK    7  A    between atoms: C_16  and  O_17
REMARK    8  A    between atoms: C_22  and  C_23
REMARK    9  A    between atoms: C_26  and  O_27
REMARK                            x       y       z     vdW  Elec       q    Type
REMARK                         _______ _______ _______ _____ _____    ______ ____
ROOT
ATOM      1  C   UNL     1      -3.111  11.890  18.435  0.00  0.00    +0.000 A 
ATOM      2  C   UNL     1      -4.065  11.407  17.465  0.00  0.00    +0.000 A 
ATOM      3  C   UNL     1      -5.432  11.546  17.601  0.00  0.00    +0.000 A 
ATOM      4  C   UNL     1      -5.931  12.045  18.779  0.00  0.00    +0.000 A 
ATOM      5  C   UNL     1      -5.055  12.389  19.833  0.00  0.00    +0.000 A 
ATOM      6  C   UNL     1      -5.622  12.600  21.166  0.00  0.00    +0.000 A 
ATOM      7  O   UNL     1      -6.818  12.754  21.415  0.00  0.00    +0.000 OA
ATOM      8  C   UNL     1      -4.702  12.612  22.291  0.00  0.00    +0.000 A 
ATOM      9  C   UNL     1      -3.493  13.134  22.062  0.00  0.00    +0.000 A 
ATOM     10  O   UNL     1      -2.871  13.002  20.748  0.00  0.00    +0.000 OA
ATOM     11  C   UNL     1      -3.640  12.408  19.685  0.00  0.00    +0.000 A 
ENDROOT
BRANCH   9  12
ATOM     12  C   UNL     1      -2.940  13.985  23.240  0.00  0.00    +0.000 A 
ATOM     13  C   UNL     1      -1.615  14.550  23.157  0.00  0.00    +0.000 A 
ATOM     14  C   UNL     1      -0.968  15.290  24.174  0.00  0.00    +0.000 A 
ATOM     15  C   UNL     1      -1.624  15.484  25.366  0.00  0.00    +0.000 A 
ATOM     16  C   UNL     1      -2.919  15.012  25.504  0.00  0.00    +0.000 A 
ATOM     17  C   UNL     1      -3.571  14.264  24.461  0.00  0.00    +0.000 A 
BRANCH  15  18
ATOM     18  O   UNL     1      -1.010  16.115  26.408  0.00  0.00    +0.000 OA
ATOM     19  H   UNL     1      -1.010  15.524  27.192  0.00  0.00    +0.000 HD
ENDBRANCH  15  18
ENDBRANCH   9  12
BRANCH   2  20
ATOM     20  O   UNL     1      -3.708  10.809  16.279  0.00  0.00    +0.000 OA
ATOM     21  H   UNL     1      -3.590   9.849  16.443  0.00  0.00    +0.000 HD
ENDBRANCH   2  20
BRANCH   4  22
ATOM     22  O   UNL     1      -7.286  12.167  18.893  0.00  0.00    +0.000 OA
ATOM     23  H   UNL     1      -7.709  12.073  18.025  0.00  0.00    +0.000 HD
ENDBRANCH   4  22
BRANCH   1  24
ATOM     24  C   UNL     1      -1.634  11.721  18.012  0.00  0.00    +0.000 C 
BRANCH  24  28
ATOM     25  N   UNL     1       1.257   9.366  18.684  0.00  0.00    +0.000 NA
ATOM     26  C   UNL     1      -0.204   9.316  18.959  0.00  0.00    +0.000 C 
ATOM     27  C   UNL     1      -0.663  10.435  19.901  0.00  0.00    +0.000 C 
ATOM     28  N   UNL     1      -0.668  11.720  19.183  0.00  0.00    +0.000 NA
ATOM     29  C   UNL     1       0.759  11.988  18.866  0.00  0.00    +0.000 C 
ATOM     30  C   UNL     1       1.687  10.761  18.455  0.00  0.00    +0.000 C 
BRANCH  25  31
ATOM     31  C   UNL     1       1.828   8.452  19.684  0.00  0.00    +0.000 C 
BRANCH  31  36
ATOM     32  C   UNL     1       1.148   2.945  18.541  0.00  0.00    +0.000 C 
ATOM     33  C   UNL     1       1.682   4.288  18.941  0.00  0.00    +0.000 A 
ATOM     34  C   UNL     1       1.571   4.767  20.255  0.00  0.00    +0.000 A 
ATOM     35  C   UNL     1       1.863   6.095  20.583  0.00  0.00    +0.000 A 
ATOM     36  C   UNL     1       2.257   6.995  19.592  0.00  0.00    +0.000 A 
ATOM     37  C   UNL     1       2.509   6.474  18.297  0.00  0.00    +0.000 A 
ATOM     38  C   UNL     1       2.213   5.145  17.969  0.00  0.00    +0.000 A 
ENDBRANCH  31  36
ENDBRANCH  25  31
ENDBRANCH  24  28
ENDBRANCH   1  24
TORSDOF 8
ENDMDL
MODEL 8
REMARK VINA RESULT:      -7.3      3.965      8.749
REMARK  Name = 
REMARK  9 active torsions:
REMARK  status: ('A' for Active; 'I' for Inactive)
REMARK    1  A    between atoms: C_1  and  C_2
REMARK    2  A    between atoms: C_5  and  C_6
REMARK    3  A    between atoms: C_6  and  N_7
REMARK    4  A    between atoms: N_10  and  C_11
REMARK    5  A    between atoms: C_11  and  C_12
REMARK    6  A    between atoms: C_13  and  O_14
REMARK    7  A    between atoms: C_16  and  O_17
REMARK    8  A    between atoms: C_22  and  C_23
REMARK    9  A    between atoms: C_26  and  O_27
REMARK                            x       y       z     vdW  Elec       q    Type
REMARK                         _______ _______ _______ _____ _____    ______ ____
ROOT
ATOM      1  C   UNL     1       1.763  15.152  18.968  0.00  0.00    +0.000 A 
ATOM      2  C   UNL     1       0.962  16.339  19.146  0.00  0.00    +0.000 A 
ATOM      3  C   UNL     1      -0.342  16.323  19.601  0.00  0.00    +0.000 A 
ATOM      4  C   UNL     1      -0.967  15.111  19.766  0.00  0.00    +0.000 A 
ATOM      5  C   UNL     1      -0.288  13.912  19.457  0.00  0.00    +0.000 A 
ATOM      6  C   UNL     1      -1.073  12.683  19.329  0.00  0.00    +0.000 A 
ATOM      7  O   UNL     1      -2.235  12.537  19.711  0.00  0.00    +0.000 OA
ATOM      8  C   UNL     1      -0.438  11.546  18.685  0.00  0.00    +0.000 A 
ATOM      9  C   UNL     1       0.874  11.402  18.897  0.00  0.00    +0.000 A 
ATOM     10  O   UNL     1       1.724  12.576  19.072  0.00  0.00    +0.000 OA
ATOM     11  C   UNL     1       1.097  13.871  19.133  0.00  0.00    +0.000 A 
ENDROOT
BRANCH   9  12
ATOM     12  C   UNL     1       1.325   9.926  19.084  0.00  0.00    +0.000 A 
ATOM     13  C   UNL     1       1.093   9.259  20.341  0.00  0.00    +0.000 A 
ATOM     14  C   UNL     1       1.502   7.945  20.666  0.00  0.00    +0.000 A 
ATOM     15  C   UNL     1       2.207   7.224  19.732  0.00  0.00    +0.000 A 
ATOM     16  C   UNL     1       2.427   7.780  18.482  0.00  0.00    +0.000 A 
ATOM     17  C   UNL     1       2.002   9.117  18.159  0.00  0.00    +0.000 A 
BRANCH  15  18
ATOM     18  O   UNL     1       2.699   5.986  20.027  0.00  0.00    +0.000 OA
ATOM     19  H   UNL     1       3.668   6.049  20.176  0.00  0.00    +0.000 HD
ENDBRANCH  15  18
ENDBRANCH   9  12
BRANCH   2  20
ATOM     20  O   UNL     1       1.434  17.614  18.934  0.00  0.00    +0.000 OA
ATOM     21  H   UNL     1       2.411  17.596  19.014  0.00  0.00    +0.000 HD
ENDBRANCH   2  20
BRANCH   4  22
ATOM     22  O   UNL     1      -2.259  15.120  20.212  0.00  0.00    +0.000 OA
ATOM     23  H   UNL     1      -2.698  14.283  19.991  0.00  0.00    +0.000 HD
ENDBRANCH   4  22
BRANCH   1  24
ATOM     24  C   UNL     1       3.227  15.428  18.557  0.00  0.00    +0.000 C 
BRANCH  24  28
ATOM     25  N   UNL     1       6.999  15.759  18.691  0.00  0.00    +0.000 NA
ATOM     26  C   UNL     1       6.048  14.643  18.941  0.00  0.00    +0.000 C 
ATOM     27  C   UNL     1       5.098  14.930  20.110  0.00  0.00    +0.000 C 
ATOM     28  N   UNL     1       4.092  15.923  19.702  0.00  0.00    +0.000 NA
ATOM     29  C   UNL     1       4.861  17.172  19.460  0.00  0.00    +0.000 C 
ATOM     30  C   UNL     1       6.300  17.058  18.786  0.00  0.00    +0.000 C 
BRANCH  25  31
ATOM     31  C   UNL     1       8.192  15.377  19.462  0.00  0.00    +0.000 C 
BRANCH  31  36
ATOM     32  C   UNL     1       9.246   9.829  19.013  0.00  0.00    +0.000 C 
ATOM     33  C   UNL     1       9.350  11.317  19.159  0.00  0.00    +0.000 A 
ATOM     34  C   UNL     1       9.316  11.942  20.415  0.00  0.00    +0.000 A 
ATOM     35  C   UNL     1       9.189  13.329  20.546  0.00  0.00    +0.000 A 
ATOM     36  C   UNL     1       9.069  14.135  19.413  0.00  0.00    +0.000 A 
ATOM     37  C   UNL     1       9.251  13.519  18.149  0.00  0.00    +0.000 A 
ATOM     38  C   UNL     1       9.374  12.129  18.018  0.00  0.00    +0.000 A 
ENDBRANCH  31  36
ENDBRANCH  25  31
ENDBRANCH  24  28
ENDBRANCH   1  24
TORSDOF 8
ENDMDL
MODEL 9
REMARK VINA RESULT:      -7.2      5.927     10.102
REMARK  Name = 
REMARK  9 active torsions:
REMARK  status: ('A' for Active; 'I' for Inactive)
REMARK    1  A    between atoms: C_1  and  C_2
REMARK    2  A    between atoms: C_5  and  C_6
REMARK    3  A    between atoms: C_6  and  N_7
REMARK    4  A    between atoms: N_10  and  C_11
REMARK    5  A    between atoms: C_11  and  C_12
REMARK    6  A    between atoms: C_13  and  O_14
REMARK    7  A    between atoms: C_16  and  O_17
REMARK    8  A    between atoms: C_22  and  C_23
REMARK    9  A    between atoms: C_26  and  O_27
REMARK                            x       y       z     vdW  Elec       q    Type
REMARK                         _______ _______ _______ _____ _____    ______ ____
ROOT
ATOM      1  C   UNL     1      -3.221  11.882  18.543  0.00  0.00    +0.000 A 
ATOM      2  C   UNL     1      -3.808  10.882  17.684  0.00  0.00    +0.000 A 
ATOM      3  C   UNL     1      -5.145  10.540  17.708  0.00  0.00    +0.000 A 
ATOM      4  C   UNL     1      -5.944  11.072  18.691  0.00  0.00    +0.000 A 
ATOM      5  C   UNL     1      -5.394  11.937  19.664  0.00  0.00    +0.000 A 
ATOM      6  C   UNL     1      -6.180  12.217  20.866  0.00  0.00    +0.000 A 
ATOM      7  O   UNL     1      -7.381  11.977  21.005  0.00  0.00    +0.000 OA
ATOM      8  C   UNL     1      -5.488  12.814  21.996  0.00  0.00    +0.000 A 
ATOM      9  C   UNL     1      -4.509  13.675  21.702  0.00  0.00    +0.000 A 
ATOM     10  O   UNL     1      -3.700  13.489  20.500  0.00  0.00    +0.000 OA
ATOM     11  C   UNL     1      -4.064  12.436  19.589  0.00  0.00    +0.000 A 
ENDROOT
BRANCH   9  12
ATOM     12  C   UNL     1      -4.448  14.908  22.647  0.00  0.00    +0.000 A 
ATOM     13  C   UNL     1      -3.813  14.793  23.937  0.00  0.00    +0.000 A 
ATOM     14  C   UNL     1      -3.739  15.812  24.915  0.00  0.00    +0.000 A 
ATOM     15  C   UNL     1      -4.338  17.022  24.652  0.00  0.00    +0.000 A 
ATOM     16  C   UNL     1      -4.926  17.224  23.414  0.00  0.00    +0.000 A 
ATOM     17  C   UNL     1      -4.991  16.182  22.424  0.00  0.00    +0.000 A 
BRANCH  15  18
ATOM     18  O   UNL     1      -4.370  18.007  25.595  0.00  0.00    +0.000 OA
ATOM     19  H   UNL     1      -4.710  17.638  26.439  0.00  0.00    +0.000 HD
ENDBRANCH  15  18
ENDBRANCH   9  12
BRANCH   2  20
ATOM     20  O   UNL     1      -3.106  10.207  16.712  0.00  0.00    +0.000 OA
ATOM     21  H   UNL     1      -2.298   9.831  17.123  0.00  0.00    +0.000 HD
ENDBRANCH   2  20
BRANCH   4  22
ATOM     22  O   UNL     1      -7.262  10.714  18.700  0.00  0.00    +0.000 OA
ATOM     23  H   UNL     1      -7.527  10.378  17.829  0.00  0.00    +0.000 HD
ENDBRANCH   4  22
BRANCH   1  24
ATOM     24  C   UNL     1      -1.730  12.172  18.255  0.00  0.00    +0.000 C 
BRANCH  24  28
ATOM     25  N   UNL     1       1.097   9.757  18.983  0.00  0.00    +0.000 NA
ATOM     26  C   UNL     1      -0.380   9.702  19.149  0.00  0.00    +0.000 C 
ATOM     27  C   UNL     1      -0.902  10.764  20.124  0.00  0.00    +0.000 C 
ATOM     28  N   UNL     1      -0.851  12.091  19.490  0.00  0.00    +0.000 NA
ATOM     29  C   UNL     1       0.596  12.367  19.293  0.00  0.00    +0.000 C 
ATOM     30  C   UNL     1       1.547  11.161  18.873  0.00  0.00    +0.000 C 
BRANCH  25  31
ATOM     31  C   UNL     1       1.592   8.779  19.962  0.00  0.00    +0.000 C 
BRANCH  31  36
ATOM     32  C   UNL     1       1.528   3.379  18.249  0.00  0.00    +0.000 C 
ATOM     33  C   UNL     1       1.895   4.711  18.832  0.00  0.00    +0.000 A 
ATOM     34  C   UNL     1       1.593   5.046  20.161  0.00  0.00    +0.000 A 
ATOM     35  C   UNL     1       1.729   6.353  20.641  0.00  0.00    +0.000 A 
ATOM     36  C   UNL     1       2.153   7.375  19.791  0.00  0.00    +0.000 A 
ATOM     37  C   UNL     1       2.596   7.007  18.495  0.00  0.00    +0.000 A 
ATOM     38  C   UNL     1       2.456   5.699  18.013  0.00  0.00    +0.000 A 
ENDBRANCH  31  36
ENDBRANCH  25  31
ENDBRANCH  24  28
ENDBRANCH   1  24
TORSDOF 8
ENDMDL
