MODEL 1
REMARK VINA RESULT:      -8.6      0.000      0.000
REMARK  Name = 
REMARK  4 active torsions:
REMARK  status: ('A' for Active; 'I' for Inactive)
REMARK    1  A    between atoms: C_4  and  C_5
REMARK    2  A    between atoms: C_16  and  C_17
REMARK    3  A    between atoms: C_20  and  C_21
REMARK    4  A    between atoms: C_21  and  O_23
REMARK                            x       y       z     vdW  Elec       q    Type
REMARK                         _______ _______ _______ _____ _____    ______ ____
ROOT
ATOM      1  O   UNL     1       2.202   3.767  21.680  0.00  0.00    +0.000 OA
ATOM      2  C   UNL     1       2.322   4.725  20.943  0.00  0.00    +0.000 C 
ATOM      3  O   UNL     1       1.744   5.952  21.073  0.00  0.00    +0.000 OA
ATOM      4  C   UNL     1       2.179   6.692  20.025  0.00  0.00    +0.000 C 
ATOM      5  N   UNL     1       2.984   6.127  19.183  0.00  0.00    +0.000 NA
ATOM      6  C   UNL     1       3.131   4.871  19.705  0.00  0.00    +0.000 C 
ATOM      7  C   UNL     1       3.905   3.896  19.220  0.00  0.00    +0.000 C 
ENDROOT
BRANCH   4   8
ATOM      8  C   UNL     1       1.702   8.079  19.956  0.00  0.00    +0.000 A 
ATOM      9  C   UNL     1       1.668   8.791  18.739  0.00  0.00    +0.000 A 
ATOM     10  C   UNL     1       1.174  10.101  18.701  0.00  0.00    +0.000 A 
ATOM     11  C   UNL     1       0.738  10.659  19.886  0.00  0.00    +0.000 A 
ATOM     12  C   UNL     1       0.784   9.968  21.073  0.00  0.00    +0.000 A 
ATOM     13  C   UNL     1       1.258   8.679  21.144  0.00  0.00    +0.000 A 
ATOM     14  O   UNL     1       0.315  10.698  22.119  0.00  0.00    +0.000 OA
ATOM     15  C   UNL     1       0.001  11.943  21.462  0.00  0.00    +0.000 C 
ATOM     16  O   UNL     1       0.226  11.909  20.036  0.00  0.00    +0.000 OA
ENDBRANCH   4   8
BRANCH   7  17
ATOM     17  C   UNL     1       4.740   4.084  18.031  0.00  0.00    +0.000 A 
ATOM     18  C   UNL     1       4.200   3.854  16.762  0.00  0.00    +0.000 A 
ATOM     19  C   UNL     1       4.985   4.029  15.621  0.00  0.00    +0.000 A 
ATOM     20  C   UNL     1       6.322   4.432  15.736  0.00  0.00    +0.000 A 
ATOM     21  C   UNL     1       6.868   4.658  17.007  0.00  0.00    +0.000 A 
ATOM     22  C   UNL     1       6.079   4.474  18.150  0.00  0.00    +0.000 A 
BRANCH  20  23
ATOM     23  C   UNL     1       7.079   4.667  14.477  0.00  0.00    +0.000 C 
ATOM     24  O   UNL     1       7.895   5.567  14.363  0.00  0.00    +0.000 OA
BRANCH  23  25
ATOM     25  O   UNL     1       6.775   3.827  13.467  0.00  0.00    +0.000 OA
ATOM     26  H   UNL     1       6.608   2.903  13.723  0.00  0.00    +0.000 HD
ENDBRANCH  23  25
ENDBRANCH  20  23
ENDBRANCH   7  17
TORSDOF 4
ENDMDL
MODEL 2
REMARK VINA RESULT:      -8.5      1.069      1.633
REMARK  Name = 
REMARK  4 active torsions:
REMARK  status: ('A' for Active; 'I' for Inactive)
REMARK    1  A    between atoms: C_4  and  C_5
REMARK    2  A    between atoms: C_16  and  C_17
REMARK    3  A    between atoms: C_20  and  C_21
REMARK    4  A    between atoms: C_21  and  O_23
REMARK                            x       y       z     vdW  Elec       q    Type
REMARK                         _______ _______ _______ _____ _____    ______ ____
ROOT
ATOM      1  O   UNL     1       3.188   3.265  20.441  0.00  0.00    +0.000 OA
ATOM      2  C   UNL     1       3.173   4.284  19.783  0.00  0.00    +0.000 C 
ATOM      3  O   UNL     1       2.489   5.434  20.044  0.00  0.00    +0.000 OA
ATOM      4  C   UNL     1       2.790   6.293  19.041  0.00  0.00    +0.000 C 
ATOM      5  N   UNL     1       3.594   5.879  18.114  0.00  0.00    +0.000 NA
ATOM      6  C   UNL     1       3.890   4.607  18.521  0.00  0.00    +0.000 C 
ATOM      7  C   UNL     1       4.723   3.754  17.917  0.00  0.00    +0.000 C 
ENDROOT
BRANCH   4   8
ATOM      8  C   UNL     1       2.179   7.627  19.113  0.00  0.00    +0.000 A 
ATOM      9  C   UNL     1       2.114   8.474  17.986  0.00  0.00    +0.000 A 
ATOM     10  C   UNL     1       1.494   9.726  18.080  0.00  0.00    +0.000 A 
ATOM     11  C   UNL     1       0.967  10.093  19.301  0.00  0.00    +0.000 A 
ATOM     12  C   UNL     1       1.043   9.272  20.400  0.00  0.00    +0.000 A 
ATOM     13  C   UNL     1       1.640   8.035  20.342  0.00  0.00    +0.000 A 
ATOM     14  O   UNL     1       0.470   9.824  21.503  0.00  0.00    +0.000 OA
ATOM     15  C   UNL     1       0.055  11.103  20.982  0.00  0.00    +0.000 C 
ATOM     16  O   UNL     1       0.329  11.262  19.573  0.00  0.00    +0.000 OA
ENDBRANCH   4   8
BRANCH   7  17
ATOM     17  C   UNL     1       5.465   4.117  16.707  0.00  0.00    +0.000 A 
ATOM     18  C   UNL     1       6.744   4.670  16.820  0.00  0.00    +0.000 A 
ATOM     19  C   UNL     1       7.463   5.020  15.675  0.00  0.00    +0.000 A 
ATOM     20  C   UNL     1       6.908   4.826  14.404  0.00  0.00    +0.000 A 
ATOM     21  C   UNL     1       5.623   4.278  14.287  0.00  0.00    +0.000 A 
ATOM     22  C   UNL     1       4.902   3.935  15.439  0.00  0.00    +0.000 A 
BRANCH  20  23
ATOM     23  C   UNL     1       7.755   5.158  13.227  0.00  0.00    +0.000 C 
ATOM     24  O   UNL     1       8.678   5.954  13.288  0.00  0.00    +0.000 OA
BRANCH  23  25
ATOM     25  O   UNL     1       7.407   4.533  12.083  0.00  0.00    +0.000 OA
ATOM     26  H   UNL     1       6.523   4.128  12.077  0.00  0.00    +0.000 HD
ENDBRANCH  23  25
ENDBRANCH  20  23
ENDBRANCH   7  17
TORSDOF 4
ENDMDL
MODEL 3
REMARK VINA RESULT:      -8.3      0.725      1.434
REMARK  Name = 
REMARK  4 active torsions:
REMARK  status: ('A' for Active; 'I' for Inactive)
REMARK    1  A    between atoms: C_4  and  C_5
REMARK    2  A    between atoms: C_16  and  C_17
REMARK    3  A    between atoms: C_20  and  C_21
REMARK    4  A    between atoms: C_21  and  O_23
REMARK                            x       y       z     vdW  Elec       q    Type
REMARK                         _______ _______ _______ _____ _____    ______ ____
ROOT
ATOM      1  O   UNL     1       2.297   3.286  21.675  0.00  0.00    +0.000 OA
ATOM      2  C   UNL     1       2.374   4.294  21.003  0.00  0.00    +0.000 C 
ATOM      3  O   UNL     1       1.753   5.488  21.219  0.00  0.00    +0.000 OA
ATOM      4  C   UNL     1       2.151   6.311  20.220  0.00  0.00    +0.000 C 
ATOM      5  N   UNL     1       2.967   5.833  19.335  0.00  0.00    +0.000 NA
ATOM      6  C   UNL     1       3.165   4.552  19.770  0.00  0.00    +0.000 C 
ATOM      7  C   UNL     1       3.967   3.640  19.215  0.00  0.00    +0.000 C 
ENDROOT
BRANCH   4   8
ATOM      8  C   UNL     1       1.623   7.682  20.248  0.00  0.00    +0.000 A 
ATOM      9  C   UNL     1       0.923   8.184  21.365  0.00  0.00    +0.000 A 
ATOM     10  C   UNL     1       0.464   9.507  21.373  0.00  0.00    +0.000 A 
ATOM     11  C   UNL     1       0.713  10.282  20.258  0.00  0.00    +0.000 A 
ATOM     12  C   UNL     1       1.385   9.786  19.167  0.00  0.00    +0.000 A 
ATOM     13  C   UNL     1       1.854   8.494  19.127  0.00  0.00    +0.000 A 
ATOM     14  O   UNL     1       1.520  10.708  18.176  0.00  0.00    +0.000 OA
ATOM     15  C   UNL     1       0.825  11.831  18.754  0.00  0.00    +0.000 C 
ATOM     16  O   UNL     1       0.348  11.581  20.094  0.00  0.00    +0.000 OA
ENDBRANCH   4   8
BRANCH   7  17
ATOM     17  C   UNL     1       4.783   3.937  18.035  0.00  0.00    +0.000 A 
ATOM     18  C   UNL     1       4.245   3.752  16.758  0.00  0.00    +0.000 A 
ATOM     19  C   UNL     1       5.011   4.031  15.625  0.00  0.00    +0.000 A 
ATOM     20  C   UNL     1       6.327   4.495  15.756  0.00  0.00    +0.000 A 
ATOM     21  C   UNL     1       6.871   4.676  17.034  0.00  0.00    +0.000 A 
ATOM     22  C   UNL     1       6.101   4.387  18.170  0.00  0.00    +0.000 A 
BRANCH  20  23
ATOM     23  C   UNL     1       7.061   4.838  14.509  0.00  0.00    +0.000 C 
ATOM     24  O   UNL     1       7.974   5.647  14.489  0.00  0.00    +0.000 OA
BRANCH  23  25
ATOM     25  O   UNL     1       6.623   4.207  13.400  0.00  0.00    +0.000 OA
ATOM     26  H   UNL     1       7.139   3.430  13.126  0.00  0.00    +0.000 HD
ENDBRANCH  23  25
ENDBRANCH  20  23
ENDBRANCH   7  17
TORSDOF 4
ENDMDL
MODEL 4
REMARK VINA RESULT:      -8.2      1.259      1.600
REMARK  Name = 
REMARK  4 active torsions:
REMARK  status: ('A' for Active; 'I' for Inactive)
REMARK    1  A    between atoms: C_4  and  C_5
REMARK    2  A    between atoms: C_16  and  C_17
REMARK    3  A    between atoms: C_20  and  C_21
REMARK    4  A    between atoms: C_21  and  O_23
REMARK                            x       y       z     vdW  Elec       q    Type
REMARK                         _______ _______ _______ _____ _____    ______ ____
ROOT
ATOM      1  O   UNL     1       2.505   2.983  19.597  0.00  0.00    +0.000 OA
ATOM      2  C   UNL     1       2.690   4.073  19.097  0.00  0.00    +0.000 C 
ATOM      3  O   UNL     1       2.116   5.259  19.448  0.00  0.00    +0.000 OA
ATOM      4  C   UNL     1       2.637   6.195  18.621  0.00  0.00    +0.000 C 
ATOM      5  N   UNL     1       3.498   5.804  17.736  0.00  0.00    +0.000 NA
ATOM      6  C   UNL     1       3.593   4.463  17.981  0.00  0.00    +0.000 C 
ATOM      7  C   UNL     1       4.391   3.595  17.353  0.00  0.00    +0.000 C 
ENDROOT
BRANCH   4   8
ATOM      8  C   UNL     1       2.181   7.577  18.820  0.00  0.00    +0.000 A 
ATOM      9  C   UNL     1       2.184   8.518  17.769  0.00  0.00    +0.000 A 
ATOM     10  C   UNL     1       1.709   9.818  17.984  0.00  0.00    +0.000 A 
ATOM     11  C   UNL     1       1.254  10.136  19.248  0.00  0.00    +0.000 A 
ATOM     12  C   UNL     1       1.263   9.221  20.273  0.00  0.00    +0.000 A 
ATOM     13  C   UNL     1       1.718   7.935  20.095  0.00  0.00    +0.000 A 
ATOM     14  O   UNL     1       0.779   9.736  21.435  0.00  0.00    +0.000 OA
ATOM     15  C   UNL     1       0.497  11.092  21.034  0.00  0.00    +0.000 C 
ATOM     16  O   UNL     1       0.756  11.340  19.635  0.00  0.00    +0.000 OA
ENDBRANCH   4   8
BRANCH   7  17
ATOM     17  C   UNL     1       5.316   4.013  16.297  0.00  0.00    +0.000 A 
ATOM     18  C   UNL     1       4.956   3.849  14.956  0.00  0.00    +0.000 A 
ATOM     19  C   UNL     1       5.828   4.244  13.940  0.00  0.00    +0.000 A 
ATOM     20  C   UNL     1       7.074   4.803  14.253  0.00  0.00    +0.000 A 
ATOM     21  C   UNL     1       7.441   4.963  15.596  0.00  0.00    +0.000 A 
ATOM     22  C   UNL     1       6.565   4.559  16.613  0.00  0.00    +0.000 A 
BRANCH  20  23
ATOM     23  C   UNL     1       7.923   5.264  13.122  0.00  0.00    +0.000 C 
ATOM     24  O   UNL     1       8.893   5.985  13.285  0.00  0.00    +0.000 OA
BRANCH  23  25
ATOM     25  O   UNL     1       7.522   4.847  11.904  0.00  0.00    +0.000 OA
ATOM     26  H   UNL     1       8.224   4.757  11.237  0.00  0.00    +0.000 HD
ENDBRANCH  23  25
ENDBRANCH  20  23
ENDBRANCH   7  17
TORSDOF 4
ENDMDL
MODEL 5
REMARK VINA RESULT:      -7.7      1.456      2.462
REMARK  Name = 
REMARK  4 active torsions:
REMARK  status: ('A' for Active; 'I' for Inactive)
REMARK    1  A    between atoms: C_4  and  C_5
REMARK    2  A    between atoms: C_16  and  C_17
REMARK    3  A    between atoms: C_20  and  C_21
REMARK    4  A    between atoms: C_21  and  O_23
REMARK                            x       y       z     vdW  Elec       q    Type
REMARK                         _______ _______ _______ _____ _____    ______ ____
ROOT
ATOM      1  O   UNL     1       2.967   2.471  19.868  0.00  0.00    +0.000 OA
ATOM      2  C   UNL     1       3.033   3.585  19.390  0.00  0.00    +0.000 C 
ATOM      3  O   UNL     1       2.420   4.719  19.834  0.00  0.00    +0.000 OA
ATOM      4  C   UNL     1       2.798   5.711  18.994  0.00  0.00    +0.000 C 
ATOM      5  N   UNL     1       3.594   5.404  18.019  0.00  0.00    +0.000 NA
ATOM      6  C   UNL     1       3.798   4.065  18.209  0.00  0.00    +0.000 C 
ATOM      7  C   UNL     1       4.586   3.271  17.479  0.00  0.00    +0.000 C 
ENDROOT
BRANCH   4   8
ATOM      8  C   UNL     1       2.275   7.053  19.283  0.00  0.00    +0.000 A 
ATOM      9  C   UNL     1       1.685   7.367  20.525  0.00  0.00    +0.000 A 
ATOM     10  C   UNL     1       1.228   8.665  20.781  0.00  0.00    +0.000 A 
ATOM     11  C   UNL     1       1.369   9.606  19.781  0.00  0.00    +0.000 A 
ATOM     12  C   UNL     1       1.932   9.295  18.567  0.00  0.00    +0.000 A 
ATOM     13  C   UNL     1       2.396   8.031  18.284  0.00  0.00    +0.000 A 
ATOM     14  O   UNL     1       1.971  10.359  17.722  0.00  0.00    +0.000 OA
ATOM     15  C   UNL     1       1.334  11.370  18.530  0.00  0.00    +0.000 C 
ATOM     16  O   UNL     1       0.989  10.909  19.855  0.00  0.00    +0.000 OA
ENDBRANCH   4   8
BRANCH   7  17
ATOM     17  C   UNL     1       5.377   3.780  16.357  0.00  0.00    +0.000 A 
ATOM     18  C   UNL     1       6.587   4.436  16.603  0.00  0.00    +0.000 A 
ATOM     19  C   UNL     1       7.351   4.926  15.542  0.00  0.00    +0.000 A 
ATOM     20  C   UNL     1       6.912   4.769  14.221  0.00  0.00    +0.000 A 
ATOM     21  C   UNL     1       5.697   4.117  13.971  0.00  0.00    +0.000 A 
ATOM     22  C   UNL     1       4.929   3.633  15.039  0.00  0.00    +0.000 A 
BRANCH  20  23
ATOM     23  C   UNL     1       7.808   5.254  13.137  0.00  0.00    +0.000 C 
ATOM     24  O   UNL     1       7.627   4.970  11.964  0.00  0.00    +0.000 OA
BRANCH  23  25
ATOM     25  O   UNL     1       8.848   6.004  13.554  0.00  0.00    +0.000 OA
ATOM     26  H   UNL     1       8.657   6.948  13.692  0.00  0.00    +0.000 HD
ENDBRANCH  23  25
ENDBRANCH  20  23
ENDBRANCH   7  17
TORSDOF 4
ENDMDL
MODEL 6
REMARK VINA RESULT:      -7.6      1.192      1.926
REMARK  Name = 
REMARK  4 active torsions:
REMARK  status: ('A' for Active; 'I' for Inactive)
REMARK    1  A    between atoms: C_4  and  C_5
REMARK    2  A    between atoms: C_16  and  C_17
REMARK    3  A    between atoms: C_20  and  C_21
REMARK    4  A    between atoms: C_21  and  O_23
REMARK                            x       y       z     vdW  Elec       q    Type
REMARK                         _______ _______ _______ _____ _____    ______ ____
ROOT
ATOM      1  O   UNL     1       3.071   2.814  20.754  0.00  0.00    +0.000 OA
ATOM      2  C   UNL     1       3.076   3.869  20.156  0.00  0.00    +0.000 C 
ATOM      3  O   UNL     1       2.407   5.012  20.478  0.00  0.00    +0.000 OA
ATOM      4  C   UNL     1       2.727   5.923  19.529  0.00  0.00    +0.000 C 
ATOM      5  N   UNL     1       3.532   5.551  18.585  0.00  0.00    +0.000 NA
ATOM      6  C   UNL     1       3.807   4.254  18.919  0.00  0.00    +0.000 C 
ATOM      7  C   UNL     1       4.632   3.425  18.273  0.00  0.00    +0.000 C 
ENDROOT
BRANCH   4   8
ATOM      8  C   UNL     1       2.136   7.260  19.674  0.00  0.00    +0.000 A 
ATOM      9  C   UNL     1       1.478   7.655  20.857  0.00  0.00    +0.000 A 
ATOM     10  C   UNL     1       0.956   8.949  20.976  0.00  0.00    +0.000 A 
ATOM     11  C   UNL     1       1.102   9.803  19.902  0.00  0.00    +0.000 A 
ATOM     12  C   UNL     1       1.732   9.412  18.745  0.00  0.00    +0.000 A 
ATOM     13  C   UNL     1       2.261   8.150  18.597  0.00  0.00    +0.000 A 
ATOM     14  O   UNL     1       1.764  10.398  17.810  0.00  0.00    +0.000 OA
ATOM     15  C   UNL     1       1.050  11.446  18.497  0.00  0.00    +0.000 C 
ATOM     16  O   UNL     1       0.665  11.089  19.842  0.00  0.00    +0.000 OA
ENDBRANCH   4   8
BRANCH   7  17
ATOM     17  C   UNL     1       5.388   3.846  17.091  0.00  0.00    +0.000 A 
ATOM     18  C   UNL     1       4.842   3.660  15.818  0.00  0.00    +0.000 A 
ATOM     19  C   UNL     1       5.552   4.057  14.683  0.00  0.00    +0.000 A 
ATOM     20  C   UNL     1       6.820   4.640  14.808  0.00  0.00    +0.000 A 
ATOM     21  C   UNL     1       7.373   4.822  16.083  0.00  0.00    +0.000 A 
ATOM     22  C   UNL     1       6.660   4.416  17.220  0.00  0.00    +0.000 A 
BRANCH  20  23
ATOM     23  C   UNL     1       7.490   5.102  13.563  0.00  0.00    +0.000 C 
ATOM     24  O   UNL     1       7.107   4.771  12.453  0.00  0.00    +0.000 OA
BRANCH  23  25
ATOM     25  O   UNL     1       8.568   5.888  13.757  0.00  0.00    +0.000 OA
ATOM     26  H   UNL     1       8.922   6.321  12.962  0.00  0.00    +0.000 HD
ENDBRANCH  23  25
ENDBRANCH  20  23
ENDBRANCH   7  17
TORSDOF 4
ENDMDL
MODEL 7
REMARK VINA RESULT:      -7.6      1.313      7.846
REMARK  Name = 
REMARK  4 active torsions:
REMARK  status: ('A' for Active; 'I' for Inactive)
REMARK    1  A    between atoms: C_4  and  C_5
REMARK    2  A    between atoms: C_16  and  C_17
REMARK    3  A    between atoms: C_20  and  C_21
REMARK    4  A    between atoms: C_21  and  O_23
REMARK                            x       y       z     vdW  Elec       q    Type
REMARK                         _______ _______ _______ _____ _____    ______ ____
ROOT
ATOM      1  O   UNL     1       1.751   4.100  21.412  0.00  0.00    +0.000 OA
ATOM      2  C   UNL     1       2.405   4.774  20.641  0.00  0.00    +0.000 C 
ATOM      3  O   UNL     1       3.438   4.368  19.851  0.00  0.00    +0.000 OA
ATOM      4  C   UNL     1       3.843   5.460  19.161  0.00  0.00    +0.000 C 
ATOM      5  N   UNL     1       3.220   6.574  19.378  0.00  0.00    +0.000 NA
ATOM      6  C   UNL     1       2.281   6.217  20.306  0.00  0.00    +0.000 C 
ATOM      7  C   UNL     1       1.348   7.012  20.838  0.00  0.00    +0.000 C 
ENDROOT
BRANCH   4   8
ATOM      8  C   UNL     1       4.948   5.267  18.213  0.00  0.00    +0.000 A 
ATOM      9  C   UNL     1       6.282   5.120  18.650  0.00  0.00    +0.000 A 
ATOM     10  C   UNL     1       7.308   4.902  17.722  0.00  0.00    +0.000 A 
ATOM     11  C   UNL     1       6.967   4.847  16.386  0.00  0.00    +0.000 A 
ATOM     12  C   UNL     1       5.669   5.003  15.962  0.00  0.00    +0.000 A 
ATOM     13  C   UNL     1       4.637   5.213  16.846  0.00  0.00    +0.000 A 
ATOM     14  O   UNL     1       5.549   4.921  14.610  0.00  0.00    +0.000 OA
ATOM     15  C   UNL     1       6.927   4.731  14.227  0.00  0.00    +0.000 C 
ATOM     16  O   UNL     1       7.826   4.640  15.353  0.00  0.00    +0.000 OA
ENDBRANCH   4   8
BRANCH   7  17
ATOM     17  C   UNL     1       1.207   8.416  20.447  0.00  0.00    +0.000 A 
ATOM     18  C   UNL     1       1.344   8.777  19.103  0.00  0.00    +0.000 A 
ATOM     19  C   UNL     1       1.212  10.112  18.716  0.00  0.00    +0.000 A 
ATOM     20  C   UNL     1       0.947  11.103  19.670  0.00  0.00    +0.000 A 
ATOM     21  C   UNL     1       0.815  10.746  21.019  0.00  0.00    +0.000 A 
ATOM     22  C   UNL     1       0.956   9.406  21.404  0.00  0.00    +0.000 A 
BRANCH  20  23
ATOM     23  C   UNL     1       0.750  12.494  19.179  0.00  0.00    +0.000 C 
ATOM     24  O   UNL     1       1.210  13.463  19.760  0.00  0.00    +0.000 OA
BRANCH  23  25
ATOM     25  O   UNL     1       0.003  12.601  18.062  0.00  0.00    +0.000 OA
ATOM     26  H   UNL     1      -0.147  13.506  17.741  0.00  0.00    +0.000 HD
ENDBRANCH  23  25
ENDBRANCH  20  23
ENDBRANCH   7  17
TORSDOF 4
ENDMDL
MODEL 8
REMARK VINA RESULT:      -7.5      1.245      7.954
REMARK  Name = 
REMARK  4 active torsions:
REMARK  status: ('A' for Active; 'I' for Inactive)
REMARK    1  A    between atoms: C_4  and  C_5
REMARK    2  A    between atoms: C_16  and  C_17
REMARK    3  A    between atoms: C_20  and  C_21
REMARK    4  A    between atoms: C_21  and  O_23
REMARK                            x       y       z     vdW  Elec       q    Type
REMARK                         _______ _______ _______ _____ _____    ______ ____
ROOT
ATOM      1  O   UNL     1       1.305   3.720  21.158  0.00  0.00    +0.000 OA
ATOM      2  C   UNL     1       2.043   4.457  20.538  0.00  0.00    +0.000 C 
ATOM      3  O   UNL     1       3.103   4.108  19.755  0.00  0.00    +0.000 OA
ATOM      4  C   UNL     1       3.612   5.262  19.264  0.00  0.00    +0.000 C 
ATOM      5  N   UNL     1       3.039   6.370  19.614  0.00  0.00    +0.000 NA
ATOM      6  C   UNL     1       2.022   5.939  20.421  0.00  0.00    +0.000 C 
ATOM      7  C   UNL     1       1.102   6.704  21.015  0.00  0.00    +0.000 C 
ENDROOT
BRANCH   4   8
ATOM      8  C   UNL     1       4.765   5.142  18.363  0.00  0.00    +0.000 A 
ATOM      9  C   UNL     1       6.087   5.091  18.853  0.00  0.00    +0.000 A 
ATOM     10  C   UNL     1       7.162   4.941  17.969  0.00  0.00    +0.000 A 
ATOM     11  C   UNL     1       6.880   4.854  16.621  0.00  0.00    +0.000 A 
ATOM     12  C   UNL     1       5.592   4.916  16.144  0.00  0.00    +0.000 A 
ATOM     13  C   UNL     1       4.513   5.059  16.985  0.00  0.00    +0.000 A 
ATOM     14  O   UNL     1       5.532   4.819  14.789  0.00  0.00    +0.000 OA
ATOM     15  C   UNL     1       6.934   4.724  14.463  0.00  0.00    +0.000 C 
ATOM     16  O   UNL     1       7.792   4.702  15.624  0.00  0.00    +0.000 OA
ENDBRANCH   4   8
BRANCH   7  17
ATOM     17  C   UNL     1       1.065   8.157  20.836  0.00  0.00    +0.000 A 
ATOM     18  C   UNL     1       0.923   8.989  21.950  0.00  0.00    +0.000 A 
ATOM     19  C   UNL     1       0.886  10.376  21.793  0.00  0.00    +0.000 A 
ATOM     20  C   UNL     1       0.987  10.947  20.519  0.00  0.00    +0.000 A 
ATOM     21  C   UNL     1       1.124  10.116  19.398  0.00  0.00    +0.000 A 
ATOM     22  C   UNL     1       1.153   8.725  19.559  0.00  0.00    +0.000 A 
BRANCH  20  23
ATOM     23  C   UNL     1       1.010  12.432  20.431  0.00  0.00    +0.000 C 
ATOM     24  O   UNL     1       1.407  13.135  21.346  0.00  0.00    +0.000 OA
BRANCH  23  25
ATOM     25  O   UNL     1       0.533  12.940  19.276  0.00  0.00    +0.000 OA
ATOM     26  H   UNL     1      -0.433  13.029  19.223  0.00  0.00    +0.000 HD
ENDBRANCH  23  25
ENDBRANCH  20  23
ENDBRANCH   7  17
TORSDOF 4
ENDMDL
MODEL 9
REMARK VINA RESULT:      -7.3      3.581      5.438
REMARK  Name = 
REMARK  4 active torsions:
REMARK  status: ('A' for Active; 'I' for Inactive)
REMARK    1  A    between atoms: C_4  and  C_5
REMARK    2  A    between atoms: C_16  and  C_17
REMARK    3  A    between atoms: C_20  and  C_21
REMARK    4  A    between atoms: C_21  and  O_23
REMARK                            x       y       z     vdW  Elec       q    Type
REMARK                         _______ _______ _______ _____ _____    ______ ____
ROOT
ATOM      1  O   UNL     1       2.606  10.835  17.341  0.00  0.00    +0.000 OA
ATOM      2  C   UNL     1       1.958  10.398  18.270  0.00  0.00    +0.000 C 
ATOM      3  O   UNL     1       1.146  11.090  19.117  0.00  0.00    +0.000 OA
ATOM      4  C   UNL     1       0.630  10.182  19.979  0.00  0.00    +0.000 C 
ATOM      5  N   UNL     1       0.989   8.946  19.837  0.00  0.00    +0.000 NA
ATOM      6  C   UNL     1       1.830   9.000  18.760  0.00  0.00    +0.000 C 
ATOM      7  C   UNL     1       2.446   7.965  18.181  0.00  0.00    +0.000 C 
ENDROOT
BRANCH   4   8
ATOM      8  C   UNL     1      -0.305  10.692  20.990  0.00  0.00    +0.000 A 
ATOM      9  C   UNL     1      -0.326  10.181  22.305  0.00  0.00    +0.000 A 
ATOM     10  C   UNL     1      -1.206  10.714  23.255  0.00  0.00    +0.000 A 
ATOM     11  C   UNL     1      -2.044  11.735  22.855  0.00  0.00    +0.000 A 
ATOM     12  C   UNL     1      -2.031  12.222  21.570  0.00  0.00    +0.000 A 
ATOM     13  C   UNL     1      -1.176  11.726  20.614  0.00  0.00    +0.000 A 
ATOM     14  O   UNL     1      -2.936  13.220  21.382  0.00  0.00    +0.000 OA
ATOM     15  C   UNL     1      -3.546  13.282  22.687  0.00  0.00    +0.000 C 
ATOM     16  O   UNL     1      -2.954  12.371  23.639  0.00  0.00    +0.000 OA
ENDBRANCH   4   8
BRANCH   7  17
ATOM     17  C   UNL     1       2.256   6.589  18.644  0.00  0.00    +0.000 A 
ATOM     18  C   UNL     1       2.330   6.303  20.011  0.00  0.00    +0.000 A 
ATOM     19  C   UNL     1       2.151   4.995  20.466  0.00  0.00    +0.000 A 
ATOM     20  C   UNL     1       1.901   3.957  19.560  0.00  0.00    +0.000 A 
ATOM     21  C   UNL     1       1.833   4.239  18.188  0.00  0.00    +0.000 A 
ATOM     22  C   UNL     1       2.020   5.552  17.734  0.00  0.00    +0.000 A 
BRANCH  20  23
ATOM     23  C   UNL     1       1.652   2.601  20.119  0.00  0.00    +0.000 C 
ATOM     24  O   UNL     1       1.485   2.406  21.312  0.00  0.00    +0.000 OA
BRANCH  23  25
ATOM     25  O   UNL     1       1.655   1.604  19.211  0.00  0.00    +0.000 OA
ATOM     26  H   UNL     1       2.532   1.313  18.908  0.00  0.00    +0.000 HD
ENDBRANCH  23  25
ENDBRANCH  20  23
ENDBRANCH   7  17
TORSDOF 4
ENDMDL
