MODEL 1
REMARK VINA RESULT:      -7.6      0.000      0.000
REMARK  Name = 
REMARK  8 active torsions:
REMARK  status: ('A' for Active; 'I' for Inactive)
REMARK    1  A    between atoms: C_1  and  O_2
REMARK    2  A    between atoms: O_2  and  C_3
REMARK    3  A    between atoms: C_5  and  C_6
REMARK    4  A    between atoms: N_8  and  C_9
REMARK    5  A    between atoms: C_20  and  O_21
REMARK    6  A    between atoms: O_21  and  C_22
REMARK    7  A    between atoms: C_23  and  O_24
REMARK    8  A    between atoms: O_24  and  C_25
REMARK                            x       y       z     vdW  Elec       q    Type
REMARK                         _______ _______ _______ _____ _____    ______ ____
ROOT
ATOM      1  C   UNL     1       2.226   7.575  19.105  0.00  0.00    +0.000 C 
ATOM      2  O   UNL     1       2.606   7.530  17.942  0.00  0.00    +0.000 OA
ATOM      3  N   UNL     1       2.203   6.492  19.963  0.00  0.00    +0.000 N 
ATOM      4  H   UNL     1       1.730   6.605  20.850  0.00  0.00    +0.000 HD
ENDROOT
BRANCH   3   5
ATOM      5  C   UNL     1       2.542   5.117  19.560  0.00  0.00    +0.000 C 
ATOM      6  C   UNL     1       4.071   4.926  19.399  0.00  0.00    +0.000 C 
ATOM      7  C   UNL     1       4.403   3.473  19.018  0.00  0.00    +0.000 C 
ATOM      8  C   UNL     1       3.906   2.533  20.126  0.00  0.00    +0.000 C 
ATOM      9  C   UNL     1       2.385   2.679  20.294  0.00  0.00    +0.000 C 
ATOM     10  C   UNL     1       1.697   2.319  18.969  0.00  0.00    +0.000 C 
ATOM     11  C   UNL     1       2.175   3.264  17.856  0.00  0.00    +0.000 C 
ATOM     12  C   UNL     1       3.698   3.124  17.696  0.00  0.00    +0.000 C 
ATOM     13  C   UNL     1       1.834   4.717  18.238  0.00  0.00    +0.000 C 
ATOM     14  C   UNL     1       2.053   4.136  20.661  0.00  0.00    +0.000 C 
ENDBRANCH   3   5
BRANCH   1  17
ATOM     15  C   UNL     1       0.876  10.085  21.568  0.00  0.00    +0.000 A 
ATOM     16  C   UNL     1       1.285   8.888  20.968  0.00  0.00    +0.000 A 
ATOM     17  C   UNL     1       1.656   8.845  19.626  0.00  0.00    +0.000 A 
ATOM     18  C   UNL     1       1.515   9.992  18.850  0.00  0.00    +0.000 A 
ATOM     19  C   UNL     1       1.016  11.185  19.409  0.00  0.00    +0.000 A 
ATOM     20  C   UNL     1       0.696  11.248  20.786  0.00  0.00    +0.000 A 
BRANCH  15  22
ATOM     21  C   UNL     1      -0.701   9.675  23.291  0.00  0.00    +0.000 C 
ATOM     22  O   UNL     1       0.609  10.111  22.915  0.00  0.00    +0.000 OA
ENDBRANCH  15  22
BRANCH  19  23
ATOM     23  O   UNL     1       0.934  12.178  18.462  0.00  0.00    +0.000 OA
ATOM     24  C   UNL     1       2.040  13.045  18.253  0.00  0.00    +0.000 C 
ENDBRANCH  19  23
BRANCH  20  25
ATOM     25  O   UNL     1       0.223  12.450  21.239  0.00  0.00    +0.000 OA
ATOM     26  C   UNL     1      -1.167  12.740  21.237  0.00  0.00    +0.000 C 
ENDBRANCH  20  25
ENDBRANCH   1  17
TORSDOF 5
ENDMDL
MODEL 2
REMARK VINA RESULT:      -7.5      0.061      1.495
REMARK  Name = 
REMARK  8 active torsions:
REMARK  status: ('A' for Active; 'I' for Inactive)
REMARK    1  A    between atoms: C_1  and  O_2
REMARK    2  A    between atoms: O_2  and  C_3
REMARK    3  A    between atoms: C_5  and  C_6
REMARK    4  A    between atoms: N_8  and  C_9
REMARK    5  A    between atoms: C_20  and  O_21
REMARK    6  A    between atoms: O_21  and  C_22
REMARK    7  A    between atoms: C_23  and  O_24
REMARK    8  A    between atoms: O_24  and  C_25
REMARK                            x       y       z     vdW  Elec       q    Type
REMARK                         _______ _______ _______ _____ _____    ______ ____
ROOT
ATOM      1  C   UNL     1       2.215   7.527  19.141  0.00  0.00    +0.000 C 
ATOM      2  O   UNL     1       2.570   7.460  17.971  0.00  0.00    +0.000 OA
ATOM      3  N   UNL     1       2.217   6.460  20.020  0.00  0.00    +0.000 N 
ATOM      4  H   UNL     1       1.763   6.587  20.914  0.00  0.00    +0.000 HD
ENDROOT
BRANCH   3   5
ATOM      5  C   UNL     1       2.554   5.079  19.636  0.00  0.00    +0.000 C 
ATOM      6  C   UNL     1       2.105   4.058  20.710  0.00  0.00    +0.000 C 
ATOM      7  C   UNL     1       2.430   2.621  20.269  0.00  0.00    +0.000 C 
ATOM      8  C   UNL     1       1.688   2.314  18.959  0.00  0.00    +0.000 C 
ATOM      9  C   UNL     1       2.132   3.295  17.863  0.00  0.00    +0.000 C 
ATOM     10  C   UNL     1       3.645   3.149  17.640  0.00  0.00    +0.000 C 
ATOM     11  C   UNL     1       4.398   3.471  18.940  0.00  0.00    +0.000 C 
ATOM     12  C   UNL     1       3.946   2.495  20.039  0.00  0.00    +0.000 C 
ATOM     13  C   UNL     1       4.075   4.912  19.375  0.00  0.00    +0.000 C 
ATOM     14  C   UNL     1       1.818   4.732  18.312  0.00  0.00    +0.000 C 
ENDBRANCH   3   5
BRANCH   1  17
ATOM     15  C   UNL     1       0.873  10.064  21.580  0.00  0.00    +0.000 A 
ATOM     16  C   UNL     1       1.278   8.860  20.991  0.00  0.00    +0.000 A 
ATOM     17  C   UNL     1       1.650   8.803  19.650  0.00  0.00    +0.000 A 
ATOM     18  C   UNL     1       1.514   9.944  18.863  0.00  0.00    +0.000 A 
ATOM     19  C   UNL     1       1.019  11.144  19.411  0.00  0.00    +0.000 A 
ATOM     20  C   UNL     1       0.698  11.221  20.787  0.00  0.00    +0.000 A 
BRANCH  15  22
ATOM     21  C   UNL     1      -0.724   9.727  23.300  0.00  0.00    +0.000 C 
ATOM     22  O   UNL     1       0.605  10.104  22.927  0.00  0.00    +0.000 OA
ENDBRANCH  15  22
BRANCH  19  23
ATOM     23  O   UNL     1       0.942  12.129  18.455  0.00  0.00    +0.000 OA
ATOM     24  C   UNL     1       2.045  13.002  18.253  0.00  0.00    +0.000 C 
ENDBRANCH  19  23
BRANCH  20  25
ATOM     25  O   UNL     1       0.230  12.429  21.229  0.00  0.00    +0.000 OA
ATOM     26  C   UNL     1      -1.156  12.737  21.192  0.00  0.00    +0.000 C 
ENDBRANCH  20  25
ENDBRANCH   1  17
TORSDOF 5
ENDMDL
MODEL 3
REMARK VINA RESULT:      -7.5      0.066      1.506
REMARK  Name = 
REMARK  8 active torsions:
REMARK  status: ('A' for Active; 'I' for Inactive)
REMARK    1  A    between atoms: C_1  and  O_2
REMARK    2  A    between atoms: O_2  and  C_3
REMARK    3  A    between atoms: C_5  and  C_6
REMARK    4  A    between atoms: N_8  and  C_9
REMARK    5  A    between atoms: C_20  and  O_21
REMARK    6  A    between atoms: O_21  and  C_22
REMARK    7  A    between atoms: C_23  and  O_24
REMARK    8  A    between atoms: O_24  and  C_25
REMARK                            x       y       z     vdW  Elec       q    Type
REMARK                         _______ _______ _______ _____ _____    ______ ____
ROOT
ATOM      1  C   UNL     1       2.215   7.539  19.113  0.00  0.00    +0.000 C 
ATOM      2  O   UNL     1       2.601   7.485  17.953  0.00  0.00    +0.000 OA
ATOM      3  N   UNL     1       2.175   6.460  19.976  0.00  0.00    +0.000 N 
ATOM      4  H   UNL     1       1.698   6.581  20.859  0.00  0.00    +0.000 HD
ENDROOT
BRANCH   3   5
ATOM      5  C   UNL     1       2.503   5.080  19.580  0.00  0.00    +0.000 C 
ATOM      6  C   UNL     1       1.854   4.701  18.226  0.00  0.00    +0.000 C 
ATOM      7  C   UNL     1       2.243   3.271  17.813  0.00  0.00    +0.000 C 
ATOM      8  C   UNL     1       3.770   3.186  17.666  0.00  0.00    +0.000 C 
ATOM      9  C   UNL     1       4.446   3.531  19.003  0.00  0.00    +0.000 C 
ATOM     10  C   UNL     1       3.977   2.535  20.075  0.00  0.00    +0.000 C 
ATOM     11  C   UNL     1       2.453   2.625  20.242  0.00  0.00    +0.000 C 
ATOM     12  C   UNL     1       1.778   2.288  18.902  0.00  0.00    +0.000 C 
ATOM     13  C   UNL     1       2.068   4.055  20.661  0.00  0.00    +0.000 C 
ATOM     14  C   UNL     1       4.044   4.956  19.420  0.00  0.00    +0.000 C 
ENDBRANCH   3   5
BRANCH   1  17
ATOM     15  C   UNL     1       0.885  10.077  21.559  0.00  0.00    +0.000 A 
ATOM     16  C   UNL     1       1.286   8.872  20.968  0.00  0.00    +0.000 A 
ATOM     17  C   UNL     1       1.654   8.817  19.626  0.00  0.00    +0.000 A 
ATOM     18  C   UNL     1       1.518   9.958  18.840  0.00  0.00    +0.000 A 
ATOM     19  C   UNL     1       1.028  11.159  19.391  0.00  0.00    +0.000 A 
ATOM     20  C   UNL     1       0.711  11.235  20.768  0.00  0.00    +0.000 A 
BRANCH  15  22
ATOM     21  C   UNL     1      -0.720   9.783  23.280  0.00  0.00    +0.000 C 
ATOM     22  O   UNL     1       0.621  10.116  22.907  0.00  0.00    +0.000 OA
ENDBRANCH  15  22
BRANCH  19  23
ATOM     23  O   UNL     1       0.950  12.145  18.437  0.00  0.00    +0.000 OA
ATOM     24  C   UNL     1       2.016  13.074  18.296  0.00  0.00    +0.000 C 
ENDBRANCH  19  23
BRANCH  20  25
ATOM     25  O   UNL     1       0.247  12.444  21.213  0.00  0.00    +0.000 OA
ATOM     26  C   UNL     1      -1.131  12.777  21.128  0.00  0.00    +0.000 C 
ENDBRANCH  20  25
ENDBRANCH   1  17
TORSDOF 5
ENDMDL
MODEL 4
REMARK VINA RESULT:      -7.4      1.047      2.537
REMARK  Name = 
REMARK  8 active torsions:
REMARK  status: ('A' for Active; 'I' for Inactive)
REMARK    1  A    between atoms: C_1  and  O_2
REMARK    2  A    between atoms: O_2  and  C_3
REMARK    3  A    between atoms: C_5  and  C_6
REMARK    4  A    between atoms: N_8  and  C_9
REMARK    5  A    between atoms: C_20  and  O_21
REMARK    6  A    between atoms: O_21  and  C_22
REMARK    7  A    between atoms: C_23  and  O_24
REMARK    8  A    between atoms: O_24  and  C_25
REMARK                            x       y       z     vdW  Elec       q    Type
REMARK                         _______ _______ _______ _____ _____    ______ ____
ROOT
ATOM      1  C   UNL     1       2.289   7.602  18.988  0.00  0.00    +0.000 C 
ATOM      2  O   UNL     1       2.945   7.734  17.963  0.00  0.00    +0.000 OA
ATOM      3  N   UNL     1       2.152   6.413  19.681  0.00  0.00    +0.000 N 
ATOM      4  H   UNL     1       1.469   6.379  20.425  0.00  0.00    +0.000 HD
ENDROOT
BRANCH   3   5
ATOM      5  C   UNL     1       2.700   5.127  19.221  0.00  0.00    +0.000 C 
ATOM      6  C   UNL     1       4.248   5.146  19.175  0.00  0.00    +0.000 C 
ATOM      7  C   UNL     1       4.799   3.779  18.732  0.00  0.00    +0.000 C 
ATOM      8  C   UNL     1       4.352   2.705  19.734  0.00  0.00    +0.000 C 
ATOM      9  C   UNL     1       2.817   2.641  19.785  0.00  0.00    +0.000 C 
ATOM     10  C   UNL     1       2.281   2.294  18.387  0.00  0.00    +0.000 C 
ATOM     11  C   UNL     1       2.709   3.372  17.380  0.00  0.00    +0.000 C 
ATOM     12  C   UNL     1       4.245   3.441  17.337  0.00  0.00    +0.000 C 
ATOM     13  C   UNL     1       2.151   4.737  17.824  0.00  0.00    +0.000 C 
ATOM     14  C   UNL     1       2.267   4.013  20.215  0.00  0.00    +0.000 C 
ENDBRANCH   3   5
BRANCH   1  17
ATOM     15  C   UNL     1      -0.052  10.554  18.957  0.00  0.00    +0.000 A 
ATOM     16  C   UNL     1       0.827   9.540  18.555  0.00  0.00    +0.000 A 
ATOM     17  C   UNL     1       1.498   8.756  19.491  0.00  0.00    +0.000 A 
ATOM     18  C   UNL     1       1.370   9.059  20.843  0.00  0.00    +0.000 A 
ATOM     19  C   UNL     1       0.565  10.136  21.268  0.00  0.00    +0.000 A 
ATOM     20  C   UNL     1      -0.166  10.895  20.324  0.00  0.00    +0.000 A 
BRANCH  15  22
ATOM     21  C   UNL     1      -1.900  10.553  17.471  0.00  0.00    +0.000 C 
ATOM     22  O   UNL     1      -0.769  11.244  18.011  0.00  0.00    +0.000 OA
ENDBRANCH  15  22
BRANCH  19  23
ATOM     23  O   UNL     1       0.604  10.272  22.635  0.00  0.00    +0.000 OA
ATOM     24  C   UNL     1      -0.302   9.532  23.443  0.00  0.00    +0.000 C 
ENDBRANCH  19  23
BRANCH  20  25
ATOM     25  O   UNL     1      -0.924  11.916  20.831  0.00  0.00    +0.000 OA
ATOM     26  C   UNL     1      -0.331  13.145  21.224  0.00  0.00    +0.000 C 
ENDBRANCH  20  25
ENDBRANCH   1  17
TORSDOF 5
ENDMDL
MODEL 5
REMARK VINA RESULT:      -7.3      0.841      2.892
REMARK  Name = 
REMARK  8 active torsions:
REMARK  status: ('A' for Active; 'I' for Inactive)
REMARK    1  A    between atoms: C_1  and  O_2
REMARK    2  A    between atoms: O_2  and  C_3
REMARK    3  A    between atoms: C_5  and  C_6
REMARK    4  A    between atoms: N_8  and  C_9
REMARK    5  A    between atoms: C_20  and  O_21
REMARK    6  A    between atoms: O_21  and  C_22
REMARK    7  A    between atoms: C_23  and  O_24
REMARK    8  A    between atoms: O_24  and  C_25
REMARK                            x       y       z     vdW  Elec       q    Type
REMARK                         _______ _______ _______ _____ _____    ______ ____
ROOT
ATOM      1  C   UNL     1       2.147   7.651  19.074  0.00  0.00    +0.000 C 
ATOM      2  O   UNL     1       2.662   7.705  17.964  0.00  0.00    +0.000 OA
ATOM      3  N   UNL     1       2.055   6.502  19.838  0.00  0.00    +0.000 N 
ATOM      4  H   UNL     1       1.478   6.535  20.668  0.00  0.00    +0.000 HD
ENDROOT
BRANCH   3   5
ATOM      5  C   UNL     1       2.478   5.170  19.374  0.00  0.00    +0.000 C 
ATOM      6  C   UNL     1       1.960   4.869  17.946  0.00  0.00    +0.000 C 
ATOM      7  C   UNL     1       2.449   3.491  17.467  0.00  0.00    +0.000 C 
ATOM      8  C   UNL     1       3.985   3.479  17.444  0.00  0.00    +0.000 C 
ATOM      9  C   UNL     1       4.532   3.750  18.855  0.00  0.00    +0.000 C 
ATOM     10  C   UNL     1       4.025   2.658  19.809  0.00  0.00    +0.000 C 
ATOM     11  C   UNL     1       2.490   2.672  19.852  0.00  0.00    +0.000 C 
ATOM     12  C   UNL     1       1.943   2.410  18.439  0.00  0.00    +0.000 C 
ATOM     13  C   UNL     1       2.005   4.051  20.338  0.00  0.00    +0.000 C 
ATOM     14  C   UNL     1       4.031   5.122  19.337  0.00  0.00    +0.000 C 
ENDBRANCH   3   5
BRANCH   1  17
ATOM     15  C   UNL     1       0.197  10.873  19.143  0.00  0.00    +0.000 A 
ATOM     16  C   UNL     1       0.961   9.782  18.711  0.00  0.00    +0.000 A 
ATOM     17  C   UNL     1       1.483   8.863  19.619  0.00  0.00    +0.000 A 
ATOM     18  C   UNL     1       1.328   9.099  20.982  0.00  0.00    +0.000 A 
ATOM     19  C   UNL     1       0.644  10.241  21.444  0.00  0.00    +0.000 A 
ATOM     20  C   UNL     1       0.060  11.144  20.524  0.00  0.00    +0.000 A 
BRANCH  15  22
ATOM     21  C   UNL     1      -1.699  11.338  17.798  0.00  0.00    +0.000 C 
ATOM     22  O   UNL     1      -0.381  11.705  18.216  0.00  0.00    +0.000 OA
ENDBRANCH  15  22
BRANCH  19  23
ATOM     23  O   UNL     1       0.633  10.289  22.818  0.00  0.00    +0.000 OA
ATOM     24  C   UNL     1      -0.305   9.505  23.542  0.00  0.00    +0.000 C 
ENDBRANCH  19  23
BRANCH  20  25
ATOM     25  O   UNL     1      -0.588  12.221  21.066  0.00  0.00    +0.000 OA
ATOM     26  C   UNL     1      -1.968  12.158  21.393  0.00  0.00    +0.000 C 
ENDBRANCH  20  25
ENDBRANCH   1  17
TORSDOF 5
ENDMDL
MODEL 6
REMARK VINA RESULT:      -7.3      1.128      2.962
REMARK  Name = 
REMARK  8 active torsions:
REMARK  status: ('A' for Active; 'I' for Inactive)
REMARK    1  A    between atoms: C_1  and  O_2
REMARK    2  A    between atoms: O_2  and  C_3
REMARK    3  A    between atoms: C_5  and  C_6
REMARK    4  A    between atoms: N_8  and  C_9
REMARK    5  A    between atoms: C_20  and  O_21
REMARK    6  A    between atoms: O_21  and  C_22
REMARK    7  A    between atoms: C_23  and  O_24
REMARK    8  A    between atoms: O_24  and  C_25
REMARK                            x       y       z     vdW  Elec       q    Type
REMARK                         _______ _______ _______ _____ _____    ______ ____
ROOT
ATOM      1  C   UNL     1       2.171   7.754  18.941  0.00  0.00    +0.000 C 
ATOM      2  O   UNL     1       2.772   7.851  17.879  0.00  0.00    +0.000 OA
ATOM      3  N   UNL     1       2.106   6.600  19.700  0.00  0.00    +0.000 N 
ATOM      4  H   UNL     1       1.461   6.585  20.478  0.00  0.00    +0.000 HD
ENDROOT
BRANCH   3   5
ATOM      5  C   UNL     1       2.671   5.307  19.279  0.00  0.00    +0.000 C 
ATOM      6  C   UNL     1       2.315   4.174  20.274  0.00  0.00    +0.000 C 
ATOM      7  C   UNL     1       2.880   2.826  19.793  0.00  0.00    +0.000 C 
ATOM      8  C   UNL     1       2.276   2.485  18.423  0.00  0.00    +0.000 C 
ATOM      9  C   UNL     1       2.635   3.578  17.404  0.00  0.00    +0.000 C 
ATOM     10  C   UNL     1       4.163   3.670  17.282  0.00  0.00    +0.000 C 
ATOM     11  C   UNL     1       4.776   4.029  18.644  0.00  0.00    +0.000 C 
ATOM     12  C   UNL     1       4.410   2.938  19.664  0.00  0.00    +0.000 C 
ATOM     13  C   UNL     1       4.213   5.381  19.118  0.00  0.00    +0.000 C 
ATOM     14  C   UNL     1       2.080   4.928  17.893  0.00  0.00    +0.000 C 
ENDBRANCH   3   5
BRANCH   1  17
ATOM     15  C   UNL     1      -0.197  10.682  18.858  0.00  0.00    +0.000 A 
ATOM     16  C   UNL     1       0.691   9.670  18.474  0.00  0.00    +0.000 A 
ATOM     17  C   UNL     1       1.370   8.909  19.423  0.00  0.00    +0.000 A 
ATOM     18  C   UNL     1       1.239   9.236  20.770  0.00  0.00    +0.000 A 
ATOM     19  C   UNL     1       0.424  10.312  21.175  0.00  0.00    +0.000 A 
ATOM     20  C   UNL     1      -0.314  11.048  20.218  0.00  0.00    +0.000 A 
BRANCH  15  22
ATOM     21  C   UNL     1      -2.167  10.745  17.539  0.00  0.00    +0.000 C 
ATOM     22  O   UNL     1      -0.921  11.348  17.899  0.00  0.00    +0.000 OA
ENDBRANCH  15  22
BRANCH  19  23
ATOM     23  O   UNL     1       0.462  10.474  22.539  0.00  0.00    +0.000 OA
ATOM     24  C   UNL     1      -0.166   9.515  23.380  0.00  0.00    +0.000 C 
ENDBRANCH  19  23
BRANCH  20  25
ATOM     25  O   UNL     1      -1.082  12.070  20.707  0.00  0.00    +0.000 OA
ATOM     26  C   UNL     1      -0.577  13.396  20.778  0.00  0.00    +0.000 C 
ENDBRANCH  20  25
ENDBRANCH   1  17
TORSDOF 5
ENDMDL
MODEL 7
REMARK VINA RESULT:      -7.3      0.181      2.537
REMARK  Name = 
REMARK  8 active torsions:
REMARK  status: ('A' for Active; 'I' for Inactive)
REMARK    1  A    between atoms: C_1  and  O_2
REMARK    2  A    between atoms: O_2  and  C_3
REMARK    3  A    between atoms: C_5  and  C_6
REMARK    4  A    between atoms: N_8  and  C_9
REMARK    5  A    between atoms: C_20  and  O_21
REMARK    6  A    between atoms: O_21  and  C_22
REMARK    7  A    between atoms: C_23  and  O_24
REMARK    8  A    between atoms: O_24  and  C_25
REMARK                            x       y       z     vdW  Elec       q    Type
REMARK                         _______ _______ _______ _____ _____    ______ ____
ROOT
ATOM      1  C   UNL     1       2.206   7.546  19.184  0.00  0.00    +0.000 C 
ATOM      2  O   UNL     1       2.431   7.514  17.981  0.00  0.00    +0.000 OA
ATOM      3  N   UNL     1       2.319   6.458  20.029  0.00  0.00    +0.000 N 
ATOM      4  H   UNL     1       1.963   6.556  20.971  0.00  0.00    +0.000 HD
ENDROOT
BRANCH   3   5
ATOM      5  C   UNL     1       2.632   5.093  19.574  0.00  0.00    +0.000 C 
ATOM      6  C   UNL     1       4.149   4.905  19.325  0.00  0.00    +0.000 C 
ATOM      7  C   UNL     1       4.458   3.462  18.891  0.00  0.00    +0.000 C 
ATOM      8  C   UNL     1       4.020   2.496  20.002  0.00  0.00    +0.000 C 
ATOM      9  C   UNL     1       2.511   2.638  20.256  0.00  0.00    +0.000 C 
ATOM     10  C   UNL     1       1.750   2.311  18.962  0.00  0.00    +0.000 C 
ATOM     11  C   UNL     1       2.168   3.283  17.849  0.00  0.00    +0.000 C 
ATOM     12  C   UNL     1       3.680   3.146  17.602  0.00  0.00    +0.000 C 
ATOM     13  C   UNL     1       1.852   4.726  18.284  0.00  0.00    +0.000 C 
ATOM     14  C   UNL     1       2.203   4.086  20.677  0.00  0.00    +0.000 C 
ENDBRANCH   3   5
BRANCH   1  17
ATOM     15  C   UNL     1       0.866  11.060  19.403  0.00  0.00    +0.000 A 
ATOM     16  C   UNL     1       1.490   9.893  18.943  0.00  0.00    +0.000 A 
ATOM     17  C   UNL     1       1.681   8.800  19.785  0.00  0.00    +0.000 A 
ATOM     18  C   UNL     1       1.339   8.914  21.129  0.00  0.00    +0.000 A 
ATOM     19  C   UNL     1       0.797  10.112  21.637  0.00  0.00    +0.000 A 
ATOM     20  C   UNL     1       0.545  11.203  20.772  0.00  0.00    +0.000 A 
BRANCH  15  22
ATOM     21  C   UNL     1       1.710  12.955  18.254  0.00  0.00    +0.000 C 
ATOM     22  O   UNL     1       0.609  12.082  18.523  0.00  0.00    +0.000 OA
ENDBRANCH  15  22
BRANCH  19  23
ATOM     23  O   UNL     1       0.560  10.015  22.987  0.00  0.00    +0.000 OA
ATOM     24  C   UNL     1      -0.703   9.557  23.450  0.00  0.00    +0.000 C 
ENDBRANCH  19  23
BRANCH  20  25
ATOM     25  O   UNL     1       0.012  12.322  21.354  0.00  0.00    +0.000 OA
ATOM     26  C   UNL     1      -1.391  12.537  21.382  0.00  0.00    +0.000 C 
ENDBRANCH  20  25
ENDBRANCH   1  17
TORSDOF 5
ENDMDL
MODEL 8
REMARK VINA RESULT:      -7.3      1.610      2.042
REMARK  Name = 
REMARK  8 active torsions:
REMARK  status: ('A' for Active; 'I' for Inactive)
REMARK    1  A    between atoms: C_1  and  O_2
REMARK    2  A    between atoms: O_2  and  C_3
REMARK    3  A    between atoms: C_5  and  C_6
REMARK    4  A    between atoms: N_8  and  C_9
REMARK    5  A    between atoms: C_20  and  O_21
REMARK    6  A    between atoms: O_21  and  C_22
REMARK    7  A    between atoms: C_23  and  O_24
REMARK    8  A    between atoms: O_24  and  C_25
REMARK                            x       y       z     vdW  Elec       q    Type
REMARK                         _______ _______ _______ _____ _____    ______ ____
ROOT
ATOM      1  C   UNL     1       2.188   8.229  18.332  0.00  0.00    +0.000 C 
ATOM      2  O   UNL     1       2.547   8.435  17.179  0.00  0.00    +0.000 OA
ATOM      3  N   UNL     1       2.557   7.127  19.080  0.00  0.00    +0.000 N 
ATOM      4  H   UNL     1       2.084   6.978  19.962  0.00  0.00    +0.000 HD
ENDROOT
BRANCH   3   5
ATOM      5  C   UNL     1       3.353   6.006  18.554  0.00  0.00    +0.000 C 
ATOM      6  C   UNL     1       4.496   6.497  17.632  0.00  0.00    +0.000 C 
ATOM      7  C   UNL     1       5.339   5.312  17.128  0.00  0.00    +0.000 C 
ATOM      8  C   UNL     1       5.958   4.584  18.331  0.00  0.00    +0.000 C 
ATOM      9  C   UNL     1       4.847   4.060  19.254  0.00  0.00    +0.000 C 
ATOM     10  C   UNL     1       3.957   3.086  18.468  0.00  0.00    +0.000 C 
ATOM     11  C   UNL     1       3.319   3.810  17.272  0.00  0.00    +0.000 C 
ATOM     12  C   UNL     1       4.432   4.341  16.353  0.00  0.00    +0.000 C 
ATOM     13  C   UNL     1       2.472   4.990  17.781  0.00  0.00    +0.000 C 
ATOM     14  C   UNL     1       3.997   5.245  19.746  0.00  0.00    +0.000 C 
ENDBRANCH   3   5
BRANCH   1  17
ATOM     15  C   UNL     1       0.458  10.252  20.997  0.00  0.00    +0.000 A 
ATOM     16  C   UNL     1       1.243   9.293  20.345  0.00  0.00    +0.000 A 
ATOM     17  C   UNL     1       1.213   9.160  18.959  0.00  0.00    +0.000 A 
ATOM     18  C   UNL     1       0.309   9.923  18.226  0.00  0.00    +0.000 A 
ATOM     19  C   UNL     1      -0.558  10.829  18.869  0.00  0.00    +0.000 A 
ATOM     20  C   UNL     1      -0.488  11.011  20.270  0.00  0.00    +0.000 A 
BRANCH  15  22
ATOM     21  C   UNL     1      -0.233   9.562  23.158  0.00  0.00    +0.000 C 
ATOM     22  O   UNL     1       0.582  10.421  22.354  0.00  0.00    +0.000 OA
ENDBRANCH  15  22
BRANCH  19  23
ATOM     23  O   UNL     1      -1.381  11.454  17.962  0.00  0.00    +0.000 OA
ATOM     24  C   UNL     1      -2.691  10.951  17.737  0.00  0.00    +0.000 C 
ENDBRANCH  19  23
BRANCH  20  25
ATOM     25  O   UNL     1      -1.367  11.915  20.804  0.00  0.00    +0.000 OA
ATOM     26  C   UNL     1      -1.002  13.276  20.980  0.00  0.00    +0.000 C 
ENDBRANCH  20  25
ENDBRANCH   1  17
TORSDOF 5
ENDMDL
MODEL 9
REMARK VINA RESULT:      -7.3      2.303      7.657
REMARK  Name = 
REMARK  8 active torsions:
REMARK  status: ('A' for Active; 'I' for Inactive)
REMARK    1  A    between atoms: C_1  and  O_2
REMARK    2  A    between atoms: O_2  and  C_3
REMARK    3  A    between atoms: C_5  and  C_6
REMARK    4  A    between atoms: N_8  and  C_9
REMARK    5  A    between atoms: C_20  and  O_21
REMARK    6  A    between atoms: O_21  and  C_22
REMARK    7  A    between atoms: C_23  and  O_24
REMARK    8  A    between atoms: O_24  and  C_25
REMARK                            x       y       z     vdW  Elec       q    Type
REMARK                         _______ _______ _______ _____ _____    ______ ____
ROOT
ATOM      1  C   UNL     1       1.829   8.791  18.352  0.00  0.00    +0.000 C 
ATOM      2  O   UNL     1       2.024   9.410  17.314  0.00  0.00    +0.000 OA
ATOM      3  N   UNL     1       1.020   9.230  19.384  0.00  0.00    +0.000 N 
ATOM      4  H   UNL     1       1.049   8.716  20.255  0.00  0.00    +0.000 HD
ENDROOT
BRANCH   3   5
ATOM      5  C   UNL     1       0.362  10.547  19.410  0.00  0.00    +0.000 C 
ATOM      6  C   UNL     1      -0.801  10.627  18.389  0.00  0.00    +0.000 C 
ATOM      7  C   UNL     1      -1.498  11.997  18.463  0.00  0.00    +0.000 C 
ATOM      8  C   UNL     1      -2.070  12.197  19.875  0.00  0.00    +0.000 C 
ATOM      9  C   UNL     1      -0.936  12.149  20.911  0.00  0.00    +0.000 C 
ATOM     10  C   UNL     1       0.075  13.265  20.603  0.00  0.00    +0.000 C 
ATOM     11  C   UNL     1       0.665  13.063  19.199  0.00  0.00    +0.000 C 
ATOM     12  C   UNL     1      -0.471  13.103  18.164  0.00  0.00    +0.000 C 
ATOM     13  C   UNL     1       1.368  11.695  19.132  0.00  0.00    +0.000 C 
ATOM     14  C   UNL     1      -0.230  10.784  20.826  0.00  0.00    +0.000 C 
ENDBRANCH   3   5
BRANCH   1  17
ATOM     15  C   UNL     1       2.802   5.512  19.931  0.00  0.00    +0.000 A 
ATOM     16  C   UNL     1       2.248   6.781  19.717  0.00  0.00    +0.000 A 
ATOM     17  C   UNL     1       2.575   7.527  18.587  0.00  0.00    +0.000 A 
ATOM     18  C   UNL     1       3.548   7.044  17.717  0.00  0.00    +0.000 A 
ATOM     19  C   UNL     1       4.188   5.813  17.962  0.00  0.00    +0.000 A 
ATOM     20  C   UNL     1       3.815   5.024  19.075  0.00  0.00    +0.000 A 
BRANCH  15  22
ATOM     21  C   UNL     1       1.262   3.912  20.763  0.00  0.00    +0.000 C 
ATOM     22  O   UNL     1       2.386   4.764  21.005  0.00  0.00    +0.000 OA
ENDBRANCH  15  22
BRANCH  19  23
ATOM     23  O   UNL     1       5.129   5.545  16.996  0.00  0.00    +0.000 OA
ATOM     24  C   UNL     1       5.219   6.380  15.849  0.00  0.00    +0.000 C 
ENDBRANCH  19  23
BRANCH  20  25
ATOM     25  O   UNL     1       4.488   3.842  19.228  0.00  0.00    +0.000 OA
ATOM     26  C   UNL     1       3.985   2.634  18.676  0.00  0.00    +0.000 C 
ENDBRANCH  20  25
ENDBRANCH   1  17
TORSDOF 5
ENDMDL
