MODEL 1
REMARK VINA RESULT:      -8.0      0.000      0.000
REMARK  Name = 
REMARK  6 active torsions:
REMARK  status: ('A' for Active; 'I' for Inactive)
REMARK    1  A    between atoms: C_1  and  N_2
REMARK    2  A    between atoms: N_2  and  C_3
REMARK    3  A    between atoms: N_2  and  C_12
REMARK    4  A    between atoms: C_15  and  C_16
REMARK    5  A    between atoms: C_16  and  S_17
REMARK    6  A    between atoms: S_17  and  N_20
REMARK                            x       y       z     vdW  Elec       q    Type
REMARK                         _______ _______ _______ _____ _____    ______ ____
ROOT
ATOM      1  C   UNL     1       0.971   8.445  19.950  0.00  0.00    +0.000 C 
ATOM      2  C   UNL     1       2.067   8.583  18.875  0.00  0.00    +0.000 C 
ATOM      3  C   UNL     1       2.456   7.228  18.271  0.00  0.00    +0.000 C 
ATOM      4  C   UNL     1       2.876   6.210  19.351  0.00  0.00    +0.000 C 
ATOM      5  C   UNL     1       1.790   6.111  20.425  0.00  0.00    +0.000 C 
ATOM      6  C   UNL     1       1.452   7.466  21.021  0.00  0.00    +0.000 C 
ENDROOT
BRANCH   1   8
ATOM      7  C   UNL     1       0.969   9.970  21.979  0.00  0.00    +0.000 C 
ATOM      8  N   UNL     1       0.623   9.723  20.586  0.00  0.00    +0.000 N 
BRANCH   8   9
ATOM      9  C   UNL     1       0.521  10.850  19.773  0.00  0.00    +0.000 A 
ATOM     10  N   UNL     1       1.374  11.894  19.972  0.00  0.00    +0.000 NA
ATOM     11  C   UNL     1       1.214  13.024  19.253  0.00  0.00    +0.000 A 
ATOM     12  N   UNL     1       0.266  13.305  18.343  0.00  0.00    +0.000 NA
ATOM     13  C   UNL     1      -0.563  12.267  18.178  0.00  0.00    +0.000 A 
ATOM     14  N   UNL     1      -1.659  12.284  17.356  0.00  0.00    +0.000 N 
ATOM     15  C   UNL     1      -2.299  11.072  17.408  0.00  0.00    +0.000 A 
ATOM     16  C   UNL     1      -1.598  10.283  18.292  0.00  0.00    +0.000 A 
ATOM     17  C   UNL     1      -0.499  11.031  18.808  0.00  0.00    +0.000 A 
ATOM     18  H   UNL     1      -1.946  13.090  16.821  0.00  0.00    +0.000 HD
ENDBRANCH   8   9
ENDBRANCH   1   8
BRANCH   4  19
ATOM     19  C   UNL     1       3.198   4.828  18.731  0.00  0.00    +0.000 C 
BRANCH  19  20
ATOM     20  S   UNL     1       4.922   4.360  19.019  0.00  0.00    +0.000 S 
ATOM     21  O   UNL     1       5.588   5.488  19.639  0.00  0.00    +0.000 OA
ATOM     22  O   UNL     1       4.973   3.051  19.633  0.00  0.00    +0.000 OA
BRANCH  20  23
ATOM     23  N   UNL     1       5.623   4.181  17.493  0.00  0.00    +0.000 NA
ATOM     24  C   UNL     1       4.805   4.379  16.280  0.00  0.00    +0.000 C 
ATOM     25  C   UNL     1       5.462   5.497  15.488  0.00  0.00    +0.000 C 
ATOM     26  C   UNL     1       6.915   5.418  15.883  0.00  0.00    +0.000 C 
ATOM     27  F   UNL     1       7.522   4.441  15.161  0.00  0.00    +0.000 F 
ATOM     28  C   UNL     1       6.865   5.020  17.348  0.00  0.00    +0.000 C 
ENDBRANCH  20  23
ENDBRANCH  19  20
ENDBRANCH   4  19
TORSDOF 5
ENDMDL
MODEL 2
REMARK VINA RESULT:      -8.0      2.354      3.248
REMARK  Name = 
REMARK  6 active torsions:
REMARK  status: ('A' for Active; 'I' for Inactive)
REMARK    1  A    between atoms: C_1  and  N_2
REMARK    2  A    between atoms: N_2  and  C_3
REMARK    3  A    between atoms: N_2  and  C_12
REMARK    4  A    between atoms: C_15  and  C_16
REMARK    5  A    between atoms: C_16  and  S_17
REMARK    6  A    between atoms: S_17  and  N_20
REMARK                            x       y       z     vdW  Elec       q    Type
REMARK                         _______ _______ _______ _____ _____    ______ ____
ROOT
ATOM      1  C   UNL     1       1.578   8.895  19.670  0.00  0.00    +0.000 C 
ATOM      2  C   UNL     1       1.669   7.477  20.269  0.00  0.00    +0.000 C 
ATOM      3  C   UNL     1       2.935   6.740  19.814  0.00  0.00    +0.000 C 
ATOM      4  C   UNL     1       3.058   6.691  18.278  0.00  0.00    +0.000 C 
ATOM      5  C   UNL     1       2.934   8.103  17.700  0.00  0.00    +0.000 C 
ATOM      6  C   UNL     1       1.656   8.790  18.146  0.00  0.00    +0.000 C 
ENDROOT
BRANCH   1   8
ATOM      7  C   UNL     1      -0.157   9.534  21.408  0.00  0.00    +0.000 C 
ATOM      8  N   UNL     1       0.345   9.601  20.042  0.00  0.00    +0.000 N 
BRANCH   8   9
ATOM      9  C   UNL     1       0.004  10.743  19.321  0.00  0.00    +0.000 A 
ATOM     10  N   UNL     1       0.707  11.893  19.523  0.00  0.00    +0.000 NA
ATOM     11  C   UNL     1       0.317  13.024  18.900  0.00  0.00    +0.000 A 
ATOM     12  N   UNL     1      -0.740  13.207  18.093  0.00  0.00    +0.000 NA
ATOM     13  C   UNL     1      -1.418  12.066  17.923  0.00  0.00    +0.000 A 
ATOM     14  N   UNL     1      -2.575  11.962  17.196  0.00  0.00    +0.000 N 
ATOM     15  C   UNL     1      -3.022  10.664  17.215  0.00  0.00    +0.000 A 
ATOM     16  C   UNL     1      -2.134   9.943  17.981  0.00  0.00    +0.000 A 
ATOM     17  C   UNL     1      -1.115  10.821  18.457  0.00  0.00    +0.000 A 
ATOM     18  H   UNL     1      -3.025  12.743  16.744  0.00  0.00    +0.000 HD
ENDBRANCH   8   9
ENDBRANCH   1   8
BRANCH   4  19
ATOM     19  C   UNL     1       4.375   6.004  17.838  0.00  0.00    +0.000 C 
BRANCH  19  20
ATOM     20  S   UNL     1       4.329   4.223  18.153  0.00  0.00    +0.000 S 
ATOM     21  O   UNL     1       4.266   3.550  16.871  0.00  0.00    +0.000 OA
ATOM     22  O   UNL     1       5.351   3.874  19.115  0.00  0.00    +0.000 OA
BRANCH  20  23
ATOM     23  N   UNL     1       2.854   3.919  18.917  0.00  0.00    +0.000 NA
ATOM     24  C   UNL     1       1.719   3.382  18.140  0.00  0.00    +0.000 C 
ATOM     25  C   UNL     1       1.331   2.063  18.787  0.00  0.00    +0.000 C 
ATOM     26  C   UNL     1       1.752   2.225  20.225  0.00  0.00    +0.000 C 
ATOM     27  F   UNL     1       0.800   2.925  20.894  0.00  0.00    +0.000 F 
ATOM     28  C   UNL     1       3.026   3.047  20.133  0.00  0.00    +0.000 C 
ENDBRANCH  20  23
ENDBRANCH  19  20
ENDBRANCH   4  19
TORSDOF 5
ENDMDL
MODEL 3
REMARK VINA RESULT:      -7.8      4.083      8.546
REMARK  Name = 
REMARK  6 active torsions:
REMARK  status: ('A' for Active; 'I' for Inactive)
REMARK    1  A    between atoms: C_1  and  N_2
REMARK    2  A    between atoms: N_2  and  C_3
REMARK    3  A    between atoms: N_2  and  C_12
REMARK    4  A    between atoms: C_15  and  C_16
REMARK    5  A    between atoms: C_16  and  S_17
REMARK    6  A    between atoms: S_17  and  N_20
REMARK                            x       y       z     vdW  Elec       q    Type
REMARK                         _______ _______ _______ _____ _____    ______ ____
ROOT
ATOM      1  C   UNL     1       2.987   5.191  19.078  0.00  0.00    +0.000 C 
ATOM      2  C   UNL     1       2.510   5.306  20.540  0.00  0.00    +0.000 C 
ATOM      3  C   UNL     1       1.434   6.385  20.712  0.00  0.00    +0.000 C 
ATOM      4  C   UNL     1       1.897   7.756  20.181  0.00  0.00    +0.000 C 
ATOM      5  C   UNL     1       2.397   7.617  18.741  0.00  0.00    +0.000 C 
ATOM      6  C   UNL     1       3.480   6.562  18.614  0.00  0.00    +0.000 C 
ENDROOT
BRANCH   1   8
ATOM      7  C   UNL     1       3.748   2.843  18.488  0.00  0.00    +0.000 C 
ATOM      8  N   UNL     1       4.061   4.205  18.898  0.00  0.00    +0.000 N 
BRANCH   8   9
ATOM      9  C   UNL     1       5.324   4.675  18.544  0.00  0.00    +0.000 A 
ATOM     10  N   UNL     1       6.168   5.117  19.519  0.00  0.00    +0.000 NA
ATOM     11  C   UNL     1       7.351   5.663  19.171  0.00  0.00    +0.000 A 
ATOM     12  N   UNL     1       7.837   5.881  17.938  0.00  0.00    +0.000 NA
ATOM     13  C   UNL     1       6.983   5.449  17.002  0.00  0.00    +0.000 A 
ATOM     14  N   UNL     1       7.186   5.590  15.655  0.00  0.00    +0.000 N 
ATOM     15  C   UNL     1       6.132   5.046  14.965  0.00  0.00    +0.000 A 
ATOM     16  C   UNL     1       5.243   4.566  15.901  0.00  0.00    +0.000 A 
ATOM     17  C   UNL     1       5.757   4.829  17.205  0.00  0.00    +0.000 A 
ATOM     18  H   UNL     1       7.987   6.053  15.254  0.00  0.00    +0.000 HD
ENDBRANCH   8   9
ENDBRANCH   1   8
BRANCH   4  19
ATOM     19  C   UNL     1       0.774   8.817  20.299  0.00  0.00    +0.000 C 
BRANCH  19  20
ATOM     20  S   UNL     1       0.669   9.483  21.979  0.00  0.00    +0.000 S 
ATOM     21  O   UNL     1      -0.551   8.980  22.577  0.00  0.00    +0.000 OA
ATOM     22  O   UNL     1       1.940   9.311  22.649  0.00  0.00    +0.000 OA
BRANCH  20  23
ATOM     23  N   UNL     1       0.458  11.150  21.812  0.00  0.00    +0.000 NA
ATOM     24  C   UNL     1       0.941  11.835  20.596  0.00  0.00    +0.000 C 
ATOM     25  C   UNL     1      -0.268  12.499  19.958  0.00  0.00    +0.000 C 
ATOM     26  C   UNL     1      -1.196  12.756  21.119  0.00  0.00    +0.000 C 
ATOM     27  F   UNL     1      -0.810  13.890  21.758  0.00  0.00    +0.000 F 
ATOM     28  C   UNL     1      -0.978  11.554  22.023  0.00  0.00    +0.000 C 
ENDBRANCH  20  23
ENDBRANCH  19  20
ENDBRANCH   4  19
TORSDOF 5
ENDMDL
MODEL 4
REMARK VINA RESULT:      -7.8      1.823      2.503
REMARK  Name = 
REMARK  6 active torsions:
REMARK  status: ('A' for Active; 'I' for Inactive)
REMARK    1  A    between atoms: C_1  and  N_2
REMARK    2  A    between atoms: N_2  and  C_3
REMARK    3  A    between atoms: N_2  and  C_12
REMARK    4  A    between atoms: C_15  and  C_16
REMARK    5  A    between atoms: C_16  and  S_17
REMARK    6  A    between atoms: S_17  and  N_20
REMARK                            x       y       z     vdW  Elec       q    Type
REMARK                         _______ _______ _______ _____ _____    ______ ____
ROOT
ATOM      1  C   UNL     1       1.294   8.490  19.253  0.00  0.00    +0.000 C 
ATOM      2  C   UNL     1       2.315   9.061  18.248  0.00  0.00    +0.000 C 
ATOM      3  C   UNL     1       2.975   7.960  17.408  0.00  0.00    +0.000 C 
ATOM      4  C   UNL     1       3.625   6.872  18.285  0.00  0.00    +0.000 C 
ATOM      5  C   UNL     1       2.606   6.340  19.297  0.00  0.00    +0.000 C 
ATOM      6  C   UNL     1       1.997   7.452  20.129  0.00  0.00    +0.000 C 
ENDROOT
BRANCH   1   8
ATOM      7  C   UNL     1       0.968   9.540  21.540  0.00  0.00    +0.000 C 
ATOM      8  N   UNL     1       0.692   9.519  20.110  0.00  0.00    +0.000 N 
BRANCH   8   9
ATOM      9  C   UNL     1       0.374  10.746  19.531  0.00  0.00    +0.000 A 
ATOM     10  N   UNL     1       0.950  11.881  20.018  0.00  0.00    +0.000 NA
ATOM     11  C   UNL     1       0.570  13.078  19.526  0.00  0.00    +0.000 A 
ATOM     12  N   UNL     1      -0.369  13.338  18.601  0.00  0.00    +0.000 NA
ATOM     13  C   UNL     1      -0.926  12.207  18.151  0.00  0.00    +0.000 A 
ATOM     14  N   UNL     1      -1.951  12.165  17.245  0.00  0.00    +0.000 N 
ATOM     15  C   UNL     1      -2.296  10.861  16.990  0.00  0.00    +0.000 A 
ATOM     16  C   UNL     1      -1.477  10.069  17.765  0.00  0.00    +0.000 A 
ATOM     17  C   UNL     1      -0.609  10.907  18.526  0.00  0.00    +0.000 A 
ATOM     18  H   UNL     1      -2.390  12.986  16.855  0.00  0.00    +0.000 HD
ENDBRANCH   8   9
ENDBRANCH   1   8
BRANCH   4  19
ATOM     19  C   UNL     1       4.225   5.734  17.422  0.00  0.00    +0.000 C 
BRANCH  19  20
ATOM     20  S   UNL     1       5.545   4.863  18.304  0.00  0.00    +0.000 S 
ATOM     21  O   UNL     1       6.635   4.654  17.372  0.00  0.00    +0.000 OA
ATOM     22  O   UNL     1       5.782   5.506  19.578  0.00  0.00    +0.000 OA
BRANCH  20  23
ATOM     23  N   UNL     1       4.937   3.331  18.667  0.00  0.00    +0.000 NA
ATOM     24  C   UNL     1       4.352   3.067  19.997  0.00  0.00    +0.000 C 
ATOM     25  C   UNL     1       2.918   2.623  19.765  0.00  0.00    +0.000 C 
ATOM     26  C   UNL     1       2.946   2.006  18.390  0.00  0.00    +0.000 C 
ATOM     27  F   UNL     1       3.409   0.732  18.480  0.00  0.00    +0.000 F 
ATOM     28  C   UNL     1       3.945   2.865  17.633  0.00  0.00    +0.000 C 
ENDBRANCH  20  23
ENDBRANCH  19  20
ENDBRANCH   4  19
TORSDOF 5
ENDMDL
MODEL 5
REMARK VINA RESULT:      -7.7      1.728      2.251
REMARK  Name = 
REMARK  6 active torsions:
REMARK  status: ('A' for Active; 'I' for Inactive)
REMARK    1  A    between atoms: C_1  and  N_2
REMARK    2  A    between atoms: N_2  and  C_3
REMARK    3  A    between atoms: N_2  and  C_12
REMARK    4  A    between atoms: C_15  and  C_16
REMARK    5  A    between atoms: C_16  and  S_17
REMARK    6  A    between atoms: S_17  and  N_20
REMARK                            x       y       z     vdW  Elec       q    Type
REMARK                         _______ _______ _______ _____ _____    ______ ____
ROOT
ATOM      1  C   UNL     1       1.186   9.263  18.973  0.00  0.00    +0.000 C 
ATOM      2  C   UNL     1       2.165   8.720  17.912  0.00  0.00    +0.000 C 
ATOM      3  C   UNL     1       2.277   7.191  17.959  0.00  0.00    +0.000 C 
ATOM      4  C   UNL     1       2.658   6.681  19.363  0.00  0.00    +0.000 C 
ATOM      5  C   UNL     1       1.696   7.255  20.406  0.00  0.00    +0.000 C 
ATOM      6  C   UNL     1       1.633   8.770  20.350  0.00  0.00    +0.000 C 
ENDROOT
BRANCH   1   8
ATOM      7  C   UNL     1       2.095  11.528  18.277  0.00  0.00    +0.000 C 
ATOM      8  N   UNL     1       1.106  10.729  18.988  0.00  0.00    +0.000 N 
BRANCH   8   9
ATOM      9  C   UNL     1      -0.150  11.312  19.146  0.00  0.00    +0.000 A 
ATOM     10  N   UNL     1      -0.339  12.231  20.135  0.00  0.00    +0.000 NA
ATOM     11  C   UNL     1      -1.575  12.721  20.353  0.00  0.00    +0.000 A 
ATOM     12  N   UNL     1      -2.721  12.398  19.732  0.00  0.00    +0.000 NA
ATOM     13  C   UNL     1      -2.508  11.486  18.776  0.00  0.00    +0.000 A 
ATOM     14  N   UNL     1      -3.500  10.926  18.015  0.00  0.00    +0.000 N 
ATOM     15  C   UNL     1      -2.958  10.030  17.129  0.00  0.00    +0.000 A 
ATOM     16  C   UNL     1      -1.599  10.018  17.348  0.00  0.00    +0.000 A 
ATOM     17  C   UNL     1      -1.293  10.924  18.406  0.00  0.00    +0.000 A 
ATOM     18  H   UNL     1      -4.480  11.138  18.127  0.00  0.00    +0.000 HD
ENDBRANCH   8   9
ENDBRANCH   1   8
BRANCH   4  19
ATOM     19  C   UNL     1       2.699   5.133  19.411  0.00  0.00    +0.000 C 
BRANCH  19  20
ATOM     20  S   UNL     1       4.112   4.481  18.486  0.00  0.00    +0.000 S 
ATOM     21  O   UNL     1       4.647   3.359  19.230  0.00  0.00    +0.000 OA
ATOM     22  O   UNL     1       3.753   4.333  17.092  0.00  0.00    +0.000 OA
BRANCH  20  23
ATOM     23  N   UNL     1       5.298   5.682  18.531  0.00  0.00    +0.000 NA
ATOM     24  C   UNL     1       6.503   5.496  19.363  0.00  0.00    +0.000 C 
ATOM     25  C   UNL     1       7.698   5.574  18.427  0.00  0.00    +0.000 C 
ATOM     26  C   UNL     1       7.217   6.448  17.296  0.00  0.00    +0.000 C 
ATOM     27  F   UNL     1       7.319   7.751  17.663  0.00  0.00    +0.000 F 
ATOM     28  C   UNL     1       5.754   6.067  17.147  0.00  0.00    +0.000 C 
ENDBRANCH  20  23
ENDBRANCH  19  20
ENDBRANCH   4  19
TORSDOF 5
ENDMDL
MODEL 6
REMARK VINA RESULT:      -7.7      1.402      1.893
REMARK  Name = 
REMARK  6 active torsions:
REMARK  status: ('A' for Active; 'I' for Inactive)
REMARK    1  A    between atoms: C_1  and  N_2
REMARK    2  A    between atoms: N_2  and  C_3
REMARK    3  A    between atoms: N_2  and  C_12
REMARK    4  A    between atoms: C_15  and  C_16
REMARK    5  A    between atoms: C_16  and  S_17
REMARK    6  A    between atoms: S_17  and  N_20
REMARK                            x       y       z     vdW  Elec       q    Type
REMARK                         _______ _______ _______ _____ _____    ______ ____
ROOT
ATOM      1  C   UNL     1       1.059   9.307  19.031  0.00  0.00    +0.000 C 
ATOM      2  C   UNL     1       2.091   8.863  17.975  0.00  0.00    +0.000 C 
ATOM      3  C   UNL     1       2.290   7.342  17.968  0.00  0.00    +0.000 C 
ATOM      4  C   UNL     1       2.668   6.800  19.361  0.00  0.00    +0.000 C 
ATOM      5  C   UNL     1       1.650   7.277  20.400  0.00  0.00    +0.000 C 
ATOM      6  C   UNL     1       1.502   8.788  20.399  0.00  0.00    +0.000 C 
ENDROOT
BRANCH   1   8
ATOM      7  C   UNL     1       1.897  11.647  18.515  0.00  0.00    +0.000 C 
ATOM      8  N   UNL     1       0.895  10.765  19.098  0.00  0.00    +0.000 N 
BRANCH   8   9
ATOM      9  C   UNL     1      -0.402  11.273  19.163  0.00  0.00    +0.000 A 
ATOM     10  N   UNL     1      -0.727  12.145  20.159  0.00  0.00    +0.000 NA
ATOM     11  C   UNL     1      -2.003  12.559  20.283  0.00  0.00    +0.000 A 
ATOM     12  N   UNL     1      -3.071  12.196  19.555  0.00  0.00    +0.000 NA
ATOM     13  C   UNL     1      -2.725  11.331  18.594  0.00  0.00    +0.000 A 
ATOM     14  N   UNL     1      -3.614  10.746  17.732  0.00  0.00    +0.000 N 
ATOM     15  C   UNL     1      -2.948   9.912  16.869  0.00  0.00    +0.000 A 
ATOM     16  C   UNL     1      -1.614   9.967  17.206  0.00  0.00    +0.000 A 
ATOM     17  C   UNL     1      -1.453  10.850  18.314  0.00  0.00    +0.000 A 
ATOM     18  H   UNL     1      -4.611  10.900  17.763  0.00  0.00    +0.000 HD
ENDBRANCH   8   9
ENDBRANCH   1   8
BRANCH   4  19
ATOM     19  C   UNL     1       2.796   5.256  19.351  0.00  0.00    +0.000 C 
BRANCH  19  20
ATOM     20  S   UNL     1       4.488   4.736  18.971  0.00  0.00    +0.000 S 
ATOM     21  O   UNL     1       5.391   5.643  19.650  0.00  0.00    +0.000 OA
ATOM     22  O   UNL     1       4.608   3.306  19.154  0.00  0.00    +0.000 OA
BRANCH  20  23
ATOM     23  N   UNL     1       4.703   5.008  17.318  0.00  0.00    +0.000 NA
ATOM     24  C   UNL     1       5.659   6.037  16.861  0.00  0.00    +0.000 C 
ATOM     25  C   UNL     1       6.681   5.327  15.988  0.00  0.00    +0.000 C 
ATOM     26  C   UNL     1       5.928   4.144  15.435  0.00  0.00    +0.000 C 
ATOM     27  F   UNL     1       5.182   4.544  14.373  0.00  0.00    +0.000 F 
ATOM     28  C   UNL     1       5.017   3.733  16.580  0.00  0.00    +0.000 C 
ENDBRANCH  20  23
ENDBRANCH  19  20
ENDBRANCH   4  19
TORSDOF 5
ENDMDL
MODEL 7
REMARK VINA RESULT:      -7.7      4.306      8.917
REMARK  Name = 
REMARK  6 active torsions:
REMARK  status: ('A' for Active; 'I' for Inactive)
REMARK    1  A    between atoms: C_1  and  N_2
REMARK    2  A    between atoms: N_2  and  C_3
REMARK    3  A    between atoms: N_2  and  C_12
REMARK    4  A    between atoms: C_15  and  C_16
REMARK    5  A    between atoms: C_16  and  S_17
REMARK    6  A    between atoms: S_17  and  N_20
REMARK                            x       y       z     vdW  Elec       q    Type
REMARK                         _______ _______ _______ _____ _____    ______ ____
ROOT
ATOM      1  C   UNL     1       2.534   5.264  19.064  0.00  0.00    +0.000 C 
ATOM      2  C   UNL     1       2.165   5.450  20.549  0.00  0.00    +0.000 C 
ATOM      3  C   UNL     1       1.235   6.651  20.766  0.00  0.00    +0.000 C 
ATOM      4  C   UNL     1       1.823   7.952  20.183  0.00  0.00    +0.000 C 
ATOM      5  C   UNL     1       2.213   7.738  18.719  0.00  0.00    +0.000 C 
ATOM      6  C   UNL     1       3.155   6.561  18.546  0.00  0.00    +0.000 C 
ENDROOT
BRANCH   1   8
ATOM      7  C   UNL     1       3.054   2.780  19.069  0.00  0.00    +0.000 C 
ATOM      8  N   UNL     1       3.471   4.156  18.837  0.00  0.00    +0.000 N 
BRANCH   8   9
ATOM      9  C   UNL     1       4.479   4.337  17.892  0.00  0.00    +0.000 A 
ATOM     10  N   UNL     1       4.277   3.913  16.613  0.00  0.00    +0.000 NA
ATOM     11  C   UNL     1       5.286   3.998  15.722  0.00  0.00    +0.000 A 
ATOM     12  N   UNL     1       6.542   4.429  15.924  0.00  0.00    +0.000 NA
ATOM     13  C   UNL     1       6.714   4.827  17.190  0.00  0.00    +0.000 A 
ATOM     14  N   UNL     1       7.908   5.263  17.702  0.00  0.00    +0.000 N 
ATOM     15  C   UNL     1       7.755   5.597  19.024  0.00  0.00    +0.000 A 
ATOM     16  C   UNL     1       6.440   5.351  19.352  0.00  0.00    +0.000 A 
ATOM     17  C   UNL     1       5.764   4.843  18.204  0.00  0.00    +0.000 A 
ATOM     18  H   UNL     1       8.765   5.300  17.171  0.00  0.00    +0.000 HD
ENDBRANCH   8   9
ENDBRANCH   1   8
BRANCH   4  19
ATOM     19  C   UNL     1       0.842   9.140  20.349  0.00  0.00    +0.000 C 
BRANCH  19  20
ATOM     20  S   UNL     1       0.559   9.524  22.095  0.00  0.00    +0.000 S 
ATOM     21  O   UNL     1      -0.595   8.764  22.532  0.00  0.00    +0.000 OA
ATOM     22  O   UNL     1       1.810   9.439  22.818  0.00  0.00    +0.000 OA
BRANCH  20  23
ATOM     23  N   UNL     1       0.103  11.148  22.152  0.00  0.00    +0.000 NA
ATOM     24  C   UNL     1      -0.012  11.924  20.901  0.00  0.00    +0.000 C 
ATOM     25  C   UNL     1      -1.444  12.429  20.829  0.00  0.00    +0.000 C 
ATOM     26  C   UNL     1      -1.869  12.523  22.272  0.00  0.00    +0.000 C 
ATOM     27  F   UNL     1      -1.403  13.683  22.801  0.00  0.00    +0.000 F 
ATOM     28  C   UNL     1      -1.174  11.341  22.927  0.00  0.00    +0.000 C 
ENDBRANCH  20  23
ENDBRANCH  19  20
ENDBRANCH   4  19
TORSDOF 5
ENDMDL
MODEL 8
REMARK VINA RESULT:      -7.6      1.354      1.692
REMARK  Name = 
REMARK  6 active torsions:
REMARK  status: ('A' for Active; 'I' for Inactive)
REMARK    1  A    between atoms: C_1  and  N_2
REMARK    2  A    between atoms: N_2  and  C_3
REMARK    3  A    between atoms: N_2  and  C_12
REMARK    4  A    between atoms: C_15  and  C_16
REMARK    5  A    between atoms: C_16  and  S_17
REMARK    6  A    between atoms: S_17  and  N_20
REMARK                            x       y       z     vdW  Elec       q    Type
REMARK                         _______ _______ _______ _____ _____    ______ ____
ROOT
ATOM      1  C   UNL     1       1.053   8.346  19.859  0.00  0.00    +0.000 C 
ATOM      2  C   UNL     1       2.080   8.497  18.720  0.00  0.00    +0.000 C 
ATOM      3  C   UNL     1       2.360   7.164  18.014  0.00  0.00    +0.000 C 
ATOM      4  C   UNL     1       2.800   6.066  19.003  0.00  0.00    +0.000 C 
ATOM      5  C   UNL     1       1.785   5.952  20.142  0.00  0.00    +0.000 C 
ATOM      6  C   UNL     1       1.556   7.282  20.836  0.00  0.00    +0.000 C 
ENDROOT
BRANCH   1   8
ATOM      7  C   UNL     1       1.256   9.742  21.969  0.00  0.00    +0.000 C 
ATOM      8  N   UNL     1       0.812   9.597  20.589  0.00  0.00    +0.000 N 
BRANCH   8   9
ATOM      9  C   UNL     1       0.720  10.775  19.851  0.00  0.00    +0.000 A 
ATOM     10  N   UNL     1       1.589  11.794  20.109  0.00  0.00    +0.000 NA
ATOM     11  C   UNL     1       1.438  12.969  19.465  0.00  0.00    +0.000 A 
ATOM     12  N   UNL     1       0.488  13.320  18.584  0.00  0.00    +0.000 NA
ATOM     13  C   UNL     1      -0.357  12.307  18.360  0.00  0.00    +0.000 A 
ATOM     14  N   UNL     1      -1.459  12.391  17.550  0.00  0.00    +0.000 N 
ATOM     15  C   UNL     1      -2.116  11.187  17.530  0.00  0.00    +0.000 A 
ATOM     16  C   UNL     1      -1.418  10.333  18.355  0.00  0.00    +0.000 A 
ATOM     17  C   UNL     1      -0.305  11.032  18.908  0.00  0.00    +0.000 A 
ATOM     18  H   UNL     1      -1.739  13.233  17.071  0.00  0.00    +0.000 HD
ENDBRANCH   8   9
ENDBRANCH   1   8
BRANCH   4  19
ATOM     19  C   UNL     1       3.011   4.709  18.284  0.00  0.00    +0.000 C 
BRANCH  19  20
ATOM     20  S   UNL     1       4.762   4.257  18.228  0.00  0.00    +0.000 S 
ATOM     21  O   UNL     1       5.049   3.456  19.402  0.00  0.00    +0.000 OA
ATOM     22  O   UNL     1       5.094   3.767  16.907  0.00  0.00    +0.000 OA
BRANCH  20  23
ATOM     23  N   UNL     1       5.626   5.695  18.417  0.00  0.00    +0.000 NA
ATOM     24  C   UNL     1       6.769   5.749  19.351  0.00  0.00    +0.000 C 
ATOM     25  C   UNL     1       7.985   6.148  18.531  0.00  0.00    +0.000 C 
ATOM     26  C   UNL     1       7.408   6.943  17.387  0.00  0.00    +0.000 C 
ATOM     27  F   UNL     1       7.172   8.215  17.801  0.00  0.00    +0.000 F 
ATOM     28  C   UNL     1       6.092   6.243  17.094  0.00  0.00    +0.000 C 
ENDBRANCH  20  23
ENDBRANCH  19  20
ENDBRANCH   4  19
TORSDOF 5
ENDMDL
MODEL 9
REMARK VINA RESULT:      -7.6      1.463      2.312
REMARK  Name = 
REMARK  6 active torsions:
REMARK  status: ('A' for Active; 'I' for Inactive)
REMARK    1  A    between atoms: C_1  and  N_2
REMARK    2  A    between atoms: N_2  and  C_3
REMARK    3  A    between atoms: N_2  and  C_12
REMARK    4  A    between atoms: C_15  and  C_16
REMARK    5  A    between atoms: C_16  and  S_17
REMARK    6  A    between atoms: S_17  and  N_20
REMARK                            x       y       z     vdW  Elec       q    Type
REMARK                         _______ _______ _______ _____ _____    ______ ____
ROOT
ATOM      1  C   UNL     1       1.108   8.788  18.859  0.00  0.00    +0.000 C 
ATOM      2  C   UNL     1       2.250   8.450  17.880  0.00  0.00    +0.000 C 
ATOM      3  C   UNL     1       2.645   6.969  17.945  0.00  0.00    +0.000 C 
ATOM      4  C   UNL     1       3.006   6.527  19.377  0.00  0.00    +0.000 C 
ATOM      5  C   UNL     1       1.875   6.899  20.339  0.00  0.00    +0.000 C 
ATOM      6  C   UNL     1       1.532   8.376  20.269  0.00  0.00    +0.000 C 
ENDROOT
BRANCH   1   8
ATOM      7  C   UNL     1       1.748  11.221  18.526  0.00  0.00    +0.000 C 
ATOM      8  N   UNL     1       0.752  10.213  18.858  0.00  0.00    +0.000 N 
BRANCH   8   9
ATOM      9  C   UNL     1      -0.573  10.553  18.593  0.00  0.00    +0.000 A 
ATOM     10  N   UNL     1      -1.182  10.049  17.483  0.00  0.00    +0.000 NA
ATOM     11  C   UNL     1      -2.429  10.455  17.171  0.00  0.00    +0.000 A 
ATOM     12  N   UNL     1      -3.194  11.358  17.806  0.00  0.00    +0.000 NA
ATOM     13  C   UNL     1      -2.568  11.844  18.884  0.00  0.00    +0.000 A 
ATOM     14  N   UNL     1      -3.081  12.823  19.694  0.00  0.00    +0.000 N 
ATOM     15  C   UNL     1      -2.199  13.100  20.708  0.00  0.00    +0.000 A 
ATOM     16  C   UNL     1      -1.103  12.287  20.522  0.00  0.00    +0.000 A 
ATOM     17  C   UNL     1      -1.309  11.493  19.355  0.00  0.00    +0.000 A 
ATOM     18  H   UNL     1      -3.968  13.275  19.533  0.00  0.00    +0.000 HD
ENDBRANCH   8   9
ENDBRANCH   1   8
BRANCH   4  19
ATOM     19  C   UNL     1       3.335   5.014  19.436  0.00  0.00    +0.000 C 
BRANCH  19  20
ATOM     20  S   UNL     1       5.068   4.698  19.023  0.00  0.00    +0.000 S 
ATOM     21  O   UNL     1       5.871   5.701  19.693  0.00  0.00    +0.000 OA
ATOM     22  O   UNL     1       5.359   3.291  19.194  0.00  0.00    +0.000 OA
BRANCH  20  23
ATOM     23  N   UNL     1       5.221   5.002  17.369  0.00  0.00    +0.000 NA
ATOM     24  C   UNL     1       6.439   5.655  16.850  0.00  0.00    +0.000 C 
ATOM     25  C   UNL     1       7.053   4.697  15.842  0.00  0.00    +0.000 C 
ATOM     26  C   UNL     1       5.878   3.905  15.329  0.00  0.00    +0.000 C 
ATOM     27  F   UNL     1       5.236   4.625  14.373  0.00  0.00    +0.000 F 
ATOM     28  C   UNL     1       4.985   3.759  16.550  0.00  0.00    +0.000 C 
ENDBRANCH  20  23
ENDBRANCH  19  20
ENDBRANCH   4  19
TORSDOF 5
ENDMDL
