MODEL 1
REMARK VINA RESULT:      -6.3      0.000      0.000
REMARK  Name = 
REMARK  4 active torsions:
REMARK  status: ('A' for Active; 'I' for Inactive)
REMARK    1  A    between atoms: C_1  and  C_2
REMARK    2  A    between atoms: C_5  and  C_6
REMARK    3  A    between atoms: C_6  and  C_8
REMARK    4  A    between atoms: C_8  and  C_9
REMARK                            x       y       z     vdW  Elec       q    Type
REMARK                         _______ _______ _______ _____ _____    ______ ____
ROOT
ATOM      1  C   UNL     1       5.670   5.063  18.960  0.00  0.00    +0.000 C 
ATOM      2  O   UNL     1       6.634   5.096  19.724  0.00  0.00    +0.000 OA
ENDROOT
BRANCH   1   7
ATOM      3  C   UNL     1       6.385   3.918  13.313  0.00  0.00    +0.000 C 
ATOM      4  C   UNL     1       6.217   4.208  14.777  0.00  0.00    +0.000 A 
ATOM      5  C   UNL     1       7.299   4.653  15.547  0.00  0.00    +0.000 A 
ATOM      6  C   UNL     1       7.136   4.948  16.904  0.00  0.00    +0.000 A 
ATOM      7  C   UNL     1       5.884   4.788  17.510  0.00  0.00    +0.000 A 
ATOM      8  C   UNL     1       4.800   4.347  16.743  0.00  0.00    +0.000 A 
ATOM      9  C   UNL     1       4.967   4.052  15.387  0.00  0.00    +0.000 A 
ENDBRANCH   1   7
BRANCH   1  10
ATOM     10  C   UNL     1       4.263   5.402  19.441  0.00  0.00    +0.000 C 
BRANCH  10  11
ATOM     11  C   UNL     1       3.373   4.348  20.056  0.00  0.00    +0.000 C 
ATOM     12 CL   UNL     1       4.170   2.773  19.933  0.00  0.00    +0.000 Cl
ATOM     13  C   UNL     1       2.170   4.433  20.658  0.00  0.00    +0.000 C 
ATOM     14 CL   UNL     1       1.345   3.029  21.293  0.00  0.00    +0.000 Cl
ATOM     15 CL   UNL     1       1.312   5.911  20.913  0.00  0.00    +0.000 Cl
ENDBRANCH  10  11
ENDBRANCH   1  10
TORSDOF 3
ENDMDL
MODEL 2
REMARK VINA RESULT:      -6.3      3.286      5.574
REMARK  Name = 
REMARK  4 active torsions:
REMARK  status: ('A' for Active; 'I' for Inactive)
REMARK    1  A    between atoms: C_1  and  C_2
REMARK    2  A    between atoms: C_5  and  C_6
REMARK    3  A    between atoms: C_6  and  C_8
REMARK    4  A    between atoms: C_8  and  C_9
REMARK                            x       y       z     vdW  Elec       q    Type
REMARK                         _______ _______ _______ _____ _____    ______ ____
ROOT
ATOM      1  C   UNL     1       3.464   7.007  17.575  0.00  0.00    +0.000 C 
ATOM      2  O   UNL     1       3.103   8.170  17.755  0.00  0.00    +0.000 OA
ENDROOT
BRANCH   1   7
ATOM      3  C   UNL     1       1.183   2.757  20.807  0.00  0.00    +0.000 C 
ATOM      4  C   UNL     1       1.772   3.867  19.986  0.00  0.00    +0.000 A 
ATOM      5  C   UNL     1       2.675   4.774  20.554  0.00  0.00    +0.000 A 
ATOM      6  C   UNL     1       3.244   5.793  19.782  0.00  0.00    +0.000 A 
ATOM      7  C   UNL     1       2.904   5.920  18.430  0.00  0.00    +0.000 A 
ATOM      8  C   UNL     1       2.005   5.013  17.858  0.00  0.00    +0.000 A 
ATOM      9  C   UNL     1       1.438   3.997  18.633  0.00  0.00    +0.000 A 
ENDBRANCH   1   7
BRANCH   1  10
ATOM     10  C   UNL     1       4.553   6.659  16.567  0.00  0.00    +0.000 C 
BRANCH  10  11
ATOM     11  C   UNL     1       5.628   5.650  16.894  0.00  0.00    +0.000 C 
ATOM     12 CL   UNL     1       5.069   4.037  16.426  0.00  0.00    +0.000 Cl
ATOM     13  C   UNL     1       6.858   5.793  17.424  0.00  0.00    +0.000 C 
ATOM     14 CL   UNL     1       7.917   4.432  17.703  0.00  0.00    +0.000 Cl
ATOM     15 CL   UNL     1       7.559   7.312  17.858  0.00  0.00    +0.000 Cl
ENDBRANCH  10  11
ENDBRANCH   1  10
TORSDOF 3
ENDMDL
MODEL 3
REMARK VINA RESULT:      -6.3      2.708      3.861
REMARK  Name = 
REMARK  4 active torsions:
REMARK  status: ('A' for Active; 'I' for Inactive)
REMARK    1  A    between atoms: C_1  and  C_2
REMARK    2  A    between atoms: C_5  and  C_6
REMARK    3  A    between atoms: C_6  and  C_8
REMARK    4  A    between atoms: C_8  and  C_9
REMARK                            x       y       z     vdW  Elec       q    Type
REMARK                         _______ _______ _______ _____ _____    ______ ____
ROOT
ATOM      1  C   UNL     1       5.098   4.295  19.231  0.00  0.00    +0.000 C 
ATOM      2  O   UNL     1       6.327   4.364  19.215  0.00  0.00    +0.000 OA
ENDROOT
BRANCH   1   7
ATOM      3  C   UNL     1       1.839   8.896  17.847  0.00  0.00    +0.000 C 
ATOM      4  C   UNL     1       2.683   7.703  18.187  0.00  0.00    +0.000 A 
ATOM      5  C   UNL     1       3.725   7.299  17.342  0.00  0.00    +0.000 A 
ATOM      6  C   UNL     1       4.527   6.202  17.672  0.00  0.00    +0.000 A 
ATOM      7  C   UNL     1       4.287   5.488  18.852  0.00  0.00    +0.000 A 
ATOM      8  C   UNL     1       3.249   5.891  19.701  0.00  0.00    +0.000 A 
ATOM      9  C   UNL     1       2.448   6.987  19.366  0.00  0.00    +0.000 A 
ENDBRANCH   1   7
BRANCH   1  10
ATOM     10  C   UNL     1       4.378   3.048  19.732  0.00  0.00    +0.000 C 
BRANCH  10  11
ATOM     11  C   UNL     1       3.041   2.637  19.163  0.00  0.00    +0.000 C 
ATOM     12 CL   UNL     1       3.255   2.150  17.475  0.00  0.00    +0.000 Cl
ATOM     13  C   UNL     1       1.815   2.569  19.718  0.00  0.00    +0.000 C 
ATOM     14 CL   UNL     1       0.411   2.050  18.815  0.00  0.00    +0.000 Cl
ATOM     15 CL   UNL     1       1.473   2.941  21.370  0.00  0.00    +0.000 Cl
ENDBRANCH  10  11
ENDBRANCH   1  10
TORSDOF 3
ENDMDL
MODEL 4
REMARK VINA RESULT:      -6.3      0.152      1.256
REMARK  Name = 
REMARK  4 active torsions:
REMARK  status: ('A' for Active; 'I' for Inactive)
REMARK    1  A    between atoms: C_1  and  C_2
REMARK    2  A    between atoms: C_5  and  C_6
REMARK    3  A    between atoms: C_6  and  C_8
REMARK    4  A    between atoms: C_8  and  C_9
REMARK                            x       y       z     vdW  Elec       q    Type
REMARK                         _______ _______ _______ _____ _____    ______ ____
ROOT
ATOM      1  C   UNL     1       5.709   4.948  18.843  0.00  0.00    +0.000 C 
ATOM      2  O   UNL     1       6.702   4.933  19.571  0.00  0.00    +0.000 OA
ENDROOT
BRANCH   1   7
ATOM      3  C   UNL     1       6.395   3.889  13.176  0.00  0.00    +0.000 C 
ATOM      4  C   UNL     1       6.201   4.168  14.638  0.00  0.00    +0.000 A 
ATOM      5  C   UNL     1       4.964   3.936  15.252  0.00  0.00    +0.000 A 
ATOM      6  C   UNL     1       4.790   4.172  16.620  0.00  0.00    +0.000 A 
ATOM      7  C   UNL     1       5.856   4.656  17.388  0.00  0.00    +0.000 A 
ATOM      8  C   UNL     1       7.095   4.886  16.779  0.00  0.00    +0.000 A 
ATOM      9  C   UNL     1       7.263   4.650  15.411  0.00  0.00    +0.000 A 
ENDBRANCH   1   7
BRANCH   1  10
ATOM     10  C   UNL     1       4.341   5.364  19.373  0.00  0.00    +0.000 C 
BRANCH  10  11
ATOM     11  C   UNL     1       3.406   4.357  19.998  0.00  0.00    +0.000 C 
ATOM     12 CL   UNL     1       4.131   2.747  19.885  0.00  0.00    +0.000 Cl
ATOM     13  C   UNL     1       2.211   4.501  20.603  0.00  0.00    +0.000 C 
ATOM     14 CL   UNL     1       1.325   3.141  21.251  0.00  0.00    +0.000 Cl
ATOM     15 CL   UNL     1       1.422   6.018  20.849  0.00  0.00    +0.000 Cl
ENDBRANCH  10  11
ENDBRANCH   1  10
TORSDOF 3
ENDMDL
MODEL 5
REMARK VINA RESULT:      -6.3      3.187      5.732
REMARK  Name = 
REMARK  4 active torsions:
REMARK  status: ('A' for Active; 'I' for Inactive)
REMARK    1  A    between atoms: C_1  and  C_2
REMARK    2  A    between atoms: C_5  and  C_6
REMARK    3  A    between atoms: C_6  and  C_8
REMARK    4  A    between atoms: C_8  and  C_9
REMARK                            x       y       z     vdW  Elec       q    Type
REMARK                         _______ _______ _______ _____ _____    ______ ____
ROOT
ATOM      1  C   UNL     1       3.321   7.212  17.691  0.00  0.00    +0.000 C 
ATOM      2  O   UNL     1       3.020   8.375  17.959  0.00  0.00    +0.000 OA
ENDROOT
BRANCH   1   7
ATOM      3  C   UNL     1       1.083   2.902  20.874  0.00  0.00    +0.000 C 
ATOM      4  C   UNL     1       1.667   4.004  20.039  0.00  0.00    +0.000 A 
ATOM      5  C   UNL     1       1.582   3.964  18.641  0.00  0.00    +0.000 A 
ATOM      6  C   UNL     1       2.103   5.003  17.864  0.00  0.00    +0.000 A 
ATOM      7  C   UNL     1       2.727   6.094  18.480  0.00  0.00    +0.000 A 
ATOM      8  C   UNL     1       2.810   6.140  19.877  0.00  0.00    +0.000 A 
ATOM      9  C   UNL     1       2.289   5.098  20.650  0.00  0.00    +0.000 A 
ENDBRANCH   1   7
BRANCH   1  10
ATOM     10  C   UNL     1       4.373   6.885  16.637  0.00  0.00    +0.000 C 
BRANCH  10  11
ATOM     11  C   UNL     1       5.687   6.244  17.015  0.00  0.00    +0.000 C 
ATOM     12 CL   UNL     1       6.839   7.510  17.465  0.00  0.00    +0.000 Cl
ATOM     13  C   UNL     1       6.067   4.953  17.078  0.00  0.00    +0.000 C 
ATOM     14 CL   UNL     1       7.680   4.480  17.556  0.00  0.00    +0.000 Cl
ATOM     15 CL   UNL     1       5.028   3.615  16.740  0.00  0.00    +0.000 Cl
ENDBRANCH  10  11
ENDBRANCH   1  10
TORSDOF 3
ENDMDL
MODEL 6
REMARK VINA RESULT:      -6.3      3.152      5.593
REMARK  Name = 
REMARK  4 active torsions:
REMARK  status: ('A' for Active; 'I' for Inactive)
REMARK    1  A    between atoms: C_1  and  C_2
REMARK    2  A    between atoms: C_5  and  C_6
REMARK    3  A    between atoms: C_6  and  C_8
REMARK    4  A    between atoms: C_8  and  C_9
REMARK                            x       y       z     vdW  Elec       q    Type
REMARK                         _______ _______ _______ _____ _____    ______ ____
ROOT
ATOM      1  C   UNL     1       3.392   7.150  17.654  0.00  0.00    +0.000 C 
ATOM      2  O   UNL     1       3.017   8.299  17.886  0.00  0.00    +0.000 OA
ENDROOT
BRANCH   1   7
ATOM      3  C   UNL     1       1.191   2.727  20.704  0.00  0.00    +0.000 C 
ATOM      4  C   UNL     1       1.759   3.881  19.931  0.00  0.00    +0.000 A 
ATOM      5  C   UNL     1       2.592   4.819  20.553  0.00  0.00    +0.000 A 
ATOM      6  C   UNL     1       3.141   5.879  19.826  0.00  0.00    +0.000 A 
ATOM      7  C   UNL     1       2.852   6.019  18.463  0.00  0.00    +0.000 A 
ATOM      8  C   UNL     1       2.022   5.082  17.837  0.00  0.00    +0.000 A 
ATOM      9  C   UNL     1       1.473   4.024  18.568  0.00  0.00    +0.000 A 
ENDBRANCH   1   7
BRANCH   1  10
ATOM     10  C   UNL     1       4.479   6.860  16.625  0.00  0.00    +0.000 C 
BRANCH  10  11
ATOM     11  C   UNL     1       5.784   6.216  17.028  0.00  0.00    +0.000 C 
ATOM     12 CL   UNL     1       6.955   7.482  17.427  0.00  0.00    +0.000 Cl
ATOM     13  C   UNL     1       6.147   4.923  17.141  0.00  0.00    +0.000 C 
ATOM     14 CL   UNL     1       7.753   4.446  17.635  0.00  0.00    +0.000 Cl
ATOM     15 CL   UNL     1       5.088   3.588  16.856  0.00  0.00    +0.000 Cl
ENDBRANCH  10  11
ENDBRANCH   1  10
TORSDOF 3
ENDMDL
MODEL 7
REMARK VINA RESULT:      -6.2      2.805      4.048
REMARK  Name = 
REMARK  4 active torsions:
REMARK  status: ('A' for Active; 'I' for Inactive)
REMARK    1  A    between atoms: C_1  and  C_2
REMARK    2  A    between atoms: C_5  and  C_6
REMARK    3  A    between atoms: C_6  and  C_8
REMARK    4  A    between atoms: C_8  and  C_9
REMARK                            x       y       z     vdW  Elec       q    Type
REMARK                         _______ _______ _______ _____ _____    ______ ____
ROOT
ATOM      1  C   UNL     1       5.122   4.548  19.229  0.00  0.00    +0.000 C 
ATOM      2  O   UNL     1       6.285   4.786  19.555  0.00  0.00    +0.000 OA
ENDROOT
BRANCH   1   7
ATOM      3  C   UNL     1       1.637   8.979  17.837  0.00  0.00    +0.000 C 
ATOM      4  C   UNL     1       2.537   7.838  18.214  0.00  0.00    +0.000 A 
ATOM      5  C   UNL     1       2.355   7.154  19.423  0.00  0.00    +0.000 A 
ATOM      6  C   UNL     1       3.178   6.075  19.762  0.00  0.00    +0.000 A 
ATOM      7  C   UNL     1       4.203   5.675  18.896  0.00  0.00    +0.000 A 
ATOM      8  C   UNL     1       4.384   6.354  17.686  0.00  0.00    +0.000 A 
ATOM      9  C   UNL     1       3.561   7.433  17.351  0.00  0.00    +0.000 A 
ENDBRANCH   1   7
BRANCH   1  10
ATOM     10  C   UNL     1       4.562   3.131  19.259  0.00  0.00    +0.000 C 
BRANCH  10  11
ATOM     11  C   UNL     1       3.104   2.860  18.973  0.00  0.00    +0.000 C 
ATOM     12 CL   UNL     1       2.864   2.771  17.222  0.00  0.00    +0.000 Cl
ATOM     13  C   UNL     1       2.052   2.668  19.793  0.00  0.00    +0.000 C 
ATOM     14 CL   UNL     1       0.441   2.369  19.186  0.00  0.00    +0.000 Cl
ATOM     15 CL   UNL     1       2.153   2.654  21.517  0.00  0.00    +0.000 Cl
ENDBRANCH  10  11
ENDBRANCH   1  10
TORSDOF 3
ENDMDL
MODEL 8
REMARK VINA RESULT:      -6.2      0.466      1.667
REMARK  Name = 
REMARK  4 active torsions:
REMARK  status: ('A' for Active; 'I' for Inactive)
REMARK    1  A    between atoms: C_1  and  C_2
REMARK    2  A    between atoms: C_5  and  C_6
REMARK    3  A    between atoms: C_6  and  C_8
REMARK    4  A    between atoms: C_8  and  C_9
REMARK                            x       y       z     vdW  Elec       q    Type
REMARK                         _______ _______ _______ _____ _____    ______ ____
ROOT
ATOM      1  C   UNL     1       5.408   5.233  18.869  0.00  0.00    +0.000 C 
ATOM      2  O   UNL     1       6.307   5.228  19.709  0.00  0.00    +0.000 OA
ENDROOT
BRANCH   1   7
ATOM      3  C   UNL     1       6.525   3.960  13.315  0.00  0.00    +0.000 C 
ATOM      4  C   UNL     1       6.252   4.283  14.756  0.00  0.00    +0.000 A 
ATOM      5  C   UNL     1       7.283   4.718  15.599  0.00  0.00    +0.000 A 
ATOM      6  C   UNL     1       7.024   5.042  16.934  0.00  0.00    +0.000 A 
ATOM      7  C   UNL     1       5.726   4.925  17.445  0.00  0.00    +0.000 A 
ATOM      8  C   UNL     1       4.692   4.494  16.605  0.00  0.00    +0.000 A 
ATOM      9  C   UNL     1       4.956   4.169  15.270  0.00  0.00    +0.000 A 
ENDBRANCH   1   7
BRANCH   1  10
ATOM     10  C   UNL     1       3.986   5.651  19.228  0.00  0.00    +0.000 C 
BRANCH  10  11
ATOM     11  C   UNL     1       3.105   4.772  20.082  0.00  0.00    +0.000 C 
ATOM     12 CL   UNL     1       1.808   5.754  20.778  0.00  0.00    +0.000 Cl
ATOM     13  C   UNL     1       3.146   3.451  20.347  0.00  0.00    +0.000 C 
ATOM     14 CL   UNL     1       1.980   2.674  21.391  0.00  0.00    +0.000 Cl
ATOM     15 CL   UNL     1       4.308   2.362  19.679  0.00  0.00    +0.000 Cl
ENDBRANCH  10  11
ENDBRANCH   1  10
TORSDOF 3
ENDMDL
MODEL 9
REMARK VINA RESULT:      -6.2      3.183      5.827
REMARK  Name = 
REMARK  4 active torsions:
REMARK  status: ('A' for Active; 'I' for Inactive)
REMARK    1  A    between atoms: C_1  and  C_2
REMARK    2  A    between atoms: C_5  and  C_6
REMARK    3  A    between atoms: C_6  and  C_8
REMARK    4  A    between atoms: C_8  and  C_9
REMARK                            x       y       z     vdW  Elec       q    Type
REMARK                         _______ _______ _______ _____ _____    ______ ____
ROOT
ATOM      1  C   UNL     1       2.817   3.889  17.576  0.00  0.00    +0.000 C 
ATOM      2  O   UNL     1       1.919   3.365  16.919  0.00  0.00    +0.000 OA
ENDROOT
BRANCH   1   7
ATOM      3  C   UNL     1       1.505   8.236  21.194  0.00  0.00    +0.000 C 
ATOM      4  C   UNL     1       1.838   7.123  20.245  0.00  0.00    +0.000 A 
ATOM      5  C   UNL     1       2.300   7.399  18.951  0.00  0.00    +0.000 A 
ATOM      6  C   UNL     1       2.634   6.361  18.076  0.00  0.00    +0.000 A 
ATOM      7  C   UNL     1       2.500   5.028  18.484  0.00  0.00    +0.000 A 
ATOM      8  C   UNL     1       2.042   4.748  19.777  0.00  0.00    +0.000 A 
ATOM      9  C   UNL     1       1.707   5.789  20.649  0.00  0.00    +0.000 A 
ENDBRANCH   1   7
BRANCH   1  10
ATOM     10  C   UNL     1       4.274   3.471  17.407  0.00  0.00    +0.000 C 
BRANCH  10  11
ATOM     11  C   UNL     1       5.329   4.467  16.986  0.00  0.00    +0.000 C 
ATOM     12 CL   UNL     1       5.395   4.526  15.219  0.00  0.00    +0.000 Cl
ATOM     13  C   UNL     1       6.141   5.267  17.703  0.00  0.00    +0.000 C 
ATOM     14 CL   UNL     1       7.292   6.344  16.948  0.00  0.00    +0.000 Cl
ATOM     15 CL   UNL     1       6.133   5.367  19.428  0.00  0.00    +0.000 Cl
ENDBRANCH  10  11
ENDBRANCH   1  10
TORSDOF 3
ENDMDL
