MODEL 1
REMARK VINA RESULT:      -7.8      0.000      0.000
REMARK  Name = 
REMARK  10 active torsions:
REMARK  status: ('A' for Active; 'I' for Inactive)
REMARK    1  A    between atoms: C_1  and  O_2
REMARK    2  A    between atoms: O_2  and  C_3
REMARK    3  A    between atoms: C_8  and  C_9
REMARK    4  A    between atoms: N_11  and  C_12
REMARK    5  A    between atoms: C_12  and  C_13
REMARK    6  A    between atoms: C_15  and  C_16
REMARK    7  A    between atoms: C_19  and  O_20
REMARK    8  A    between atoms: O_20  and  C_21
REMARK    9  A    between atoms: C_22  and  O_23
REMARK   10  A    between atoms: O_23  and  C_24
REMARK                            x       y       z     vdW  Elec       q    Type
REMARK                         _______ _______ _______ _____ _____    ______ ____
ROOT
ATOM      1  C   UNL     1       1.815   7.705  20.074  0.00  0.00    +0.000 A 
ATOM      2  C   UNL     1       0.883   8.633  19.667  0.00  0.00    +0.000 A 
ATOM      3  N   UNL     1       0.464   9.202  20.832  0.00  0.00    +0.000 N 
ATOM      4  N   UNL     1       1.131   8.709  21.892  0.00  0.00    +0.000 NA
ATOM      5  N   UNL     1       1.970   7.787  21.434  0.00  0.00    +0.000 NA
ENDROOT
BRANCH   1  11
ATOM      6  C   UNL     1       5.391   4.543  15.671  0.00  0.00    +0.000 A 
ATOM      7  C   UNL     1       5.512   5.916  15.464  0.00  0.00    +0.000 A 
ATOM      8  C   UNL     1       4.834   6.815  16.297  0.00  0.00    +0.000 A 
ATOM      9  C   UNL     1       4.025   6.355  17.344  0.00  0.00    +0.000 A 
ATOM     10  C   UNL     1       3.334   7.246  18.186  0.00  0.00    +0.000 A 
ATOM     11  C   UNL     1       2.519   6.773  19.220  0.00  0.00    +0.000 A 
ATOM     12  C   UNL     1       2.407   5.393  19.422  0.00  0.00    +0.000 A 
ATOM     13  C   UNL     1       3.092   4.497  18.599  0.00  0.00    +0.000 A 
ATOM     14  C   UNL     1       3.900   4.965  17.555  0.00  0.00    +0.000 A 
ATOM     15  C   UNL     1       4.590   4.075  16.715  0.00  0.00    +0.000 A 
BRANCH   6  17
ATOM     16  C   UNL     1       6.295   3.880  13.580  0.00  0.00    +0.000 C 
ATOM     17  O   UNL     1       5.997   3.564  14.934  0.00  0.00    +0.000 OA
ENDBRANCH   6  17
ENDBRANCH   1  11
BRANCH   3  18
ATOM     18  C   UNL     1      -0.635  10.132  21.013  0.00  0.00    +0.000 C 
BRANCH  18  19
ATOM     19  C   UNL     1      -0.136  11.507  20.810  0.00  0.00    +0.000 A 
ATOM     20  C   UNL     1      -0.106  12.359  19.734  0.00  0.00    +0.000 A 
ATOM     21  C   UNL     1       0.617  13.491  20.187  0.00  0.00    +0.000 A 
ATOM     22  N   UNL     1       0.947  13.341  21.481  0.00  0.00    +0.000 NA
ATOM     23  O   UNL     1       0.484  12.097  21.862  0.00  0.00    +0.000 OA
BRANCH  21  24
ATOM     24  C   UNL     1       0.991  14.678  19.424  0.00  0.00    +0.000 A 
ATOM     25  C   UNL     1       0.097  15.740  19.267  0.00  0.00    +0.000 A 
ATOM     26  C   UNL     1       0.480  16.870  18.545  0.00  0.00    +0.000 A 
ATOM     27  C   UNL     1       1.753  16.968  17.964  0.00  0.00    +0.000 A 
ATOM     28  C   UNL     1       2.657  15.899  18.102  0.00  0.00    +0.000 A 
ATOM     29  C   UNL     1       2.261  14.769  18.834  0.00  0.00    +0.000 A 
BRANCH  27  30
ATOM     30  O   UNL     1       1.925  18.161  17.313  0.00  0.00    +0.000 OA
ATOM     31  C   UNL     1       0.952  18.575  16.369  0.00  0.00    +0.000 C 
ENDBRANCH  27  30
BRANCH  28  32
ATOM     32  O   UNL     1       3.888  16.001  17.511  0.00  0.00    +0.000 OA
ATOM     33  C   UNL     1       4.891  15.062  17.878  0.00  0.00    +0.000 C 
ENDBRANCH  28  32
ENDBRANCH  21  24
ENDBRANCH  18  19
ENDBRANCH   3  18
TORSDOF 7
ENDMDL
MODEL 2
REMARK VINA RESULT:      -7.7      1.356      2.131
REMARK  Name = 
REMARK  10 active torsions:
REMARK  status: ('A' for Active; 'I' for Inactive)
REMARK    1  A    between atoms: C_1  and  O_2
REMARK    2  A    between atoms: O_2  and  C_3
REMARK    3  A    between atoms: C_8  and  C_9
REMARK    4  A    between atoms: N_11  and  C_12
REMARK    5  A    between atoms: C_12  and  C_13
REMARK    6  A    between atoms: C_15  and  C_16
REMARK    7  A    between atoms: C_19  and  O_20
REMARK    8  A    between atoms: O_20  and  C_21
REMARK    9  A    between atoms: C_22  and  O_23
REMARK   10  A    between atoms: O_23  and  C_24
REMARK                            x       y       z     vdW  Elec       q    Type
REMARK                         _______ _______ _______ _____ _____    ______ ____
ROOT
ATOM      1  C   UNL     1       1.669   7.741  20.111  0.00  0.00    +0.000 A 
ATOM      2  C   UNL     1       1.250   8.999  19.742  0.00  0.00    +0.000 A 
ATOM      3  N   UNL     1       0.568   9.447  20.833  0.00  0.00    +0.000 N 
ATOM      4  N   UNL     1       0.610   8.556  21.842  0.00  0.00    +0.000 NA
ATOM      5  N   UNL     1       1.291   7.501  21.407  0.00  0.00    +0.000 NA
ENDROOT
BRANCH   1  11
ATOM      6  C   UNL     1       5.304   4.541  15.785  0.00  0.00    +0.000 A 
ATOM      7  C   UNL     1       5.427   5.911  15.567  0.00  0.00    +0.000 A 
ATOM      8  C   UNL     1       4.738   6.818  16.382  0.00  0.00    +0.000 A 
ATOM      9  C   UNL     1       3.915   6.367  17.423  0.00  0.00    +0.000 A 
ATOM     10  C   UNL     1       3.213   7.266  18.247  0.00  0.00    +0.000 A 
ATOM     11  C   UNL     1       2.384   6.802  19.275  0.00  0.00    +0.000 A 
ATOM     12  C   UNL     1       2.271   5.424  19.489  0.00  0.00    +0.000 A 
ATOM     13  C   UNL     1       2.967   4.521  18.683  0.00  0.00    +0.000 A 
ATOM     14  C   UNL     1       3.788   4.979  17.646  0.00  0.00    +0.000 A 
ATOM     15  C   UNL     1       4.490   4.082  16.823  0.00  0.00    +0.000 A 
BRANCH   6  17
ATOM     16  C   UNL     1       6.776   3.977  14.012  0.00  0.00    +0.000 C 
ATOM     17  O   UNL     1       5.919   3.554  15.065  0.00  0.00    +0.000 OA
ENDBRANCH   6  17
ENDBRANCH   1  11
BRANCH   3  18
ATOM     18  C   UNL     1      -0.230  10.653  20.941  0.00  0.00    +0.000 C 
BRANCH  18  19
ATOM     19  C   UNL     1       0.456  11.746  20.224  0.00  0.00    +0.000 A 
ATOM     20  C   UNL     1       1.555  12.522  20.500  0.00  0.00    +0.000 A 
ATOM     21  C   UNL     1       1.607  13.466  19.444  0.00  0.00    +0.000 A 
ATOM     22  N   UNL     1       0.625  13.225  18.560  0.00  0.00    +0.000 NA
ATOM     23  O   UNL     1      -0.097  12.159  19.056  0.00  0.00    +0.000 OA
BRANCH  21  24
ATOM     24  C   UNL     1       2.551  14.567  19.274  0.00  0.00    +0.000 A 
ATOM     25  C   UNL     1       3.688  14.667  20.078  0.00  0.00    +0.000 A 
ATOM     26  C   UNL     1       4.583  15.720  19.890  0.00  0.00    +0.000 A 
ATOM     27  C   UNL     1       4.368  16.693  18.902  0.00  0.00    +0.000 A 
ATOM     28  C   UNL     1       3.219  16.612  18.095  0.00  0.00    +0.000 A 
ATOM     29  C   UNL     1       2.328  15.545  18.292  0.00  0.00    +0.000 A 
BRANCH  27  30
ATOM     30  O   UNL     1       5.371  17.626  18.879  0.00  0.00    +0.000 OA
ATOM     31  C   UNL     1       6.079  17.902  20.076  0.00  0.00    +0.000 C 
ENDBRANCH  27  30
BRANCH  28  32
ATOM     32  O   UNL     1       3.012  17.580  17.150  0.00  0.00    +0.000 OA
ATOM     33  C   UNL     1       1.678  18.005  16.901  0.00  0.00    +0.000 C 
ENDBRANCH  28  32
ENDBRANCH  21  24
ENDBRANCH  18  19
ENDBRANCH   3  18
TORSDOF 7
ENDMDL
MODEL 3
REMARK VINA RESULT:      -7.7      4.491      8.658
REMARK  Name = 
REMARK  10 active torsions:
REMARK  status: ('A' for Active; 'I' for Inactive)
REMARK    1  A    between atoms: C_1  and  O_2
REMARK    2  A    between atoms: O_2  and  C_3
REMARK    3  A    between atoms: C_8  and  C_9
REMARK    4  A    between atoms: N_11  and  C_12
REMARK    5  A    between atoms: C_12  and  C_13
REMARK    6  A    between atoms: C_15  and  C_16
REMARK    7  A    between atoms: C_19  and  O_20
REMARK    8  A    between atoms: O_20  and  C_21
REMARK    9  A    between atoms: C_22  and  O_23
REMARK   10  A    between atoms: O_23  and  C_24
REMARK                            x       y       z     vdW  Elec       q    Type
REMARK                         _______ _______ _______ _____ _____    ______ ____
ROOT
ATOM      1  C   UNL     1       2.866   7.584  18.141  0.00  0.00    +0.000 A 
ATOM      2  C   UNL     1       4.014   7.957  17.481  0.00  0.00    +0.000 A 
ATOM      3  N   UNL     1       4.638   6.774  17.221  0.00  0.00    +0.000 N 
ATOM      4  N   UNL     1       3.901   5.726  17.635  0.00  0.00    +0.000 NA
ATOM      5  N   UNL     1       2.803   6.216  18.201  0.00  0.00    +0.000 NA
ENDROOT
BRANCH   1  11
ATOM      6  C   UNL     1      -1.204  11.129  21.753  0.00  0.00    +0.000 A 
ATOM      7  C   UNL     1      -0.444  10.309  22.584  0.00  0.00    +0.000 A 
ATOM      8  C   UNL     1       0.517   9.450  22.038  0.00  0.00    +0.000 A 
ATOM      9  C   UNL     1       0.727   9.395  20.653  0.00  0.00    +0.000 A 
ATOM     10  C   UNL     1       1.686   8.532  20.088  0.00  0.00    +0.000 A 
ATOM     11  C   UNL     1       1.877   8.478  18.703  0.00  0.00    +0.000 A 
ATOM     12  C   UNL     1       1.112   9.309  17.877  0.00  0.00    +0.000 A 
ATOM     13  C   UNL     1       0.162  10.174  18.424  0.00  0.00    +0.000 A 
ATOM     14  C   UNL     1      -0.042  10.223  19.808  0.00  0.00    +0.000 A 
ATOM     15  C   UNL     1      -0.998  11.085  20.372  0.00  0.00    +0.000 A 
BRANCH   6  17
ATOM     16  C   UNL     1      -1.845  12.845  23.261  0.00  0.00    +0.000 C 
ATOM     17  O   UNL     1      -2.169  12.009  22.157  0.00  0.00    +0.000 OA
ENDBRANCH   6  17
ENDBRANCH   1  11
BRANCH   3  18
ATOM     18  C   UNL     1       5.972   6.579  16.687  0.00  0.00    +0.000 C 
BRANCH  18  19
ATOM     19  C   UNL     1       6.922   7.402  17.459  0.00  0.00    +0.000 A 
ATOM     20  C   UNL     1       7.173   8.750  17.532  0.00  0.00    +0.000 A 
ATOM     21  C   UNL     1       8.298   8.865  18.386  0.00  0.00    +0.000 A 
ATOM     22  N   UNL     1       8.658   7.653  18.841  0.00  0.00    +0.000 NA
ATOM     23  O   UNL     1       7.805   6.743  18.252  0.00  0.00    +0.000 OA
BRANCH  21  24
ATOM     24  C   UNL     1       9.017  10.080  18.762  0.00  0.00    +0.000 A 
ATOM     25  C   UNL     1       9.383  10.315  20.088  0.00  0.00    +0.000 A 
ATOM     26  C   UNL     1      10.080  11.476  20.422  0.00  0.00    +0.000 A 
ATOM     27  C   UNL     1      10.426  12.425  19.448  0.00  0.00    +0.000 A 
ATOM     28  C   UNL     1      10.050  12.207  18.110  0.00  0.00    +0.000 A 
ATOM     29  C   UNL     1       9.352  11.032  17.787  0.00  0.00    +0.000 A 
BRANCH  27  30
ATOM     30  O   UNL     1      11.116  13.479  19.987  0.00  0.00    +0.000 OA
ATOM     31  C   UNL     1      10.478  14.292  20.957  0.00  0.00    +0.000 C 
ENDBRANCH  27  30
BRANCH  28  32
ATOM     32  O   UNL     1      10.376  13.152  17.175  0.00  0.00    +0.000 OA
ATOM     33  C   UNL     1      11.687  13.129  16.624  0.00  0.00    +0.000 C 
ENDBRANCH  28  32
ENDBRANCH  21  24
ENDBRANCH  18  19
ENDBRANCH   3  18
TORSDOF 7
ENDMDL
MODEL 4
REMARK VINA RESULT:      -7.6      4.108      6.472
REMARK  Name = 
REMARK  10 active torsions:
REMARK  status: ('A' for Active; 'I' for Inactive)
REMARK    1  A    between atoms: C_1  and  O_2
REMARK    2  A    between atoms: O_2  and  C_3
REMARK    3  A    between atoms: C_8  and  C_9
REMARK    4  A    between atoms: N_11  and  C_12
REMARK    5  A    between atoms: C_12  and  C_13
REMARK    6  A    between atoms: C_15  and  C_16
REMARK    7  A    between atoms: C_19  and  O_20
REMARK    8  A    between atoms: O_20  and  C_21
REMARK    9  A    between atoms: C_22  and  O_23
REMARK   10  A    between atoms: O_23  and  C_24
REMARK                            x       y       z     vdW  Elec       q    Type
REMARK                         _______ _______ _______ _____ _____    ______ ____
ROOT
ATOM      1  C   UNL     1       1.854   9.802  18.864  0.00  0.00    +0.000 A 
ATOM      2  C   UNL     1       1.253  10.481  19.901  0.00  0.00    +0.000 A 
ATOM      3  N   UNL     1       1.307  11.784  19.508  0.00  0.00    +0.000 N 
ATOM      4  N   UNL     1       1.847  11.910  18.281  0.00  0.00    +0.000 NA
ATOM      5  N   UNL     1       2.184  10.692  17.874  0.00  0.00    +0.000 NA
ENDROOT
BRANCH   1  11
ATOM      6  C   UNL     1       2.516   3.407  19.773  0.00  0.00    +0.000 A 
ATOM      7  C   UNL     1       1.910   3.972  20.893  0.00  0.00    +0.000 A 
ATOM      8  C   UNL     1       1.652   5.347  20.935  0.00  0.00    +0.000 A 
ATOM      9  C   UNL     1       2.000   6.177  19.861  0.00  0.00    +0.000 A 
ATOM     10  C   UNL     1       1.752   7.562  19.890  0.00  0.00    +0.000 A 
ATOM     11  C   UNL     1       2.116   8.380  18.815  0.00  0.00    +0.000 A 
ATOM     12  C   UNL     1       2.720   7.803  17.693  0.00  0.00    +0.000 A 
ATOM     13  C   UNL     1       2.967   6.430  17.647  0.00  0.00    +0.000 A 
ATOM     14  C   UNL     1       2.615   5.607  18.725  0.00  0.00    +0.000 A 
ATOM     15  C   UNL     1       2.862   4.225  18.696  0.00  0.00    +0.000 A 
BRANCH   6  17
ATOM     16  C   UNL     1       3.418   1.721  18.368  0.00  0.00    +0.000 C 
ATOM     17  O   UNL     1       2.821   2.084  19.607  0.00  0.00    +0.000 OA
ENDBRANCH   6  17
ENDBRANCH   1  11
BRANCH   3  18
ATOM     18  C   UNL     1       0.964  12.956  20.292  0.00  0.00    +0.000 C 
BRANCH  18  19
ATOM     19  C   UNL     1      -0.199  12.639  21.144  0.00  0.00    +0.000 A 
ATOM     20  C   UNL     1      -1.538  12.935  21.075  0.00  0.00    +0.000 A 
ATOM     21  C   UNL     1      -2.086  12.422  22.276  0.00  0.00    +0.000 A 
ATOM     22  N   UNL     1      -1.132  11.802  22.992  0.00  0.00    +0.000 NA
ATOM     23  O   UNL     1       0.045  11.950  22.287  0.00  0.00    +0.000 OA
BRANCH  21  24
ATOM     24  C   UNL     1      -3.468  12.514  22.741  0.00  0.00    +0.000 A 
ATOM     25  C   UNL     1      -3.777  12.405  24.098  0.00  0.00    +0.000 A 
ATOM     26  C   UNL     1      -5.101  12.509  24.520  0.00  0.00    +0.000 A 
ATOM     27  C   UNL     1      -6.144  12.721  23.607  0.00  0.00    +0.000 A 
ATOM     28  C   UNL     1      -5.848  12.817  22.235  0.00  0.00    +0.000 A 
ATOM     29  C   UNL     1      -4.510  12.715  21.823  0.00  0.00    +0.000 A 
BRANCH  27  30
ATOM     30  O   UNL     1      -7.361  12.804  24.232  0.00  0.00    +0.000 OA
ATOM     31  C   UNL     1      -7.916  14.084  24.484  0.00  0.00    +0.000 C 
ENDBRANCH  27  30
BRANCH  28  32
ATOM     32  O   UNL     1      -6.879  13.003  21.353  0.00  0.00    +0.000 OA
ATOM     33  C   UNL     1      -7.080  14.305  20.816  0.00  0.00    +0.000 C 
ENDBRANCH  28  32
ENDBRANCH  21  24
ENDBRANCH  18  19
ENDBRANCH   3  18
TORSDOF 7
ENDMDL
MODEL 5
REMARK VINA RESULT:      -7.5      3.775      5.076
REMARK  Name = 
REMARK  10 active torsions:
REMARK  status: ('A' for Active; 'I' for Inactive)
REMARK    1  A    between atoms: C_1  and  O_2
REMARK    2  A    between atoms: O_2  and  C_3
REMARK    3  A    between atoms: C_8  and  C_9
REMARK    4  A    between atoms: N_11  and  C_12
REMARK    5  A    between atoms: C_12  and  C_13
REMARK    6  A    between atoms: C_15  and  C_16
REMARK    7  A    between atoms: C_19  and  O_20
REMARK    8  A    between atoms: O_20  and  C_21
REMARK    9  A    between atoms: C_22  and  O_23
REMARK   10  A    between atoms: O_23  and  C_24
REMARK                            x       y       z     vdW  Elec       q    Type
REMARK                         _______ _______ _______ _____ _____    ______ ____
ROOT
ATOM      1  C   UNL     1       1.914   7.678  19.669  0.00  0.00    +0.000 A 
ATOM      2  C   UNL     1       1.630   7.495  21.003  0.00  0.00    +0.000 A 
ATOM      3  N   UNL     1       1.029   8.661  21.370  0.00  0.00    +0.000 N 
ATOM      4  N   UNL     1       0.887   9.495  20.322  0.00  0.00    +0.000 NA
ATOM      5  N   UNL     1       1.427   8.896  19.267  0.00  0.00    +0.000 NA
ENDROOT
BRANCH   1  11
ATOM      6  C   UNL     1       5.644   4.544  15.376  0.00  0.00    +0.000 A 
ATOM      7  C   UNL     1       5.886   5.913  15.284  0.00  0.00    +0.000 A 
ATOM      8  C   UNL     1       5.202   6.805  16.118  0.00  0.00    +0.000 A 
ATOM      9  C   UNL     1       4.264   6.342  17.052  0.00  0.00    +0.000 A 
ATOM     10  C   UNL     1       3.566   7.227  17.894  0.00  0.00    +0.000 A 
ATOM     11  C   UNL     1       2.623   6.753  18.813  0.00  0.00    +0.000 A 
ATOM     12  C   UNL     1       2.391   5.376  18.900  0.00  0.00    +0.000 A 
ATOM     13  C   UNL     1       3.081   4.485  18.076  0.00  0.00    +0.000 A 
ATOM     14  C   UNL     1       4.017   4.956  17.146  0.00  0.00    +0.000 A 
ATOM     15  C   UNL     1       4.715   4.072  16.306  0.00  0.00    +0.000 A 
BRANCH   6  17
ATOM     16  C   UNL     1       6.046   3.645  13.216  0.00  0.00    +0.000 C 
ATOM     17  O   UNL     1       6.241   3.571  14.623  0.00  0.00    +0.000 OA
ENDBRANCH   6  17
ENDBRANCH   1  11
BRANCH   3  18
ATOM     18  C   UNL     1       0.667   9.083  22.709  0.00  0.00    +0.000 C 
BRANCH  18  19
ATOM     19  C   UNL     1      -0.012  10.391  22.632  0.00  0.00    +0.000 A 
ATOM     20  C   UNL     1      -1.244  10.848  23.030  0.00  0.00    +0.000 A 
ATOM     21  C   UNL     1      -1.309  12.181  22.552  0.00  0.00    +0.000 A 
ATOM     22  N   UNL     1      -0.153  12.514  21.954  0.00  0.00    +0.000 NA
ATOM     23  O   UNL     1       0.649  11.391  21.997  0.00  0.00    +0.000 OA
BRANCH  21  24
ATOM     24  C   UNL     1      -2.428  13.114  22.652  0.00  0.00    +0.000 A 
ATOM     25  C   UNL     1      -2.246  14.479  22.419  0.00  0.00    +0.000 A 
ATOM     26  C   UNL     1      -3.332  15.350  22.507  0.00  0.00    +0.000 A 
ATOM     27  C   UNL     1      -4.616  14.886  22.828  0.00  0.00    +0.000 A 
ATOM     28  C   UNL     1      -4.810  13.515  23.080  0.00  0.00    +0.000 A 
ATOM     29  C   UNL     1      -3.709  12.648  22.984  0.00  0.00    +0.000 A 
BRANCH  27  30
ATOM     30  O   UNL     1      -5.535  15.902  22.849  0.00  0.00    +0.000 OA
ATOM     31  C   UNL     1      -5.822  16.542  24.081  0.00  0.00    +0.000 C 
ENDBRANCH  27  30
BRANCH  28  32
ATOM     32  O   UNL     1      -6.064  13.081  23.413  0.00  0.00    +0.000 OA
ATOM     33  C   UNL     1      -6.957  12.729  22.363  0.00  0.00    +0.000 C 
ENDBRANCH  28  32
ENDBRANCH  21  24
ENDBRANCH  18  19
ENDBRANCH   3  18
TORSDOF 7
ENDMDL
MODEL 6
REMARK VINA RESULT:      -7.5      2.534     10.224
REMARK  Name = 
REMARK  10 active torsions:
REMARK  status: ('A' for Active; 'I' for Inactive)
REMARK    1  A    between atoms: C_1  and  O_2
REMARK    2  A    between atoms: O_2  and  C_3
REMARK    3  A    between atoms: C_8  and  C_9
REMARK    4  A    between atoms: N_11  and  C_12
REMARK    5  A    between atoms: C_12  and  C_13
REMARK    6  A    between atoms: C_15  and  C_16
REMARK    7  A    between atoms: C_19  and  O_20
REMARK    8  A    between atoms: O_20  and  C_21
REMARK    9  A    between atoms: C_22  and  O_23
REMARK   10  A    between atoms: O_23  and  C_24
REMARK                            x       y       z     vdW  Elec       q    Type
REMARK                         _______ _______ _______ _____ _____    ______ ____
ROOT
ATOM      1  C   UNL     1       2.253  13.261  20.059  0.00  0.00    +0.000 A 
ATOM      2  C   UNL     1       1.650  12.518  19.069  0.00  0.00    +0.000 A 
ATOM      3  N   UNL     1       0.915  11.599  19.755  0.00  0.00    +0.000 N 
ATOM      4  N   UNL     1       1.000  11.791  21.085  0.00  0.00    +0.000 NA
ATOM      5  N   UNL     1       1.820  12.817  21.283  0.00  0.00    +0.000 NA
ENDROOT
BRANCH   1  11
ATOM      6  C   UNL     1       7.113  17.566  20.140  0.00  0.00    +0.000 A 
ATOM      7  C   UNL     1       7.303  16.637  21.161  0.00  0.00    +0.000 A 
ATOM      8  C   UNL     1       6.384  15.597  21.345  0.00  0.00    +0.000 A 
ATOM      9  C   UNL     1       5.261  15.474  20.515  0.00  0.00    +0.000 A 
ATOM     10  C   UNL     1       4.327  14.437  20.690  0.00  0.00    +0.000 A 
ATOM     11  C   UNL     1       3.204  14.333  19.862  0.00  0.00    +0.000 A 
ATOM     12  C   UNL     1       3.024  15.268  18.837  0.00  0.00    +0.000 A 
ATOM     13  C   UNL     1       3.947  16.299  18.647  0.00  0.00    +0.000 A 
ATOM     14  C   UNL     1       5.066  16.414  19.480  0.00  0.00    +0.000 A 
ATOM     15  C   UNL     1       6.000  17.449  19.305  0.00  0.00    +0.000 A 
BRANCH   6  17
ATOM     16  C   UNL     1       9.134  18.327  19.156  0.00  0.00    +0.000 C 
ATOM     17  O   UNL     1       7.931  18.624  19.855  0.00  0.00    +0.000 OA
ENDBRANCH   6  17
ENDBRANCH   1  11
BRANCH   3  18
ATOM     18  C   UNL     1       0.204  10.457  19.213  0.00  0.00    +0.000 C 
BRANCH  18  19
ATOM     19  C   UNL     1       1.126   9.307  19.146  0.00  0.00    +0.000 A 
ATOM     20  C   UNL     1       1.846   8.723  18.133  0.00  0.00    +0.000 A 
ATOM     21  C   UNL     1       2.442   7.580  18.722  0.00  0.00    +0.000 A 
ATOM     22  N   UNL     1       2.138   7.523  20.030  0.00  0.00    +0.000 NA
ATOM     23  O   UNL     1       1.308   8.595  20.287  0.00  0.00    +0.000 OA
BRANCH  21  24
ATOM     24  C   UNL     1       3.271   6.567  18.074  0.00  0.00    +0.000 A 
ATOM     25  C   UNL     1       4.323   6.934  17.232  0.00  0.00    +0.000 A 
ATOM     26  C   UNL     1       5.110   5.951  16.633  0.00  0.00    +0.000 A 
ATOM     27  C   UNL     1       4.869   4.587  16.856  0.00  0.00    +0.000 A 
ATOM     28  C   UNL     1       3.802   4.204  17.690  0.00  0.00    +0.000 A 
ATOM     29  C   UNL     1       3.020   5.204  18.290  0.00  0.00    +0.000 A 
BRANCH  27  30
ATOM     30  O   UNL     1       5.762   3.795  16.184  0.00  0.00    +0.000 OA
ATOM     31  C   UNL     1       6.837   4.409  15.492  0.00  0.00    +0.000 C 
ENDBRANCH  27  30
BRANCH  28  32
ATOM     32  O   UNL     1       3.566   2.869  17.881  0.00  0.00    +0.000 OA
ATOM     33  C   UNL     1       2.228   2.449  18.117  0.00  0.00    +0.000 C 
ENDBRANCH  28  32
ENDBRANCH  21  24
ENDBRANCH  18  19
ENDBRANCH   3  18
TORSDOF 7
ENDMDL
MODEL 7
REMARK VINA RESULT:      -7.4      1.683      2.091
REMARK  Name = 
REMARK  10 active torsions:
REMARK  status: ('A' for Active; 'I' for Inactive)
REMARK    1  A    between atoms: C_1  and  O_2
REMARK    2  A    between atoms: O_2  and  C_3
REMARK    3  A    between atoms: C_8  and  C_9
REMARK    4  A    between atoms: N_11  and  C_12
REMARK    5  A    between atoms: C_12  and  C_13
REMARK    6  A    between atoms: C_15  and  C_16
REMARK    7  A    between atoms: C_19  and  O_20
REMARK    8  A    between atoms: O_20  and  C_21
REMARK    9  A    between atoms: C_22  and  O_23
REMARK   10  A    between atoms: O_23  and  C_24
REMARK                            x       y       z     vdW  Elec       q    Type
REMARK                         _______ _______ _______ _____ _____    ______ ____
ROOT
ATOM      1  C   UNL     1       1.838   7.875  19.622  0.00  0.00    +0.000 A 
ATOM      2  C   UNL     1       1.296   9.066  19.194  0.00  0.00    +0.000 A 
ATOM      3  N   UNL     1       0.680   9.559  20.305  0.00  0.00    +0.000 N 
ATOM      4  N   UNL     1       0.874   8.762  21.373  0.00  0.00    +0.000 NA
ATOM      5  N   UNL     1       1.592   7.722  20.963  0.00  0.00    +0.000 NA
ENDROOT
BRANCH   1  11
ATOM      6  C   UNL     1       5.662   4.565  15.550  0.00  0.00    +0.000 A 
ATOM      7  C   UNL     1       6.002   5.915  15.507  0.00  0.00    +0.000 A 
ATOM      8  C   UNL     1       5.319   6.839  16.308  0.00  0.00    +0.000 A 
ATOM      9  C   UNL     1       4.285   6.426  17.158  0.00  0.00    +0.000 A 
ATOM     10  C   UNL     1       3.585   7.342  17.965  0.00  0.00    +0.000 A 
ATOM     11  C   UNL     1       2.546   6.917  18.801  0.00  0.00    +0.000 A 
ATOM     12  C   UNL     1       2.216   5.559  18.840  0.00  0.00    +0.000 A 
ATOM     13  C   UNL     1       2.905   4.637  18.050  0.00  0.00    +0.000 A 
ATOM     14  C   UNL     1       3.938   5.058  17.203  0.00  0.00    +0.000 A 
ATOM     15  C   UNL     1       4.636   4.143  16.398  0.00  0.00    +0.000 A 
BRANCH   6  17
ATOM     16  C   UNL     1       6.092   3.632  13.410  0.00  0.00    +0.000 C 
ATOM     17  O   UNL     1       6.248   3.566  14.822  0.00  0.00    +0.000 OA
ENDBRANCH   6  17
ENDBRANCH   1  11
BRANCH   3  18
ATOM     18  C   UNL     1      -0.193  10.714  20.390  0.00  0.00    +0.000 C 
BRANCH  18  19
ATOM     19  C   UNL     1       0.525  11.896  19.876  0.00  0.00    +0.000 A 
ATOM     20  C   UNL     1       1.637  12.588  20.290  0.00  0.00    +0.000 A 
ATOM     21  C   UNL     1       1.723  13.696  19.410  0.00  0.00    +0.000 A 
ATOM     22  N   UNL     1       0.748  13.631  18.487  0.00  0.00    +0.000 NA
ATOM     23  O   UNL     1      -0.003  12.513  18.789  0.00  0.00    +0.000 OA
BRANCH  21  24
ATOM     24  C   UNL     1       2.694  14.787  19.437  0.00  0.00    +0.000 A 
ATOM     25  C   UNL     1       2.274  16.119  19.458  0.00  0.00    +0.000 A 
ATOM     26  C   UNL     1       3.217  17.144  19.498  0.00  0.00    +0.000 A 
ATOM     27  C   UNL     1       4.593  16.871  19.515  0.00  0.00    +0.000 A 
ATOM     28  C   UNL     1       5.029  15.534  19.479  0.00  0.00    +0.000 A 
ATOM     29  C   UNL     1       4.069  14.510  19.444  0.00  0.00    +0.000 A 
BRANCH  27  30
ATOM     30  O   UNL     1       5.341  18.018  19.567  0.00  0.00    +0.000 OA
ATOM     31  C   UNL     1       5.788  18.489  20.827  0.00  0.00    +0.000 C 
ENDBRANCH  27  30
BRANCH  28  32
ATOM     32  O   UNL     1       6.375  15.283  19.476  0.00  0.00    +0.000 OA
ATOM     33  C   UNL     1       7.032  15.147  18.221  0.00  0.00    +0.000 C 
ENDBRANCH  28  32
ENDBRANCH  21  24
ENDBRANCH  18  19
ENDBRANCH   3  18
TORSDOF 7
ENDMDL
MODEL 8
REMARK VINA RESULT:      -7.4      4.511      8.547
REMARK  Name = 
REMARK  10 active torsions:
REMARK  status: ('A' for Active; 'I' for Inactive)
REMARK    1  A    between atoms: C_1  and  O_2
REMARK    2  A    between atoms: O_2  and  C_3
REMARK    3  A    between atoms: C_8  and  C_9
REMARK    4  A    between atoms: N_11  and  C_12
REMARK    5  A    between atoms: C_12  and  C_13
REMARK    6  A    between atoms: C_15  and  C_16
REMARK    7  A    between atoms: C_19  and  O_20
REMARK    8  A    between atoms: O_20  and  C_21
REMARK    9  A    between atoms: C_22  and  O_23
REMARK   10  A    between atoms: O_23  and  C_24
REMARK                            x       y       z     vdW  Elec       q    Type
REMARK                         _______ _______ _______ _____ _____    ______ ____
ROOT
ATOM      1  C   UNL     1       3.009   7.253  18.268  0.00  0.00    +0.000 A 
ATOM      2  C   UNL     1       4.220   7.675  17.769  0.00  0.00    +0.000 A 
ATOM      3  N   UNL     1       4.763   6.544  17.237  0.00  0.00    +0.000 N 
ATOM      4  N   UNL     1       3.923   5.497  17.340  0.00  0.00    +0.000 NA
ATOM      5  N   UNL     1       2.836   5.925  17.972  0.00  0.00    +0.000 NA
ENDROOT
BRANCH   1  11
ATOM      6  C   UNL     1      -1.336  11.526  20.510  0.00  0.00    +0.000 A 
ATOM      7  C   UNL     1      -1.042  11.822  19.181  0.00  0.00    +0.000 A 
ATOM      8  C   UNL     1      -0.129  11.033  18.470  0.00  0.00    +0.000 A 
ATOM      9  C   UNL     1       0.504   9.941  19.079  0.00  0.00    +0.000 A 
ATOM     10  C   UNL     1       1.427   9.142  18.380  0.00  0.00    +0.000 A 
ATOM     11  C   UNL     1       2.061   8.062  19.004  0.00  0.00    +0.000 A 
ATOM     12  C   UNL     1       1.755   7.771  20.338  0.00  0.00    +0.000 A 
ATOM     13  C   UNL     1       0.837   8.551  21.042  0.00  0.00    +0.000 A 
ATOM     14  C   UNL     1       0.208   9.640  20.426  0.00  0.00    +0.000 A 
ATOM     15  C   UNL     1      -0.714  10.437  21.124  0.00  0.00    +0.000 A 
BRANCH   6  17
ATOM     16  C   UNL     1      -3.023  13.187  20.676  0.00  0.00    +0.000 C 
ATOM     17  O   UNL     1      -2.204  12.214  21.312  0.00  0.00    +0.000 OA
ENDBRANCH   6  17
ENDBRANCH   1  11
BRANCH   3  18
ATOM     18  C   UNL     1       6.107   6.370  16.720  0.00  0.00    +0.000 C 
BRANCH  18  19
ATOM     19  C   UNL     1       7.025   7.250  17.469  0.00  0.00    +0.000 A 
ATOM     20  C   UNL     1       7.330   8.587  17.400  0.00  0.00    +0.000 A 
ATOM     21  C   UNL     1       8.383   8.768  18.331  0.00  0.00    +0.000 A 
ATOM     22  N   UNL     1       8.648   7.611  18.960  0.00  0.00    +0.000 NA
ATOM     23  O   UNL     1       7.806   6.665  18.412  0.00  0.00    +0.000 OA
BRANCH  21  24
ATOM     24  C   UNL     1       9.122   9.995  18.618  0.00  0.00    +0.000 A 
ATOM     25  C   UNL     1       9.699  10.742  17.589  0.00  0.00    +0.000 A 
ATOM     26  C   UNL     1      10.389  11.917  17.886  0.00  0.00    +0.000 A 
ATOM     27  C   UNL     1      10.523  12.372  19.206  0.00  0.00    +0.000 A 
ATOM     28  C   UNL     1       9.960  11.620  20.253  0.00  0.00    +0.000 A 
ATOM     29  C   UNL     1       9.264  10.441  19.941  0.00  0.00    +0.000 A 
BRANCH  27  30
ATOM     30  O   UNL     1      11.224  13.547  19.271  0.00  0.00    +0.000 OA
ATOM     31  C   UNL     1      10.871  14.606  18.398  0.00  0.00    +0.000 C 
ENDBRANCH  27  30
BRANCH  28  32
ATOM     32  O   UNL     1      10.117  12.065  21.538  0.00  0.00    +0.000 OA
ATOM     33  C   UNL     1       9.172  12.999  22.048  0.00  0.00    +0.000 C 
ENDBRANCH  28  32
ENDBRANCH  21  24
ENDBRANCH  18  19
ENDBRANCH   3  18
TORSDOF 7
ENDMDL
MODEL 9
REMARK VINA RESULT:      -7.4      3.560     10.435
REMARK  Name = 
REMARK  10 active torsions:
REMARK  status: ('A' for Active; 'I' for Inactive)
REMARK    1  A    between atoms: C_1  and  O_2
REMARK    2  A    between atoms: O_2  and  C_3
REMARK    3  A    between atoms: C_8  and  C_9
REMARK    4  A    between atoms: N_11  and  C_12
REMARK    5  A    between atoms: C_12  and  C_13
REMARK    6  A    between atoms: C_15  and  C_16
REMARK    7  A    between atoms: C_19  and  O_20
REMARK    8  A    between atoms: O_20  and  C_21
REMARK    9  A    between atoms: C_22  and  O_23
REMARK   10  A    between atoms: O_23  and  C_24
REMARK                            x       y       z     vdW  Elec       q    Type
REMARK                         _______ _______ _______ _____ _____    ______ ____
ROOT
ATOM      1  C   UNL     1       0.398   9.369  21.162  0.00  0.00    +0.000 A 
ATOM      2  C   UNL     1       0.439   8.145  21.791  0.00  0.00    +0.000 A 
ATOM      3  N   UNL     1       1.217   7.385  20.970  0.00  0.00    +0.000 N 
ATOM      4  N   UNL     1       1.685   8.101  19.930  0.00  0.00    +0.000 NA
ATOM      5  N   UNL     1       1.188   9.328  20.042  0.00  0.00    +0.000 NA
ENDROOT
BRANCH   1  11
ATOM      6  C   UNL     1      -2.741  14.997  21.963  0.00  0.00    +0.000 A 
ATOM      7  C   UNL     1      -2.168  14.964  20.694  0.00  0.00    +0.000 A 
ATOM      8  C   UNL     1      -1.439  13.843  20.279  0.00  0.00    +0.000 A 
ATOM      9  C   UNL     1      -1.268  12.742  21.129  0.00  0.00    +0.000 A 
ATOM     10  C   UNL     1      -0.534  11.611  20.729  0.00  0.00    +0.000 A 
ATOM     11  C   UNL     1      -0.361  10.523  21.592  0.00  0.00    +0.000 A 
ATOM     12  C   UNL     1      -0.944  10.563  22.863  0.00  0.00    +0.000 A 
ATOM     13  C   UNL     1      -1.681  11.676  23.272  0.00  0.00    +0.000 A 
ATOM     14  C   UNL     1      -1.847  12.772  22.416  0.00  0.00    +0.000 A 
ATOM     15  C   UNL     1      -2.581  13.902  22.816  0.00  0.00    +0.000 A 
BRANCH   6  17
ATOM     16  C   UNL     1      -2.803  17.271  22.640  0.00  0.00    +0.000 C 
ATOM     17  O   UNL     1      -3.473  16.026  22.488  0.00  0.00    +0.000 OA
ENDBRANCH   6  17
ENDBRANCH   1  11
BRANCH   3  18
ATOM     18  C   UNL     1       1.462   5.959  21.060  0.00  0.00    +0.000 C 
BRANCH  18  19
ATOM     19  C   UNL     1       2.220   5.527  19.869  0.00  0.00    +0.000 A 
ATOM     20  C   UNL     1       3.521   5.686  19.460  0.00  0.00    +0.000 A 
ATOM     21  C   UNL     1       3.564   5.122  18.160  0.00  0.00    +0.000 A 
ATOM     22  N   UNL     1       2.366   4.604  17.841  0.00  0.00    +0.000 NA
ATOM     23  O   UNL     1       1.529   4.869  18.905  0.00  0.00    +0.000 OA
BRANCH  21  24
ATOM     24  C   UNL     1       4.700   5.075  17.243  0.00  0.00    +0.000 A 
ATOM     25  C   UNL     1       4.804   4.066  16.283  0.00  0.00    +0.000 A 
ATOM     26  C   UNL     1       5.890   4.048  15.409  0.00  0.00    +0.000 A 
ATOM     27  C   UNL     1       6.894   5.026  15.470  0.00  0.00    +0.000 A 
ATOM     28  C   UNL     1       6.808   6.040  16.443  0.00  0.00    +0.000 A 
ATOM     29  C   UNL     1       5.707   6.049  17.314  0.00  0.00    +0.000 A 
BRANCH  27  30
ATOM     30  O   UNL     1       7.857   4.829  14.517  0.00  0.00    +0.000 OA
ATOM     31  C   UNL     1       7.580   5.195  13.176  0.00  0.00    +0.000 C 
ENDBRANCH  27  30
BRANCH  28  32
ATOM     32  O   UNL     1       7.805   6.976  16.504  0.00  0.00    +0.000 OA
ATOM     33  C   UNL     1       7.821   7.872  17.609  0.00  0.00    +0.000 C 
ENDBRANCH  28  32
ENDBRANCH  21  24
ENDBRANCH  18  19
ENDBRANCH   3  18
TORSDOF 7
ENDMDL
