MODEL 1
REMARK VINA RESULT:      -6.6      0.000      0.000
REMARK  Name = 
REMARK  18 active torsions:
REMARK  status: ('A' for Active; 'I' for Inactive)
REMARK    1  A    between atoms: C_1  and  S_2
REMARK    2  A    between atoms: S_2  and  N_5
REMARK    3  A    between atoms: N_5  and  C_6
REMARK    4  A    between atoms: N_5  and  C_15
REMARK    5  A    between atoms: C_6  and  C_7
REMARK    6  A    between atoms: C_7  and  C_8
REMARK    7  A    between atoms: C_8  and  C_9
REMARK    8  A    between atoms: C_9  and  C_10
REMARK    9  A    between atoms: C_10  and  C_11
REMARK   10  A    between atoms: C_11  and  C_12
REMARK   11  A    between atoms: C_12  and  O_14
REMARK   12  A    between atoms: C_15  and  C_16
REMARK   13  A    between atoms: C_16  and  C_17
REMARK   14  A    between atoms: C_17  and  C_18
REMARK   15  A    between atoms: C_18  and  O_19
REMARK   16  A    between atoms: C_18  and  C_20
REMARK   17  A    between atoms: C_20  and  O_21
REMARK   18  A    between atoms: O_21  and  C_22
REMARK                            x       y       z     vdW  Elec       q    Type
REMARK                         _______ _______ _______ _____ _____    ______ ____
ROOT
ATOM      1  N   UNL     1       5.502   5.175  17.131  0.00  0.00    +0.000 NA
ENDROOT
BRANCH   1   3
ATOM      2  C   UNL     1       6.865   4.530  14.826  0.00  0.00    +0.000 C 
ATOM      3  S   UNL     1       7.104   5.192  16.459  0.00  0.00    +0.000 S 
ATOM      4  O   UNL     1       7.918   4.224  17.165  0.00  0.00    +0.000 OA
ATOM      5  O   UNL     1       7.519   6.571  16.333  0.00  0.00    +0.000 OA
ENDBRANCH   1   3
BRANCH   1   6
ATOM      6  C   UNL     1       4.616   6.318  16.697  0.00  0.00    +0.000 C 
BRANCH   6   7
ATOM      7  C   UNL     1       3.980   7.110  17.823  0.00  0.00    +0.000 C 
BRANCH   7   8
ATOM      8  C   UNL     1       2.458   6.896  17.937  0.00  0.00    +0.000 C 
BRANCH   8   9
ATOM      9  C   UNL     1       1.877   7.436  19.257  0.00  0.00    +0.000 C 
BRANCH   9  10
ATOM     10  O   UNL     1       2.708   6.994  20.330  0.00  0.00    +0.000 OA
ATOM     11  H   UNL     1       2.174   6.947  21.140  0.00  0.00    +0.000 HD
ENDBRANCH   9  10
BRANCH   9  12
ATOM     12  C   UNL     1       1.745   8.968  19.221  0.00  0.00    +0.000 C 
BRANCH  12  13
ATOM     13  O   UNL     1       0.390   9.402  19.301  0.00  0.00    +0.000 OA
BRANCH  13  14
ATOM     14  C   UNL     1      -0.031   9.736  20.566  0.00  0.00    +0.000 A 
ATOM     15  C   UNL     1      -0.055   8.886  21.681  0.00  0.00    +0.000 A 
ATOM     16  C   UNL     1      -0.495   9.353  22.921  0.00  0.00    +0.000 A 
ATOM     17  C   UNL     1      -0.917  10.673  23.055  0.00  0.00    +0.000 A 
ATOM     18  C   UNL     1      -0.903  11.516  21.946  0.00  0.00    +0.000 A 
ATOM     19 CL   UNL     1      -1.429  13.146  22.110  0.00  0.00    +0.000 Cl
ATOM     20  C   UNL     1      -0.464  11.054  20.706  0.00  0.00    +0.000 A 
ENDBRANCH  13  14
ENDBRANCH  12  13
ENDBRANCH   9  12
ENDBRANCH   8   9
ENDBRANCH   7   8
ENDBRANCH   6   7
ENDBRANCH   1   6
BRANCH   1  21
ATOM     21  C   UNL     1       5.561   5.085  18.643  0.00  0.00    +0.000 C 
BRANCH  21  22
ATOM     22  C   UNL     1       4.953   3.787  19.181  0.00  0.00    +0.000 C 
BRANCH  22  23
ATOM     23  C   UNL     1       3.877   3.217  18.261  0.00  0.00    +0.000 C 
BRANCH  23  24
ATOM     24  C   UNL     1       3.006   2.222  19.038  0.00  0.00    +0.000 C 
BRANCH  24  25
ATOM     25  C   UNL     1       1.531   2.594  18.945  0.00  0.00    +0.000 C 
BRANCH  25  26
ATOM     26  C   UNL     1       1.181   3.771  19.853  0.00  0.00    +0.000 C 
BRANCH  26  27
ATOM     27  C   UNL     1       1.726   3.569  21.250  0.00  0.00    +0.000 C 
ATOM     28  O   UNL     1       1.482   2.611  21.971  0.00  0.00    +0.000 OA
BRANCH  27  29
ATOM     29  O   UNL     1       2.534   4.574  21.636  0.00  0.00    +0.000 OA
ATOM     30  H   UNL     1       2.271   5.448  21.296  0.00  0.00    +0.000 HD
ENDBRANCH  27  29
ENDBRANCH  26  27
ENDBRANCH  25  26
ENDBRANCH  24  25
ENDBRANCH  23  24
ENDBRANCH  22  23
ENDBRANCH  21  22
ENDBRANCH   1  21
TORSDOF 17
ENDMDL
MODEL 2
REMARK VINA RESULT:      -6.4      5.890      7.406
REMARK  Name = 
REMARK  18 active torsions:
REMARK  status: ('A' for Active; 'I' for Inactive)
REMARK    1  A    between atoms: C_1  and  S_2
REMARK    2  A    between atoms: S_2  and  N_5
REMARK    3  A    between atoms: N_5  and  C_6
REMARK    4  A    between atoms: N_5  and  C_15
REMARK    5  A    between atoms: C_6  and  C_7
REMARK    6  A    between atoms: C_7  and  C_8
REMARK    7  A    between atoms: C_8  and  C_9
REMARK    8  A    between atoms: C_9  and  C_10
REMARK    9  A    between atoms: C_10  and  C_11
REMARK   10  A    between atoms: C_11  and  C_12
REMARK   11  A    between atoms: C_12  and  O_14
REMARK   12  A    between atoms: C_15  and  C_16
REMARK   13  A    between atoms: C_16  and  C_17
REMARK   14  A    between atoms: C_17  and  C_18
REMARK   15  A    between atoms: C_18  and  O_19
REMARK   16  A    between atoms: C_18  and  C_20
REMARK   17  A    between atoms: C_20  and  O_21
REMARK   18  A    between atoms: O_21  and  C_22
REMARK                            x       y       z     vdW  Elec       q    Type
REMARK                         _______ _______ _______ _____ _____    ______ ____
ROOT
ATOM      1  N   UNL     1       6.449   6.443  16.546  0.00  0.00    +0.000 NA
ENDROOT
BRANCH   1   3
ATOM      2  C   UNL     1       5.570   4.116  15.363  0.00  0.00    +0.000 C 
ATOM      3  S   UNL     1       7.047   5.044  15.706  0.00  0.00    +0.000 S 
ATOM      4  O   UNL     1       7.819   4.238  16.629  0.00  0.00    +0.000 OA
ATOM      5  O   UNL     1       7.607   5.487  14.448  0.00  0.00    +0.000 OA
ENDBRANCH   1   3
BRANCH   1   6
ATOM      6  C   UNL     1       6.870   6.545  17.992  0.00  0.00    +0.000 C 
BRANCH   6   7
ATOM      7  C   UNL     1       8.094   7.401  18.255  0.00  0.00    +0.000 C 
BRANCH   7   8
ATOM      8  C   UNL     1       8.018   8.794  17.602  0.00  0.00    +0.000 C 
BRANCH   8   9
ATOM      9  C   UNL     1       8.394   9.929  18.572  0.00  0.00    +0.000 C 
BRANCH   9  10
ATOM     10  O   UNL     1       9.365   9.432  19.493  0.00  0.00    +0.000 OA
ATOM     11  H   UNL     1       9.997   8.875  19.010  0.00  0.00    +0.000 HD
ENDBRANCH   9  10
BRANCH   9  12
ATOM     12  C   UNL     1       8.899  11.167  17.810  0.00  0.00    +0.000 C 
BRANCH  12  13
ATOM     13  O   UNL     1      10.300  11.373  17.973  0.00  0.00    +0.000 OA
BRANCH  13  14
ATOM     14  C   UNL     1      10.644  12.608  18.470  0.00  0.00    +0.000 A 
ATOM     15  C   UNL     1      10.900  12.915  19.814  0.00  0.00    +0.000 A 
ATOM     16  C   UNL     1      11.257  14.211  20.191  0.00  0.00    +0.000 A 
ATOM     17  C   UNL     1      11.358  15.211  19.227  0.00  0.00    +0.000 A 
ATOM     18  C   UNL     1      11.096  14.909  17.892  0.00  0.00    +0.000 A 
ATOM     19 CL   UNL     1      11.215  16.145  16.702  0.00  0.00    +0.000 Cl
ATOM     20  C   UNL     1      10.739  13.616  17.512  0.00  0.00    +0.000 A 
ENDBRANCH  13  14
ENDBRANCH  12  13
ENDBRANCH   9  12
ENDBRANCH   8   9
ENDBRANCH   7   8
ENDBRANCH   6   7
ENDBRANCH   1   6
BRANCH   1  21
ATOM     21  C   UNL     1       4.941   6.534  16.418  0.00  0.00    +0.000 C 
BRANCH  21  22
ATOM     22  C   UNL     1       4.274   7.069  17.688  0.00  0.00    +0.000 C 
BRANCH  22  23
ATOM     23  C   UNL     1       3.445   6.008  18.408  0.00  0.00    +0.000 C 
BRANCH  23  24
ATOM     24  C   UNL     1       2.479   6.684  19.388  0.00  0.00    +0.000 C 
BRANCH  24  25
ATOM     25  C   UNL     1       1.862   5.666  20.341  0.00  0.00    +0.000 C 
BRANCH  25  26
ATOM     26  C   UNL     1       2.571   4.315  20.270  0.00  0.00    +0.000 C 
BRANCH  26  27
ATOM     27  C   UNL     1       1.947   3.318  21.221  0.00  0.00    +0.000 C 
ATOM     28  O   UNL     1       2.505   2.824  22.192  0.00  0.00    +0.000 OA
BRANCH  27  29
ATOM     29  O   UNL     1       0.678   3.017  20.890  0.00  0.00    +0.000 OA
ATOM     30  H   UNL     1       0.556   2.781  19.952  0.00  0.00    +0.000 HD
ENDBRANCH  27  29
ENDBRANCH  26  27
ENDBRANCH  25  26
ENDBRANCH  24  25
ENDBRANCH  23  24
ENDBRANCH  22  23
ENDBRANCH  21  22
ENDBRANCH   1  21
TORSDOF 17
ENDMDL
MODEL 3
REMARK VINA RESULT:      -6.3      4.970      6.716
REMARK  Name = 
REMARK  18 active torsions:
REMARK  status: ('A' for Active; 'I' for Inactive)
REMARK    1  A    between atoms: C_1  and  S_2
REMARK    2  A    between atoms: S_2  and  N_5
REMARK    3  A    between atoms: N_5  and  C_6
REMARK    4  A    between atoms: N_5  and  C_15
REMARK    5  A    between atoms: C_6  and  C_7
REMARK    6  A    between atoms: C_7  and  C_8
REMARK    7  A    between atoms: C_8  and  C_9
REMARK    8  A    between atoms: C_9  and  C_10
REMARK    9  A    between atoms: C_10  and  C_11
REMARK   10  A    between atoms: C_11  and  C_12
REMARK   11  A    between atoms: C_12  and  O_14
REMARK   12  A    between atoms: C_15  and  C_16
REMARK   13  A    between atoms: C_16  and  C_17
REMARK   14  A    between atoms: C_17  and  C_18
REMARK   15  A    between atoms: C_18  and  O_19
REMARK   16  A    between atoms: C_18  and  C_20
REMARK   17  A    between atoms: C_20  and  O_21
REMARK   18  A    between atoms: O_21  and  C_22
REMARK                            x       y       z     vdW  Elec       q    Type
REMARK                         _______ _______ _______ _____ _____    ______ ____
ROOT
ATOM      1  N   UNL     1       5.340   4.665  16.737  0.00  0.00    +0.000 NA
ENDROOT
BRANCH   1   3
ATOM      2  C   UNL     1       5.429   4.030  14.058  0.00  0.00    +0.000 C 
ATOM      3  S   UNL     1       6.093   5.167  15.254  0.00  0.00    +0.000 S 
ATOM      4  O   UNL     1       7.511   4.881  15.330  0.00  0.00    +0.000 OA
ATOM      5  O   UNL     1       5.611   6.492  14.937  0.00  0.00    +0.000 OA
ENDBRANCH   1   3
BRANCH   1   6
ATOM      6  C   UNL     1       6.284   4.113  17.777  0.00  0.00    +0.000 C 
BRANCH   6   7
ATOM      7  C   UNL     1       7.516   4.954  18.049  0.00  0.00    +0.000 C 
BRANCH   7   8
ATOM      8  C   UNL     1       7.190   6.356  18.598  0.00  0.00    +0.000 C 
BRANCH   8   9
ATOM      9  C   UNL     1       7.830   7.486  17.769  0.00  0.00    +0.000 C 
BRANCH   9  10
ATOM     10  O   UNL     1       6.794   8.173  17.068  0.00  0.00    +0.000 OA
ATOM     11  H   UNL     1       6.569   8.981  17.557  0.00  0.00    +0.000 HD
ENDBRANCH   9  10
BRANCH   9  12
ATOM     12  C   UNL     1       8.652   8.432  18.661  0.00  0.00    +0.000 C 
BRANCH  12  13
ATOM     13  O   UNL     1       8.413   9.805  18.364  0.00  0.00    +0.000 OA
BRANCH  13  14
ATOM     14  C   UNL     1       9.326  10.677  18.908  0.00  0.00    +0.000 A 
ATOM     15  C   UNL     1       9.493  10.954  20.272  0.00  0.00    +0.000 A 
ATOM     16  C   UNL     1      10.472  11.854  20.700  0.00  0.00    +0.000 A 
ATOM     17  C   UNL     1      11.288  12.486  19.766  0.00  0.00    +0.000 A 
ATOM     18  C   UNL     1      11.118  12.219  18.410  0.00  0.00    +0.000 A 
ATOM     19 CL   UNL     1      12.123  13.003  17.255  0.00  0.00    +0.000 Cl
ATOM     20  C   UNL     1      10.142  11.321  17.978  0.00  0.00    +0.000 A 
ENDBRANCH  13  14
ENDBRANCH  12  13
ENDBRANCH   9  12
ENDBRANCH   8   9
ENDBRANCH   7   8
ENDBRANCH   6   7
ENDBRANCH   1   6
BRANCH   1  21
ATOM     21  C   UNL     1       4.218   3.684  16.457  0.00  0.00    +0.000 C 
BRANCH  21  22
ATOM     22  C   UNL     1       3.377   3.380  17.700  0.00  0.00    +0.000 C 
BRANCH  22  23
ATOM     23  C   UNL     1       2.132   4.257  17.798  0.00  0.00    +0.000 C 
BRANCH  23  24
ATOM     24  C   UNL     1       2.432   5.484  18.668  0.00  0.00    +0.000 C 
BRANCH  24  25
ATOM     25  C   UNL     1       3.063   5.076  19.994  0.00  0.00    +0.000 C 
BRANCH  25  26
ATOM     26  C   UNL     1       2.011   4.798  21.066  0.00  0.00    +0.000 C 
BRANCH  26  27
ATOM     27  C   UNL     1       1.949   3.325  21.404  0.00  0.00    +0.000 C 
ATOM     28  O   UNL     1       2.885   2.655  21.817  0.00  0.00    +0.000 OA
BRANCH  27  29
ATOM     29  O   UNL     1       0.723   2.804  21.206  0.00  0.00    +0.000 OA
ATOM     30  H   UNL     1      -0.005   3.436  21.347  0.00  0.00    +0.000 HD
ENDBRANCH  27  29
ENDBRANCH  26  27
ENDBRANCH  25  26
ENDBRANCH  24  25
ENDBRANCH  23  24
ENDBRANCH  22  23
ENDBRANCH  21  22
ENDBRANCH   1  21
TORSDOF 17
ENDMDL
MODEL 4
REMARK VINA RESULT:      -6.2      2.867      5.764
REMARK  Name = 
REMARK  18 active torsions:
REMARK  status: ('A' for Active; 'I' for Inactive)
REMARK    1  A    between atoms: C_1  and  S_2
REMARK    2  A    between atoms: S_2  and  N_5
REMARK    3  A    between atoms: N_5  and  C_6
REMARK    4  A    between atoms: N_5  and  C_15
REMARK    5  A    between atoms: C_6  and  C_7
REMARK    6  A    between atoms: C_7  and  C_8
REMARK    7  A    between atoms: C_8  and  C_9
REMARK    8  A    between atoms: C_9  and  C_10
REMARK    9  A    between atoms: C_10  and  C_11
REMARK   10  A    between atoms: C_11  and  C_12
REMARK   11  A    between atoms: C_12  and  O_14
REMARK   12  A    between atoms: C_15  and  C_16
REMARK   13  A    between atoms: C_16  and  C_17
REMARK   14  A    between atoms: C_17  and  C_18
REMARK   15  A    between atoms: C_18  and  O_19
REMARK   16  A    between atoms: C_18  and  C_20
REMARK   17  A    between atoms: C_20  and  O_21
REMARK   18  A    between atoms: O_21  and  C_22
REMARK                            x       y       z     vdW  Elec       q    Type
REMARK                         _______ _______ _______ _____ _____    ______ ____
ROOT
ATOM      1  N   UNL     1       5.650   4.730  18.004  0.00  0.00    +0.000 NA
ENDROOT
BRANCH   1   3
ATOM      2  C   UNL     1       7.853   5.870  19.202  0.00  0.00    +0.000 C 
ATOM      3  S   UNL     1       7.240   5.319  17.626  0.00  0.00    +0.000 S 
ATOM      4  O   UNL     1       7.117   6.509  16.809  0.00  0.00    +0.000 OA
ATOM      5  O   UNL     1       8.040   4.194  17.196  0.00  0.00    +0.000 OA
ENDBRANCH   1   3
BRANCH   1   6
ATOM      6  C   UNL     1       5.500   4.142  19.386  0.00  0.00    +0.000 C 
BRANCH   6   7
ATOM      7  C   UNL     1       4.254   3.307  19.606  0.00  0.00    +0.000 C 
BRANCH   7   8
ATOM      8  C   UNL     1       3.025   4.140  20.020  0.00  0.00    +0.000 C 
BRANCH   8   9
ATOM      9  C   UNL     1       1.859   4.020  19.020  0.00  0.00    +0.000 C 
BRANCH   9  10
ATOM     10  O   UNL     1       0.644   3.887  19.759  0.00  0.00    +0.000 OA
ATOM     11  H   UNL     1       0.600   4.601  20.417  0.00  0.00    +0.000 HD
ENDBRANCH   9  10
BRANCH   9  12
ATOM     12  C   UNL     1       1.824   5.222  18.061  0.00  0.00    +0.000 C 
BRANCH  12  13
ATOM     13  O   UNL     1       2.747   6.243  18.431  0.00  0.00    +0.000 OA
BRANCH  13  14
ATOM     14  C   UNL     1       2.174   7.460  18.713  0.00  0.00    +0.000 A 
ATOM     15  C   UNL     1       1.933   8.492  17.794  0.00  0.00    +0.000 A 
ATOM     16  C   UNL     1       1.328   9.682  18.206  0.00  0.00    +0.000 A 
ATOM     17  C   UNL     1       0.963   9.849  19.538  0.00  0.00    +0.000 A 
ATOM     18  C   UNL     1       1.209   8.828  20.453  0.00  0.00    +0.000 A 
ATOM     19 CL   UNL     1       0.761   9.037  22.101  0.00  0.00    +0.000 Cl
ATOM     20  C   UNL     1       1.813   7.639  20.047  0.00  0.00    +0.000 A 
ENDBRANCH  13  14
ENDBRANCH  12  13
ENDBRANCH   9  12
ENDBRANCH   8   9
ENDBRANCH   7   8
ENDBRANCH   6   7
ENDBRANCH   1   6
BRANCH   1  21
ATOM     21  C   UNL     1       5.183   3.747  16.949  0.00  0.00    +0.000 C 
BRANCH  21  22
ATOM     22  C   UNL     1       5.026   4.394  15.569  0.00  0.00    +0.000 C 
BRANCH  22  23
ATOM     23  C   UNL     1       5.704   3.591  14.463  0.00  0.00    +0.000 C 
BRANCH  23  24
ATOM     24  C   UNL     1       5.478   4.280  13.111  0.00  0.00    +0.000 C 
BRANCH  24  25
ATOM     25  C   UNL     1       6.165   3.517  11.985  0.00  0.00    +0.000 C 
BRANCH  25  26
ATOM     26  C   UNL     1       5.439   2.215  11.651  0.00  0.00    +0.000 C 
BRANCH  26  27
ATOM     27  C   UNL     1       6.408   1.146  11.199  0.00  0.00    +0.000 C 
ATOM     28  O   UNL     1       6.109  -0.008  10.925  0.00  0.00    +0.000 OA
BRANCH  27  29
ATOM     29  O   UNL     1       7.673   1.599  11.121  0.00  0.00    +0.000 OA
ATOM     30  H   UNL     1       7.752   2.569  11.177  0.00  0.00    +0.000 HD
ENDBRANCH  27  29
ENDBRANCH  26  27
ENDBRANCH  25  26
ENDBRANCH  24  25
ENDBRANCH  23  24
ENDBRANCH  22  23
ENDBRANCH  21  22
ENDBRANCH   1  21
TORSDOF 17
ENDMDL
MODEL 5
REMARK VINA RESULT:      -6.1      2.678      3.218
REMARK  Name = 
REMARK  18 active torsions:
REMARK  status: ('A' for Active; 'I' for Inactive)
REMARK    1  A    between atoms: C_1  and  S_2
REMARK    2  A    between atoms: S_2  and  N_5
REMARK    3  A    between atoms: N_5  and  C_6
REMARK    4  A    between atoms: N_5  and  C_15
REMARK    5  A    between atoms: C_6  and  C_7
REMARK    6  A    between atoms: C_7  and  C_8
REMARK    7  A    between atoms: C_8  and  C_9
REMARK    8  A    between atoms: C_9  and  C_10
REMARK    9  A    between atoms: C_10  and  C_11
REMARK   10  A    between atoms: C_11  and  C_12
REMARK   11  A    between atoms: C_12  and  O_14
REMARK   12  A    between atoms: C_15  and  C_16
REMARK   13  A    between atoms: C_16  and  C_17
REMARK   14  A    between atoms: C_17  and  C_18
REMARK   15  A    between atoms: C_18  and  O_19
REMARK   16  A    between atoms: C_18  and  C_20
REMARK   17  A    between atoms: C_20  and  O_21
REMARK   18  A    between atoms: O_21  and  C_22
REMARK                            x       y       z     vdW  Elec       q    Type
REMARK                         _______ _______ _______ _____ _____    ______ ____
ROOT
ATOM      1  N   UNL     1       5.303   5.609  17.411  0.00  0.00    +0.000 NA
ENDROOT
BRANCH   1   3
ATOM      2  C   UNL     1       6.619   4.626  15.200  0.00  0.00    +0.000 C 
ATOM      3  S   UNL     1       6.906   5.403  16.774  0.00  0.00    +0.000 S 
ATOM      4  O   UNL     1       7.607   4.423  17.579  0.00  0.00    +0.000 OA
ATOM      5  O   UNL     1       7.463   6.716  16.538  0.00  0.00    +0.000 OA
ENDBRANCH   1   3
BRANCH   1   6
ATOM      6  C   UNL     1       4.674   6.952  17.134  0.00  0.00    +0.000 C 
BRANCH   6   7
ATOM      7  C   UNL     1       3.609   7.390  18.121  0.00  0.00    +0.000 C 
BRANCH   7   8
ATOM      8  C   UNL     1       2.306   7.858  17.447  0.00  0.00    +0.000 C 
BRANCH   8   9
ATOM      9  C   UNL     1       1.766   9.173  18.041  0.00  0.00    +0.000 C 
BRANCH   9  10
ATOM     10  O   UNL     1       2.419  10.263  17.390  0.00  0.00    +0.000 OA
ATOM     11  H   UNL     1       2.580  10.022  16.463  0.00  0.00    +0.000 HD
ENDBRANCH   9  10
BRANCH   9  12
ATOM     12  C   UNL     1       0.235   9.254  17.911  0.00  0.00    +0.000 C 
BRANCH  12  13
ATOM     13  O   UNL     1      -0.302  10.430  18.510  0.00  0.00    +0.000 OA
BRANCH  13  14
ATOM     14  C   UNL     1      -1.581  10.742  18.117  0.00  0.00    +0.000 A 
ATOM     15  C   UNL     1      -2.534  11.434  18.879  0.00  0.00    +0.000 A 
ATOM     16  C   UNL     1      -3.801  11.703  18.357  0.00  0.00    +0.000 A 
ATOM     17  C   UNL     1      -4.126  11.280  17.071  0.00  0.00    +0.000 A 
ATOM     18  C   UNL     1      -3.183  10.585  16.316  0.00  0.00    +0.000 A 
ATOM     19 CL   UNL     1      -3.585  10.058  14.729  0.00  0.00    +0.000 Cl
ATOM     20  C   UNL     1      -1.917  10.314  16.833  0.00  0.00    +0.000 A 
ENDBRANCH  13  14
ENDBRANCH  12  13
ENDBRANCH   9  12
ENDBRANCH   8   9
ENDBRANCH   7   8
ENDBRANCH   6   7
ENDBRANCH   1   6
BRANCH   1  21
ATOM     21  C   UNL     1       5.278   5.301  18.896  0.00  0.00    +0.000 C 
BRANCH  21  22
ATOM     22  C   UNL     1       4.480   4.036  19.222  0.00  0.00    +0.000 C 
BRANCH  22  23
ATOM     23  C   UNL     1       3.809   3.430  17.992  0.00  0.00    +0.000 C 
BRANCH  23  24
ATOM     24  C   UNL     1       2.352   3.900  17.914  0.00  0.00    +0.000 C 
BRANCH  24  25
ATOM     25  C   UNL     1       1.397   2.808  18.382  0.00  0.00    +0.000 C 
BRANCH  25  26
ATOM     26  C   UNL     1       1.794   2.248  19.747  0.00  0.00    +0.000 C 
BRANCH  26  27
ATOM     27  C   UNL     1       1.334   3.154  20.867  0.00  0.00    +0.000 C 
ATOM     28  O   UNL     1       0.932   4.301  20.728  0.00  0.00    +0.000 OA
BRANCH  27  29
ATOM     29  O   UNL     1       1.407   2.558  22.072  0.00  0.00    +0.000 OA
ATOM     30  H   UNL     1       2.108   2.913  22.649  0.00  0.00    +0.000 HD
ENDBRANCH  27  29
ENDBRANCH  26  27
ENDBRANCH  25  26
ENDBRANCH  24  25
ENDBRANCH  23  24
ENDBRANCH  22  23
ENDBRANCH  21  22
ENDBRANCH   1  21
TORSDOF 17
ENDMDL
MODEL 6
REMARK VINA RESULT:      -6.1      5.402      7.119
REMARK  Name = 
REMARK  18 active torsions:
REMARK  status: ('A' for Active; 'I' for Inactive)
REMARK    1  A    between atoms: C_1  and  S_2
REMARK    2  A    between atoms: S_2  and  N_5
REMARK    3  A    between atoms: N_5  and  C_6
REMARK    4  A    between atoms: N_5  and  C_15
REMARK    5  A    between atoms: C_6  and  C_7
REMARK    6  A    between atoms: C_7  and  C_8
REMARK    7  A    between atoms: C_8  and  C_9
REMARK    8  A    between atoms: C_9  and  C_10
REMARK    9  A    between atoms: C_10  and  C_11
REMARK   10  A    between atoms: C_11  and  C_12
REMARK   11  A    between atoms: C_12  and  O_14
REMARK   12  A    between atoms: C_15  and  C_16
REMARK   13  A    between atoms: C_16  and  C_17
REMARK   14  A    between atoms: C_17  and  C_18
REMARK   15  A    between atoms: C_18  and  O_19
REMARK   16  A    between atoms: C_18  and  C_20
REMARK   17  A    between atoms: C_20  and  O_21
REMARK   18  A    between atoms: O_21  and  C_22
REMARK                            x       y       z     vdW  Elec       q    Type
REMARK                         _______ _______ _______ _____ _____    ______ ____
ROOT
ATOM      1  N   UNL     1       5.905   5.550  17.323  0.00  0.00    +0.000 NA
ENDROOT
BRANCH   1   3
ATOM      2  C   UNL     1       6.836   5.300  14.743  0.00  0.00    +0.000 C 
ATOM      3  S   UNL     1       6.695   4.410  16.276  0.00  0.00    +0.000 S 
ATOM      4  O   UNL     1       5.791   3.309  16.016  0.00  0.00    +0.000 OA
ATOM      5  O   UNL     1       8.026   4.181  16.792  0.00  0.00    +0.000 OA
ENDBRANCH   1   3
BRANCH   1   6
ATOM      6  C   UNL     1       6.824   6.307  18.251  0.00  0.00    +0.000 C 
BRANCH   6   7
ATOM      7  C   UNL     1       7.443   7.564  17.672  0.00  0.00    +0.000 C 
BRANCH   7   8
ATOM      8  C   UNL     1       8.534   8.178  18.569  0.00  0.00    +0.000 C 
BRANCH   8   9
ATOM      9  C   UNL     1       8.803   9.661  18.252  0.00  0.00    +0.000 C 
BRANCH   9  10
ATOM     10  O   UNL     1       7.665  10.190  17.572  0.00  0.00    +0.000 OA
ATOM     11  H   UNL     1       7.967  10.849  16.924  0.00  0.00    +0.000 HD
ENDBRANCH   9  10
BRANCH   9  12
ATOM     12  C   UNL     1       9.133  10.452  19.530  0.00  0.00    +0.000 C 
BRANCH  12  13
ATOM     13  O   UNL     1      10.467  10.953  19.532  0.00  0.00    +0.000 OA
BRANCH  13  14
ATOM     14  C   UNL     1      10.682  12.016  18.688  0.00  0.00    +0.000 A 
ATOM     15  C   UNL     1      11.629  12.072  17.655  0.00  0.00    +0.000 A 
ATOM     16  C   UNL     1      11.740  13.211  16.854  0.00  0.00    +0.000 A 
ATOM     17  C   UNL     1      10.906  14.302  17.081  0.00  0.00    +0.000 A 
ATOM     18  C   UNL     1       9.971  14.251  18.112  0.00  0.00    +0.000 A 
ATOM     19 CL   UNL     1       8.944  15.602  18.396  0.00  0.00    +0.000 Cl
ATOM     20  C   UNL     1       9.857  13.117  18.915  0.00  0.00    +0.000 A 
ENDBRANCH  13  14
ENDBRANCH  12  13
ENDBRANCH   9  12
ENDBRANCH   8   9
ENDBRANCH   7   8
ENDBRANCH   6   7
ENDBRANCH   1   6
BRANCH   1  21
ATOM     21  C   UNL     1       4.794   4.873  18.102  0.00  0.00    +0.000 C 
BRANCH  21  22
ATOM     22  C   UNL     1       3.596   5.797  18.342  0.00  0.00    +0.000 C 
BRANCH  22  23
ATOM     23  C   UNL     1       2.279   5.184  17.874  0.00  0.00    +0.000 C 
BRANCH  23  24
ATOM     24  C   UNL     1       2.502   3.721  17.475  0.00  0.00    +0.000 C 
BRANCH  24  25
ATOM     25  C   UNL     1       1.640   2.785  18.314  0.00  0.00    +0.000 C 
BRANCH  25  26
ATOM     26  C   UNL     1       2.308   2.429  19.641  0.00  0.00    +0.000 C 
BRANCH  26  27
ATOM     27  C   UNL     1       1.482   2.903  20.816  0.00  0.00    +0.000 C 
ATOM     28  O   UNL     1       1.757   2.716  21.993  0.00  0.00    +0.000 OA
BRANCH  27  29
ATOM     29  O   UNL     1       0.381   3.576  20.432  0.00  0.00    +0.000 OA
ATOM     30  H   UNL     1      -0.203   3.075  19.834  0.00  0.00    +0.000 HD
ENDBRANCH  27  29
ENDBRANCH  26  27
ENDBRANCH  25  26
ENDBRANCH  24  25
ENDBRANCH  23  24
ENDBRANCH  22  23
ENDBRANCH  21  22
ENDBRANCH   1  21
TORSDOF 17
ENDMDL
MODEL 7
REMARK VINA RESULT:      -6.1      2.137      2.697
REMARK  Name = 
REMARK  18 active torsions:
REMARK  status: ('A' for Active; 'I' for Inactive)
REMARK    1  A    between atoms: C_1  and  S_2
REMARK    2  A    between atoms: S_2  and  N_5
REMARK    3  A    between atoms: N_5  and  C_6
REMARK    4  A    between atoms: N_5  and  C_15
REMARK    5  A    between atoms: C_6  and  C_7
REMARK    6  A    between atoms: C_7  and  C_8
REMARK    7  A    between atoms: C_8  and  C_9
REMARK    8  A    between atoms: C_9  and  C_10
REMARK    9  A    between atoms: C_10  and  C_11
REMARK   10  A    between atoms: C_11  and  C_12
REMARK   11  A    between atoms: C_12  and  O_14
REMARK   12  A    between atoms: C_15  and  C_16
REMARK   13  A    between atoms: C_16  and  C_17
REMARK   14  A    between atoms: C_17  and  C_18
REMARK   15  A    between atoms: C_18  and  O_19
REMARK   16  A    between atoms: C_18  and  C_20
REMARK   17  A    between atoms: C_20  and  O_21
REMARK   18  A    between atoms: O_21  and  C_22
REMARK                            x       y       z     vdW  Elec       q    Type
REMARK                         _______ _______ _______ _____ _____    ______ ____
ROOT
ATOM      1  N   UNL     1       4.288   5.301  17.152  0.00  0.00    +0.000 NA
ENDROOT
BRANCH   1   3
ATOM      2  C   UNL     1       6.981   5.623  16.673  0.00  0.00    +0.000 C 
ATOM      3  S   UNL     1       5.401   5.623  15.857  0.00  0.00    +0.000 S 
ATOM      4  O   UNL     1       5.195   6.978  15.389  0.00  0.00    +0.000 OA
ATOM      5  O   UNL     1       5.360   4.501  14.947  0.00  0.00    +0.000 OA
ENDBRANCH   1   3
BRANCH   1   6
ATOM      6  C   UNL     1       3.930   6.499  17.997  0.00  0.00    +0.000 C 
BRANCH   6   7
ATOM      7  C   UNL     1       2.498   6.983  17.868  0.00  0.00    +0.000 C 
BRANCH   7   8
ATOM      8  C   UNL     1       2.281   8.406  18.417  0.00  0.00    +0.000 C 
BRANCH   8   9
ATOM      9  C   UNL     1       1.377   8.433  19.664  0.00  0.00    +0.000 C 
BRANCH   9  10
ATOM     10  O   UNL     1       2.114   7.905  20.767  0.00  0.00    +0.000 OA
ATOM     11  H   UNL     1       2.473   8.645  21.284  0.00  0.00    +0.000 HD
ENDBRANCH   9  10
BRANCH   9  12
ATOM     12  C   UNL     1       0.857   9.854  19.942  0.00  0.00    +0.000 C 
BRANCH  12  13
ATOM     13  O   UNL     1       0.566  10.572  18.746  0.00  0.00    +0.000 OA
BRANCH  13  14
ATOM     14  C   UNL     1      -0.761  10.573  18.385  0.00  0.00    +0.000 A 
ATOM     15  C   UNL     1      -1.347   9.775  17.392  0.00  0.00    +0.000 A 
ATOM     16  C   UNL     1      -2.716   9.860  17.129  0.00  0.00    +0.000 A 
ATOM     17  C   UNL     1      -3.508  10.745  17.855  0.00  0.00    +0.000 A 
ATOM     18  C   UNL     1      -2.925  11.545  18.836  0.00  0.00    +0.000 A 
ATOM     19 CL   UNL     1      -3.903  12.642  19.730  0.00  0.00    +0.000 Cl
ATOM     20  C   UNL     1      -1.559  11.463  19.102  0.00  0.00    +0.000 A 
ENDBRANCH  13  14
ENDBRANCH  12  13
ENDBRANCH   9  12
ENDBRANCH   8   9
ENDBRANCH   7   8
ENDBRANCH   6   7
ENDBRANCH   1   6
BRANCH   1  21
ATOM     21  C   UNL     1       4.796   4.166  18.019  0.00  0.00    +0.000 C 
BRANCH  21  22
ATOM     22  C   UNL     1       3.881   2.938  17.977  0.00  0.00    +0.000 C 
BRANCH  22  23
ATOM     23  C   UNL     1       2.586   3.195  17.212  0.00  0.00    +0.000 C 
BRANCH  23  24
ATOM     24  C   UNL     1       1.385   2.833  18.093  0.00  0.00    +0.000 C 
BRANCH  24  25
ATOM     25  C   UNL     1       1.329   3.715  19.334  0.00  0.00    +0.000 C 
BRANCH  25  26
ATOM     26  C   UNL     1       1.160   2.894  20.611  0.00  0.00    +0.000 C 
BRANCH  26  27
ATOM     27  C   UNL     1       2.446   2.844  21.406  0.00  0.00    +0.000 C 
ATOM     28  O   UNL     1       3.462   2.254  21.067  0.00  0.00    +0.000 OA
BRANCH  27  29
ATOM     29  O   UNL     1       2.365   3.535  22.558  0.00  0.00    +0.000 OA
ATOM     30  H   UNL     1       2.479   4.498  22.454  0.00  0.00    +0.000 HD
ENDBRANCH  27  29
ENDBRANCH  26  27
ENDBRANCH  25  26
ENDBRANCH  24  25
ENDBRANCH  23  24
ENDBRANCH  22  23
ENDBRANCH  21  22
ENDBRANCH   1  21
TORSDOF 17
ENDMDL
MODEL 8
REMARK VINA RESULT:      -6.0      5.898      7.306
REMARK  Name = 
REMARK  18 active torsions:
REMARK  status: ('A' for Active; 'I' for Inactive)
REMARK    1  A    between atoms: C_1  and  S_2
REMARK    2  A    between atoms: S_2  and  N_5
REMARK    3  A    between atoms: N_5  and  C_6
REMARK    4  A    between atoms: N_5  and  C_15
REMARK    5  A    between atoms: C_6  and  C_7
REMARK    6  A    between atoms: C_7  and  C_8
REMARK    7  A    between atoms: C_8  and  C_9
REMARK    8  A    between atoms: C_9  and  C_10
REMARK    9  A    between atoms: C_10  and  C_11
REMARK   10  A    between atoms: C_11  and  C_12
REMARK   11  A    between atoms: C_12  and  O_14
REMARK   12  A    between atoms: C_15  and  C_16
REMARK   13  A    between atoms: C_16  and  C_17
REMARK   14  A    between atoms: C_17  and  C_18
REMARK   15  A    between atoms: C_18  and  O_19
REMARK   16  A    between atoms: C_18  and  C_20
REMARK   17  A    between atoms: C_20  and  O_21
REMARK   18  A    between atoms: O_21  and  C_22
REMARK                            x       y       z     vdW  Elec       q    Type
REMARK                         _______ _______ _______ _____ _____    ______ ____
ROOT
ATOM      1  N   UNL     1       6.334   6.376  16.387  0.00  0.00    +0.000 NA
ENDROOT
BRANCH   1   3
ATOM      2  C   UNL     1       5.875   3.808  15.504  0.00  0.00    +0.000 C 
ATOM      3  S   UNL     1       7.182   4.975  15.806  0.00  0.00    +0.000 S 
ATOM      4  O   UNL     1       7.967   4.420  16.891  0.00  0.00    +0.000 OA
ATOM      5  O   UNL     1       7.789   5.315  14.539  0.00  0.00    +0.000 OA
ENDBRANCH   1   3
BRANCH   1   6
ATOM      6  C   UNL     1       6.900   6.987  17.646  0.00  0.00    +0.000 C 
BRANCH   6   7
ATOM      7  C   UNL     1       7.640   8.297  17.458  0.00  0.00    +0.000 C 
BRANCH   7   8
ATOM      8  C   UNL     1       8.589   8.636  18.623  0.00  0.00    +0.000 C 
BRANCH   8   9
ATOM      9  C   UNL     1       9.135  10.074  18.549  0.00  0.00    +0.000 C 
BRANCH   9  10
ATOM     10  O   UNL     1       8.279  10.838  17.700  0.00  0.00    +0.000 OA
ATOM     11  H   UNL     1       8.326  10.473  16.801  0.00  0.00    +0.000 HD
ENDBRANCH   9  10
BRANCH   9  12
ATOM     12  C   UNL     1       9.261  10.693  19.952  0.00  0.00    +0.000 C 
BRANCH  12  13
ATOM     13  O   UNL     1      10.598  11.078  20.260  0.00  0.00    +0.000 OA
BRANCH  13  14
ATOM     14  C   UNL     1      10.890  12.396  20.005  0.00  0.00    +0.000 A 
ATOM     15  C   UNL     1      11.573  12.889  18.884  0.00  0.00    +0.000 A 
ATOM     16  C   UNL     1      11.795  14.260  18.733  0.00  0.00    +0.000 A 
ATOM     17  C   UNL     1      11.338  15.147  19.703  0.00  0.00    +0.000 A 
ATOM     18  C   UNL     1      10.666  14.659  20.821  0.00  0.00    +0.000 A 
ATOM     19 CL   UNL     1      10.105  15.755  22.022  0.00  0.00    +0.000 Cl
ATOM     20  C   UNL     1      10.443  13.291  20.976  0.00  0.00    +0.000 A 
ENDBRANCH  13  14
ENDBRANCH  12  13
ENDBRANCH   9  12
ENDBRANCH   8   9
ENDBRANCH   7   8
ENDBRANCH   6   7
ENDBRANCH   1   6
BRANCH   1  21
ATOM     21  C   UNL     1       4.858   6.072  16.554  0.00  0.00    +0.000 C 
BRANCH  21  22
ATOM     22  C   UNL     1       4.389   6.211  18.005  0.00  0.00    +0.000 C 
BRANCH  22  23
ATOM     23  C   UNL     1       2.913   5.866  18.182  0.00  0.00    +0.000 C 
BRANCH  23  24
ATOM     24  C   UNL     1       2.479   6.172  19.620  0.00  0.00    +0.000 C 
BRANCH  24  25
ATOM     25  C   UNL     1       2.364   4.894  20.443  0.00  0.00    +0.000 C 
BRANCH  25  26
ATOM     26  C   UNL     1       1.028   4.189  20.220  0.00  0.00    +0.000 C 
BRANCH  26  27
ATOM     27  C   UNL     1       1.204   2.919  19.418  0.00  0.00    +0.000 C 
ATOM     28  O   UNL     1       0.530   2.597  18.449  0.00  0.00    +0.000 OA
BRANCH  27  29
ATOM     29  O   UNL     1       2.208   2.153  19.883  0.00  0.00    +0.000 OA
ATOM     30  H   UNL     1       2.544   2.425  20.757  0.00  0.00    +0.000 HD
ENDBRANCH  27  29
ENDBRANCH  26  27
ENDBRANCH  25  26
ENDBRANCH  24  25
ENDBRANCH  23  24
ENDBRANCH  22  23
ENDBRANCH  21  22
ENDBRANCH   1  21
TORSDOF 17
ENDMDL
MODEL 9
REMARK VINA RESULT:      -6.0      1.747      2.593
REMARK  Name = 
REMARK  18 active torsions:
REMARK  status: ('A' for Active; 'I' for Inactive)
REMARK    1  A    between atoms: C_1  and  S_2
REMARK    2  A    between atoms: S_2  and  N_5
REMARK    3  A    between atoms: N_5  and  C_6
REMARK    4  A    between atoms: N_5  and  C_15
REMARK    5  A    between atoms: C_6  and  C_7
REMARK    6  A    between atoms: C_7  and  C_8
REMARK    7  A    between atoms: C_8  and  C_9
REMARK    8  A    between atoms: C_9  and  C_10
REMARK    9  A    between atoms: C_10  and  C_11
REMARK   10  A    between atoms: C_11  and  C_12
REMARK   11  A    between atoms: C_12  and  O_14
REMARK   12  A    between atoms: C_15  and  C_16
REMARK   13  A    between atoms: C_16  and  C_17
REMARK   14  A    between atoms: C_17  and  C_18
REMARK   15  A    between atoms: C_18  and  O_19
REMARK   16  A    between atoms: C_18  and  C_20
REMARK   17  A    between atoms: C_20  and  O_21
REMARK   18  A    between atoms: O_21  and  C_22
REMARK                            x       y       z     vdW  Elec       q    Type
REMARK                         _______ _______ _______ _____ _____    ______ ____
ROOT
ATOM      1  N   UNL     1       5.340   5.028  17.220  0.00  0.00    +0.000 NA
ENDROOT
BRANCH   1   3
ATOM      2  C   UNL     1       7.319   6.938  17.364  0.00  0.00    +0.000 C 
ATOM      3  S   UNL     1       6.926   5.379  16.604  0.00  0.00    +0.000 S 
ATOM      4  O   UNL     1       6.828   5.643  15.182  0.00  0.00    +0.000 OA
ATOM      5  O   UNL     1       7.835   4.380  17.120  0.00  0.00    +0.000 OA
ENDBRANCH   1   3
BRANCH   1   6
ATOM      6  C   UNL     1       5.243   4.952  18.724  0.00  0.00    +0.000 C 
BRANCH   6   7
ATOM      7  C   UNL     1       4.116   5.753  19.345  0.00  0.00    +0.000 C 
BRANCH   7   8
ATOM      8  C   UNL     1       3.433   6.717  18.356  0.00  0.00    +0.000 C 
BRANCH   8   9
ATOM      9  C   UNL     1       2.159   7.362  18.933  0.00  0.00    +0.000 C 
BRANCH   9  10
ATOM     10  O   UNL     1       2.271   7.387  20.356  0.00  0.00    +0.000 OA
ATOM     11  H   UNL     1       1.379   7.408  20.739  0.00  0.00    +0.000 HD
ENDBRANCH   9  10
BRANCH   9  12
ATOM     12  C   UNL     1       1.930   8.765  18.345  0.00  0.00    +0.000 C 
BRANCH  12  13
ATOM     13  O   UNL     1       1.092   9.571  19.168  0.00  0.00    +0.000 OA
BRANCH  13  14
ATOM     14  C   UNL     1       1.232  10.925  18.978  0.00  0.00    +0.000 A 
ATOM     15  C   UNL     1       2.218  11.552  18.203  0.00  0.00    +0.000 A 
ATOM     16  C   UNL     1       2.245  12.944  18.079  0.00  0.00    +0.000 A 
ATOM     17  C   UNL     1       1.288  13.717  18.730  0.00  0.00    +0.000 A 
ATOM     18  C   UNL     1       0.313  13.095  19.507  0.00  0.00    +0.000 A 
ATOM     19 CL   UNL     1      -0.867  14.051  20.315  0.00  0.00    +0.000 Cl
ATOM     20  C   UNL     1       0.283  11.707  19.634  0.00  0.00    +0.000 A 
ENDBRANCH  13  14
ENDBRANCH  12  13
ENDBRANCH   9  12
ENDBRANCH   8   9
ENDBRANCH   7   8
ENDBRANCH   6   7
ENDBRANCH   1   6
BRANCH   1  21
ATOM     21  C   UNL     1       4.790   3.767  16.582  0.00  0.00    +0.000 C 
BRANCH  21  22
ATOM     22  C   UNL     1       4.217   2.789  17.611  0.00  0.00    +0.000 C 
BRANCH  22  23
ATOM     23  C   UNL     1       2.802   2.332  17.265  0.00  0.00    +0.000 C 
BRANCH  23  24
ATOM     24  C   UNL     1       1.963   2.236  18.545  0.00  0.00    +0.000 C 
BRANCH  24  25
ATOM     25  C   UNL     1       1.279   3.563  18.854  0.00  0.00    +0.000 C 
BRANCH  25  26
ATOM     26  C   UNL     1       0.657   3.574  20.249  0.00  0.00    +0.000 C 
BRANCH  26  27
ATOM     27  C   UNL     1       1.721   3.577  21.324  0.00  0.00    +0.000 C 
ATOM     28  O   UNL     1       2.446   4.524  21.596  0.00  0.00    +0.000 OA
BRANCH  27  29
ATOM     29  O   UNL     1       1.795   2.402  21.977  0.00  0.00    +0.000 OA
ATOM     30  H   UNL     1       2.691   2.021  22.010  0.00  0.00    +0.000 HD
ENDBRANCH  27  29
ENDBRANCH  26  27
ENDBRANCH  25  26
ENDBRANCH  24  25
ENDBRANCH  23  24
ENDBRANCH  22  23
ENDBRANCH  21  22
ENDBRANCH   1  21
TORSDOF 17
ENDMDL
