MODEL 1
REMARK VINA RESULT:      -7.7      0.000      0.000
REMARK  Name = 
REMARK  6 active torsions:
REMARK  status: ('A' for Active; 'I' for Inactive)
REMARK    1  A    between atoms: N_1  and  C_2
REMARK    2  A    between atoms: C_2  and  C_3
REMARK    3  A    between atoms: C_2  and  C_14
REMARK    4  A    between atoms: C_3  and  S_4
REMARK    5  A    between atoms: S_4  and  C_7
REMARK    6  A    between atoms: C_7  and  C_8
REMARK                            x       y       z     vdW  Elec       q    Type
REMARK                         _______ _______ _______ _____ _____    ______ ____
ROOT
ATOM      1  C   UNL     1       5.554   4.437  17.586  0.00  0.00    +0.000 C 
ENDROOT
BRANCH   1   2
ATOM      2  S   UNL     1       5.434   4.590  19.363  0.00  0.00    +0.000 S 
ATOM      3  O   UNL     1       5.111   3.271  19.879  0.00  0.00    +0.000 OA
ATOM      4  O   UNL     1       6.623   5.297  19.799  0.00  0.00    +0.000 OA
BRANCH   2   5
ATOM      5  C   UNL     1       3.997   5.635  19.621  0.00  0.00    +0.000 C 
BRANCH   5   6
ATOM      6  C   UNL     1       2.784   4.735  19.648  0.00  0.00    +0.000 A 
ATOM      7  C   UNL     1       2.277   4.266  20.868  0.00  0.00    +0.000 A 
ATOM      8  C   UNL     1       1.235   3.337  20.891  0.00  0.00    +0.000 A 
ATOM      9  C   UNL     1       0.691   2.866  19.698  0.00  0.00    +0.000 A 
ATOM     10  C   UNL     1       1.176   3.334  18.479  0.00  0.00    +0.000 A 
ATOM     11  C   UNL     1       2.213   4.267  18.453  0.00  0.00    +0.000 A 
ENDBRANCH   5   6
ENDBRANCH   2   5
ENDBRANCH   1   2
BRANCH   1  12
ATOM     12  C   UNL     1       6.840   5.080  17.030  0.00  0.00    +0.000 C 
BRANCH  12  13
ATOM     13  C   UNL     1       7.248   4.550  15.628  0.00  0.00    +0.000 C 
ATOM     14  C   UNL     1       6.146   3.851  14.854  0.00  0.00    +0.000 C 
ATOM     15  C   UNL     1       6.641   4.172  13.500  0.00  0.00    +0.000 C 
ATOM     16 BR   UNL     1       6.071   3.256  11.998  0.00  0.00    +0.000 Br
ATOM     17  N   UNL     1       7.462   5.164  13.420  0.00  0.00    +0.000 NA
ATOM     18  O   UNL     1       7.658   5.622  14.751  0.00  0.00    +0.000 OA
ENDBRANCH  12  13
BRANCH  12  19
ATOM     19  N   UNL     1       6.708   6.552  17.044  0.00  0.00    +0.000 NA
ATOM     20  H   UNL     1       5.736   6.851  17.020  0.00  0.00    +0.000 HD
ATOM     21  H   UNL     1       7.210   7.005  16.285  0.00  0.00    +0.000 HD
ENDBRANCH  12  19
ENDBRANCH   1  12
TORSDOF 6
ENDMDL
MODEL 2
REMARK VINA RESULT:      -7.6      1.095      1.252
REMARK  Name = 
REMARK  6 active torsions:
REMARK  status: ('A' for Active; 'I' for Inactive)
REMARK    1  A    between atoms: N_1  and  C_2
REMARK    2  A    between atoms: C_2  and  C_3
REMARK    3  A    between atoms: C_2  and  C_14
REMARK    4  A    between atoms: C_3  and  S_4
REMARK    5  A    between atoms: S_4  and  C_7
REMARK    6  A    between atoms: C_7  and  C_8
REMARK                            x       y       z     vdW  Elec       q    Type
REMARK                         _______ _______ _______ _____ _____    ______ ____
ROOT
ATOM      1  C   UNL     1       5.412   5.761  17.476  0.00  0.00    +0.000 C 
ENDROOT
BRANCH   1   2
ATOM      2  S   UNL     1       5.193   5.179  19.152  0.00  0.00    +0.000 S 
ATOM      3  O   UNL     1       6.489   5.271  19.802  0.00  0.00    +0.000 OA
ATOM      4  O   UNL     1       4.034   5.870  19.683  0.00  0.00    +0.000 OA
BRANCH   2   5
ATOM      5  C   UNL     1       4.808   3.434  18.967  0.00  0.00    +0.000 C 
BRANCH   5   6
ATOM      6  C   UNL     1       3.337   3.263  19.261  0.00  0.00    +0.000 A 
ATOM      7  C   UNL     1       2.900   3.001  20.567  0.00  0.00    +0.000 A 
ATOM      8  C   UNL     1       1.557   2.721  20.822  0.00  0.00    +0.000 A 
ATOM      9  C   UNL     1       0.637   2.698  19.776  0.00  0.00    +0.000 A 
ATOM     10  C   UNL     1       1.054   2.970  18.476  0.00  0.00    +0.000 A 
ATOM     11  C   UNL     1       2.395   3.257  18.219  0.00  0.00    +0.000 A 
ENDBRANCH   5   6
ENDBRANCH   2   5
ENDBRANCH   1   2
BRANCH   1  12
ATOM     12  C   UNL     1       6.888   5.719  17.032  0.00  0.00    +0.000 C 
BRANCH  12  13
ATOM     13  C   UNL     1       7.131   4.880  15.748  0.00  0.00    +0.000 C 
ATOM     14  C   UNL     1       5.880   4.341  15.079  0.00  0.00    +0.000 C 
ATOM     15  C   UNL     1       6.410   4.304  13.701  0.00  0.00    +0.000 C 
ATOM     16 BR   UNL     1       5.610   3.310  12.362  0.00  0.00    +0.000 Br
ATOM     17  N   UNL     1       7.441   5.046  13.473  0.00  0.00    +0.000 NA
ATOM     18  O   UNL     1       7.766   5.661  14.712  0.00  0.00    +0.000 OA
ENDBRANCH  12  13
BRANCH  12  19
ATOM     19  N   UNL     1       7.407   7.095  16.895  0.00  0.00    +0.000 NA
ATOM     20  H   UNL     1       7.250   7.651  17.732  0.00  0.00    +0.000 HD
ATOM     21  H   UNL     1       7.022   7.590  16.095  0.00  0.00    +0.000 HD
ENDBRANCH  12  19
ENDBRANCH   1  12
TORSDOF 6
ENDMDL
MODEL 3
REMARK VINA RESULT:      -7.6      1.076      1.638
REMARK  Name = 
REMARK  6 active torsions:
REMARK  status: ('A' for Active; 'I' for Inactive)
REMARK    1  A    between atoms: N_1  and  C_2
REMARK    2  A    between atoms: C_2  and  C_3
REMARK    3  A    between atoms: C_2  and  C_14
REMARK    4  A    between atoms: C_3  and  S_4
REMARK    5  A    between atoms: S_4  and  C_7
REMARK    6  A    between atoms: C_7  and  C_8
REMARK                            x       y       z     vdW  Elec       q    Type
REMARK                         _______ _______ _______ _____ _____    ______ ____
ROOT
ATOM      1  C   UNL     1       5.328   4.770  17.505  0.00  0.00    +0.000 C 
ENDROOT
BRANCH   1   2
ATOM      2  S   UNL     1       5.209   4.748  19.289  0.00  0.00    +0.000 S 
ATOM      3  O   UNL     1       6.538   5.029  19.803  0.00  0.00    +0.000 OA
ATOM      4  O   UNL     1       4.075   5.583  19.638  0.00  0.00    +0.000 OA
BRANCH   2   5
ATOM      5  C   UNL     1       4.830   3.038  19.684  0.00  0.00    +0.000 C 
BRANCH   5   6
ATOM      6  C   UNL     1       3.325   2.907  19.723  0.00  0.00    +0.000 A 
ATOM      7  C   UNL     1       2.590   2.821  18.532  0.00  0.00    +0.000 A 
ATOM      8  C   UNL     1       1.195   2.824  18.560  0.00  0.00    +0.000 A 
ATOM      9  C   UNL     1       0.520   2.915  19.775  0.00  0.00    +0.000 A 
ATOM     10  C   UNL     1       1.237   2.987  20.967  0.00  0.00    +0.000 A 
ATOM     11  C   UNL     1       2.632   2.978  20.943  0.00  0.00    +0.000 A 
ENDBRANCH   5   6
ENDBRANCH   2   5
ENDBRANCH   1   2
BRANCH   1  12
ATOM     12  C   UNL     1       6.735   5.175  17.020  0.00  0.00    +0.000 C 
BRANCH  12  13
ATOM     13  C   UNL     1       7.118   4.570  15.641  0.00  0.00    +0.000 C 
ATOM     14  C   UNL     1       5.986   3.889  14.895  0.00  0.00    +0.000 C 
ATOM     15  C   UNL     1       6.494   4.131  13.529  0.00  0.00    +0.000 C 
ATOM     16 BR   UNL     1       5.884   3.180  12.066  0.00  0.00    +0.000 Br
ATOM     17  N   UNL     1       7.359   5.082  13.410  0.00  0.00    +0.000 NA
ATOM     18  O   UNL     1       7.575   5.585  14.721  0.00  0.00    +0.000 OA
ENDBRANCH  12  13
BRANCH  12  19
ATOM     19  N   UNL     1       6.862   6.647  17.027  0.00  0.00    +0.000 NA
ATOM     20  H   UNL     1       6.113   7.100  16.509  0.00  0.00    +0.000 HD
ATOM     21  H   UNL     1       7.754   6.973  16.667  0.00  0.00    +0.000 HD
ENDBRANCH  12  19
ENDBRANCH   1  12
TORSDOF 6
ENDMDL
MODEL 4
REMARK VINA RESULT:      -7.6      1.330      1.790
REMARK  Name = 
REMARK  6 active torsions:
REMARK  status: ('A' for Active; 'I' for Inactive)
REMARK    1  A    between atoms: N_1  and  C_2
REMARK    2  A    between atoms: C_2  and  C_3
REMARK    3  A    between atoms: C_2  and  C_14
REMARK    4  A    between atoms: C_3  and  S_4
REMARK    5  A    between atoms: S_4  and  C_7
REMARK    6  A    between atoms: C_7  and  C_8
REMARK                            x       y       z     vdW  Elec       q    Type
REMARK                         _______ _______ _______ _____ _____    ______ ____
ROOT
ATOM      1  C   UNL     1       5.235   5.949  16.734  0.00  0.00    +0.000 C 
ENDROOT
BRANCH   1   2
ATOM      2  S   UNL     1       4.532   5.434  18.295  0.00  0.00    +0.000 S 
ATOM      3  O   UNL     1       5.619   5.412  19.259  0.00  0.00    +0.000 OA
ATOM      4  O   UNL     1       3.354   6.252  18.509  0.00  0.00    +0.000 OA
BRANCH   2   5
ATOM      5  C   UNL     1       4.029   3.733  18.013  0.00  0.00    +0.000 C 
BRANCH   5   6
ATOM      6  C   UNL     1       3.023   3.378  19.082  0.00  0.00    +0.000 A 
ATOM      7  C   UNL     1       1.650   3.520  18.838  0.00  0.00    +0.000 A 
ATOM      8  C   UNL     1       0.724   3.311  19.862  0.00  0.00    +0.000 A 
ATOM      9  C   UNL     1       1.159   2.960  21.138  0.00  0.00    +0.000 A 
ATOM     10  C   UNL     1       2.519   2.802  21.391  0.00  0.00    +0.000 A 
ATOM     11  C   UNL     1       3.447   3.004  20.368  0.00  0.00    +0.000 A 
ENDBRANCH   5   6
ENDBRANCH   2   5
ENDBRANCH   1   2
BRANCH   1  12
ATOM     12  C   UNL     1       6.732   5.594  16.623  0.00  0.00    +0.000 C 
BRANCH  12  13
ATOM     13  C   UNL     1       7.085   4.764  15.358  0.00  0.00    +0.000 C 
ATOM     14  C   UNL     1       5.905   4.121  14.655  0.00  0.00    +0.000 C 
ATOM     15  C   UNL     1       6.484   4.113  13.295  0.00  0.00    +0.000 C 
ATOM     16 BR   UNL     1       5.812   3.045  11.943  0.00  0.00    +0.000 Br
ATOM     17  N   UNL     1       7.459   4.932  13.093  0.00  0.00    +0.000 NA
ATOM     18  O   UNL     1       7.692   5.584  14.335  0.00  0.00    +0.000 OA
ENDBRANCH  12  13
BRANCH  12  19
ATOM     19  N   UNL     1       7.545   6.824  16.717  0.00  0.00    +0.000 NA
ATOM     20  H   UNL     1       7.141   7.504  17.357  0.00  0.00    +0.000 HD
ATOM     21  H   UNL     1       7.699   7.272  15.818  0.00  0.00    +0.000 HD
ENDBRANCH  12  19
ENDBRANCH   1  12
TORSDOF 6
ENDMDL
MODEL 5
REMARK VINA RESULT:      -7.4      0.738      1.308
REMARK  Name = 
REMARK  6 active torsions:
REMARK  status: ('A' for Active; 'I' for Inactive)
REMARK    1  A    between atoms: N_1  and  C_2
REMARK    2  A    between atoms: C_2  and  C_3
REMARK    3  A    between atoms: C_2  and  C_14
REMARK    4  A    between atoms: C_3  and  S_4
REMARK    5  A    between atoms: S_4  and  C_7
REMARK    6  A    between atoms: C_7  and  C_8
REMARK                            x       y       z     vdW  Elec       q    Type
REMARK                         _______ _______ _______ _____ _____    ______ ____
ROOT
ATOM      1  C   UNL     1       5.567   5.738  17.195  0.00  0.00    +0.000 C 
ENDROOT
BRANCH   1   2
ATOM      2  S   UNL     1       5.232   4.857  18.714  0.00  0.00    +0.000 S 
ATOM      3  O   UNL     1       4.843   3.508  18.341  0.00  0.00    +0.000 OA
ATOM      4  O   UNL     1       6.361   5.098  19.591  0.00  0.00    +0.000 OA
BRANCH   2   5
ATOM      5  C   UNL     1       3.777   5.669  19.384  0.00  0.00    +0.000 C 
BRANCH   5   6
ATOM      6  C   UNL     1       2.817   4.588  19.820  0.00  0.00    +0.000 A 
ATOM      7  C   UNL     1       1.767   4.192  18.981  0.00  0.00    +0.000 A 
ATOM      8  C   UNL     1       0.807   3.283  19.428  0.00  0.00    +0.000 A 
ATOM      9  C   UNL     1       0.885   2.762  20.718  0.00  0.00    +0.000 A 
ATOM     10  C   UNL     1       1.931   3.135  21.557  0.00  0.00    +0.000 A 
ATOM     11  C   UNL     1       2.896   4.039  21.111  0.00  0.00    +0.000 A 
ENDBRANCH   5   6
ENDBRANCH   2   5
ENDBRANCH   1   2
BRANCH   1  12
ATOM     12  C   UNL     1       7.041   5.611  16.760  0.00  0.00    +0.000 C 
BRANCH  12  13
ATOM     13  C   UNL     1       7.243   4.756  15.479  0.00  0.00    +0.000 C 
ATOM     14  C   UNL     1       5.974   4.176  14.881  0.00  0.00    +0.000 C 
ATOM     15  C   UNL     1       6.439   4.128  13.479  0.00  0.00    +0.000 C 
ATOM     16 BR   UNL     1       5.600   3.092  12.197  0.00  0.00    +0.000 Br
ATOM     17  N   UNL     1       7.438   4.890  13.189  0.00  0.00    +0.000 NA
ATOM     18  O   UNL     1       7.807   5.534  14.401  0.00  0.00    +0.000 OA
ENDBRANCH  12  13
BRANCH  12  19
ATOM     19  N   UNL     1       7.638   6.955  16.623  0.00  0.00    +0.000 NA
ATOM     20  H   UNL     1       8.498   7.051  17.159  0.00  0.00    +0.000 HD
ATOM     21  H   UNL     1       7.003   7.704  16.884  0.00  0.00    +0.000 HD
ENDBRANCH  12  19
ENDBRANCH   1  12
TORSDOF 6
ENDMDL
MODEL 6
REMARK VINA RESULT:      -7.4      1.665      1.927
REMARK  Name = 
REMARK  6 active torsions:
REMARK  status: ('A' for Active; 'I' for Inactive)
REMARK    1  A    between atoms: N_1  and  C_2
REMARK    2  A    between atoms: C_2  and  C_3
REMARK    3  A    between atoms: C_2  and  C_14
REMARK    4  A    between atoms: C_3  and  S_4
REMARK    5  A    between atoms: S_4  and  C_7
REMARK    6  A    between atoms: C_7  and  C_8
REMARK                            x       y       z     vdW  Elec       q    Type
REMARK                         _______ _______ _______ _____ _____    ______ ____
ROOT
ATOM      1  C   UNL     1       5.884   6.190  17.389  0.00  0.00    +0.000 C 
ENDROOT
BRANCH   1   2
ATOM      2  S   UNL     1       4.182   6.033  17.913  0.00  0.00    +0.000 S 
ATOM      3  O   UNL     1       3.612   7.370  17.898  0.00  0.00    +0.000 OA
ATOM      4  O   UNL     1       3.603   4.961  17.127  0.00  0.00    +0.000 OA
BRANCH   2   5
ATOM      5  C   UNL     1       4.293   5.516  19.629  0.00  0.00    +0.000 C 
BRANCH   5   6
ATOM      6  C   UNL     1       3.161   4.549  19.883  0.00  0.00    +0.000 A 
ATOM      7  C   UNL     1       3.344   3.174  19.680  0.00  0.00    +0.000 A 
ATOM      8  C   UNL     1       2.268   2.293  19.795  0.00  0.00    +0.000 A 
ATOM      9  C   UNL     1       0.999   2.775  20.110  0.00  0.00    +0.000 A 
ATOM     10  C   UNL     1       0.806   4.136  20.328  0.00  0.00    +0.000 A 
ATOM     11  C   UNL     1       1.881   5.020  20.220  0.00  0.00    +0.000 A 
ENDBRANCH   5   6
ENDBRANCH   2   5
ENDBRANCH   1   2
BRANCH   1  12
ATOM     12  C   UNL     1       6.609   4.830  17.349  0.00  0.00    +0.000 C 
BRANCH  12  13
ATOM     13  C   UNL     1       7.072   4.411  15.926  0.00  0.00    +0.000 C 
ATOM     14  C   UNL     1       6.016   3.732  15.075  0.00  0.00    +0.000 C 
ATOM     15  C   UNL     1       6.536   4.161  13.761  0.00  0.00    +0.000 C 
ATOM     16 BR   UNL     1       6.038   3.332  12.184  0.00  0.00    +0.000 Br
ATOM     17  N   UNL     1       7.324   5.182  13.772  0.00  0.00    +0.000 NA
ATOM     18  O   UNL     1       7.469   5.553  15.136  0.00  0.00    +0.000 OA
ENDBRANCH  12  13
BRANCH  12  19
ATOM     19  N   UNL     1       7.730   4.833  18.312  0.00  0.00    +0.000 NA
ATOM     20  H   UNL     1       8.635   4.830  17.849  0.00  0.00    +0.000 HD
ATOM     21  H   UNL     1       7.695   4.058  18.968  0.00  0.00    +0.000 HD
ENDBRANCH  12  19
ENDBRANCH   1  12
TORSDOF 6
ENDMDL
MODEL 7
REMARK VINA RESULT:      -7.3      1.425      1.874
REMARK  Name = 
REMARK  6 active torsions:
REMARK  status: ('A' for Active; 'I' for Inactive)
REMARK    1  A    between atoms: N_1  and  C_2
REMARK    2  A    between atoms: C_2  and  C_3
REMARK    3  A    between atoms: C_2  and  C_14
REMARK    4  A    between atoms: C_3  and  S_4
REMARK    5  A    between atoms: S_4  and  C_7
REMARK    6  A    between atoms: C_7  and  C_8
REMARK                            x       y       z     vdW  Elec       q    Type
REMARK                         _______ _______ _______ _____ _____    ______ ____
ROOT
ATOM      1  C   UNL     1       4.833   4.516  17.627  0.00  0.00    +0.000 C 
ENDROOT
BRANCH   1   2
ATOM      2  S   UNL     1       4.090   6.076  18.089  0.00  0.00    +0.000 S 
ATOM      3  O   UNL     1       4.331   6.252  19.510  0.00  0.00    +0.000 OA
ATOM      4  O   UNL     1       4.548   7.055  17.122  0.00  0.00    +0.000 OA
BRANCH   2   5
ATOM      5  C   UNL     1       2.328   5.808  17.871  0.00  0.00    +0.000 C 
BRANCH   5   6
ATOM      6  C   UNL     1       1.942   4.629  18.732  0.00  0.00    +0.000 A 
ATOM      7  C   UNL     1       1.600   3.403  18.144  0.00  0.00    +0.000 A 
ATOM      8  C   UNL     1       1.125   2.350  18.928  0.00  0.00    +0.000 A 
ATOM      9  C   UNL     1       0.985   2.511  20.305  0.00  0.00    +0.000 A 
ATOM     10  C   UNL     1       1.334   3.718  20.904  0.00  0.00    +0.000 A 
ATOM     11  C   UNL     1       1.816   4.770  20.124  0.00  0.00    +0.000 A 
ENDBRANCH   5   6
ENDBRANCH   2   5
ENDBRANCH   1   2
BRANCH   1  12
ATOM     12  C   UNL     1       6.373   4.580  17.630  0.00  0.00    +0.000 C 
BRANCH  12  13
ATOM     13  C   UNL     1       7.011   4.355  16.231  0.00  0.00    +0.000 C 
ATOM     14  C   UNL     1       6.090   3.745  15.191  0.00  0.00    +0.000 C 
ATOM     15  C   UNL     1       6.730   4.351  14.004  0.00  0.00    +0.000 C 
ATOM     16 BR   UNL     1       6.451   3.703  12.295  0.00  0.00    +0.000 Br
ATOM     17  N   UNL     1       7.459   5.392  14.226  0.00  0.00    +0.000 NA
ATOM     18  O   UNL     1       7.433   5.599  15.632  0.00  0.00    +0.000 OA
ENDBRANCH  12  13
BRANCH  12  19
ATOM     19  N   UNL     1       6.819   5.850  18.239  0.00  0.00    +0.000 NA
ATOM     20  H   UNL     1       7.782   5.805  18.561  0.00  0.00    +0.000 HD
ATOM     21  H   UNL     1       6.229   6.154  19.009  0.00  0.00    +0.000 HD
ENDBRANCH  12  19
ENDBRANCH   1  12
TORSDOF 6
ENDMDL
MODEL 8
REMARK VINA RESULT:      -7.3      1.514      1.728
REMARK  Name = 
REMARK  6 active torsions:
REMARK  status: ('A' for Active; 'I' for Inactive)
REMARK    1  A    between atoms: N_1  and  C_2
REMARK    2  A    between atoms: C_2  and  C_3
REMARK    3  A    between atoms: C_2  and  C_14
REMARK    4  A    between atoms: C_3  and  S_4
REMARK    5  A    between atoms: S_4  and  C_7
REMARK    6  A    between atoms: C_7  and  C_8
REMARK                            x       y       z     vdW  Elec       q    Type
REMARK                         _______ _______ _______ _____ _____    ______ ____
ROOT
ATOM      1  C   UNL     1       4.918   4.415  18.037  0.00  0.00    +0.000 C 
ENDROOT
BRANCH   1   2
ATOM      2  S   UNL     1       3.982   5.938  18.060  0.00  0.00    +0.000 S 
ATOM      3  O   UNL     1       4.055   6.456  19.416  0.00  0.00    +0.000 OA
ATOM      4  O   UNL     1       4.440   6.724  16.931  0.00  0.00    +0.000 OA
BRANCH   2   5
ATOM      5  C   UNL     1       2.287   5.420  17.774  0.00  0.00    +0.000 C 
BRANCH   5   6
ATOM      6  C   UNL     1       1.944   4.396  18.829  0.00  0.00    +0.000 A 
ATOM      7  C   UNL     1       1.834   4.774  20.175  0.00  0.00    +0.000 A 
ATOM      8  C   UNL     1       1.639   3.811  21.167  0.00  0.00    +0.000 A 
ATOM      9  C   UNL     1       1.555   2.463  20.826  0.00  0.00    +0.000 A 
ATOM     10  C   UNL     1       1.649   2.074  19.493  0.00  0.00    +0.000 A 
ATOM     11  C   UNL     1       1.837   3.035  18.498  0.00  0.00    +0.000 A 
ENDBRANCH   5   6
ENDBRANCH   2   5
ENDBRANCH   1   2
BRANCH   1  12
ATOM     12  C   UNL     1       6.435   4.664  17.917  0.00  0.00    +0.000 C 
BRANCH  12  13
ATOM     13  C   UNL     1       7.003   4.389  16.497  0.00  0.00    +0.000 C 
ATOM     14  C   UNL     1       6.020   3.782  15.513  0.00  0.00    +0.000 C 
ATOM     15  C   UNL     1       6.622   4.341  14.285  0.00  0.00    +0.000 C 
ATOM     16 BR   UNL     1       6.250   3.662  12.606  0.00  0.00    +0.000 Br
ATOM     17  N   UNL     1       7.389   5.366  14.449  0.00  0.00    +0.000 NA
ATOM     18  O   UNL     1       7.433   5.606  15.849  0.00  0.00    +0.000 OA
ENDBRANCH  12  13
BRANCH  12  19
ATOM     19  N   UNL     1       6.755   6.030  18.381  0.00  0.00    +0.000 NA
ATOM     20  H   UNL     1       6.684   6.716  17.633  0.00  0.00    +0.000 HD
ATOM     21  H   UNL     1       7.674   6.102  18.807  0.00  0.00    +0.000 HD
ENDBRANCH  12  19
ENDBRANCH   1  12
TORSDOF 6
ENDMDL
MODEL 9
REMARK VINA RESULT:      -7.1      1.797      1.988
REMARK  Name = 
REMARK  6 active torsions:
REMARK  status: ('A' for Active; 'I' for Inactive)
REMARK    1  A    between atoms: N_1  and  C_2
REMARK    2  A    between atoms: C_2  and  C_3
REMARK    3  A    between atoms: C_2  and  C_14
REMARK    4  A    between atoms: C_3  and  S_4
REMARK    5  A    between atoms: S_4  and  C_7
REMARK    6  A    between atoms: C_7  and  C_8
REMARK                            x       y       z     vdW  Elec       q    Type
REMARK                         _______ _______ _______ _____ _____    ______ ____
ROOT
ATOM      1  C   UNL     1       5.717   6.097  17.722  0.00  0.00    +0.000 C 
ENDROOT
BRANCH   1   2
ATOM      2  S   UNL     1       3.961   6.235  18.034  0.00  0.00    +0.000 S 
ATOM      3  O   UNL     1       3.801   6.393  19.470  0.00  0.00    +0.000 OA
ATOM      4  O   UNL     1       3.452   7.227  17.108  0.00  0.00    +0.000 OA
BRANCH   2   5
ATOM      5  C   UNL     1       3.307   4.622  17.595  0.00  0.00    +0.000 C 
BRANCH   5   6
ATOM      6  C   UNL     1       2.746   4.004  18.854  0.00  0.00    +0.000 A 
ATOM      7  C   UNL     1       3.578   3.283  19.721  0.00  0.00    +0.000 A 
ATOM      8  C   UNL     1       3.042   2.608  20.819  0.00  0.00    +0.000 A 
ATOM      9  C   UNL     1       1.671   2.645  21.061  0.00  0.00    +0.000 A 
ATOM     10  C   UNL     1       0.834   3.369  20.216  0.00  0.00    +0.000 A 
ATOM     11  C   UNL     1       1.368   4.050  19.121  0.00  0.00    +0.000 A 
ENDBRANCH   5   6
ENDBRANCH   2   5
ENDBRANCH   1   2
BRANCH   1  12
ATOM     12  C   UNL     1       6.160   4.634  17.524  0.00  0.00    +0.000 C 
BRANCH  12  13
ATOM     13  C   UNL     1       6.823   4.364  16.145  0.00  0.00    +0.000 C 
ATOM     14  C   UNL     1       5.932   3.685  15.121  0.00  0.00    +0.000 C 
ATOM     15  C   UNL     1       6.572   4.253  13.917  0.00  0.00    +0.000 C 
ATOM     16 BR   UNL     1       6.333   3.523  12.235  0.00  0.00    +0.000 Br
ATOM     17  N   UNL     1       7.273   5.321  14.100  0.00  0.00    +0.000 NA
ATOM     18  O   UNL     1       7.223   5.590  15.495  0.00  0.00    +0.000 OA
ENDBRANCH  12  13
BRANCH  12  19
ATOM     19  N   UNL     1       7.033   4.221  18.642  0.00  0.00    +0.000 NA
ATOM     20  H   UNL     1       7.745   4.917  18.852  0.00  0.00    +0.000 HD
ATOM     21  H   UNL     1       7.487   3.325  18.486  0.00  0.00    +0.000 HD
ENDBRANCH  12  19
ENDBRANCH   1  12
TORSDOF 6
ENDMDL
