MODEL 1
REMARK VINA RESULT:      -6.6      0.000      0.000
REMARK  Name = 
REMARK  9 active torsions:
REMARK  status: ('A' for Active; 'I' for Inactive)
REMARK    1  A    between atoms: C_1  and  C_2
REMARK    2  A    between atoms: C_2  and  S_3
REMARK    3  A    between atoms: S_3  and  N_6
REMARK    4  A    between atoms: C_9  and  C_10
REMARK    5  A    between atoms: N_12  and  C_13
REMARK    6  A    between atoms: C_13  and  C_14
REMARK    7  A    between atoms: C_14  and  N_15
REMARK    8  A    between atoms: N_15  and  C_16
REMARK    9  A    between atoms: N_15  and  C_17
REMARK                            x       y       z     vdW  Elec       q    Type
REMARK                         _______ _______ _______ _____ _____    ______ ____
ROOT
ATOM      1  N   UNL     1       3.998   4.793  18.733  0.00  0.00    +0.000 NA
ATOM      2  C   UNL     1       5.352   4.267  19.086  0.00  0.00    +0.000 C 
ATOM      3  C   UNL     1       6.374   5.406  19.119  0.00  0.00    +0.000 C 
ATOM      4  C   UNL     1       6.406   6.185  17.798  0.00  0.00    +0.000 C 
ATOM      5  C   UNL     1       4.996   6.699  17.502  0.00  0.00    +0.000 C 
ATOM      6  C   UNL     1       3.987   5.556  17.452  0.00  0.00    +0.000 C 
ENDROOT
BRANCH   4   7
ATOM      7  C   UNL     1       6.985   5.323  16.674  0.00  0.00    +0.000 C 
ATOM      8  O   UNL     1       7.827   4.452  16.875  0.00  0.00    +0.000 OA
ATOM      9  N   UNL     1       6.545   5.631  15.408  0.00  0.00    +0.000 N 
ATOM     10  H   UNL     1       5.720   6.201  15.278  0.00  0.00    +0.000 HD
BRANCH   9  11
ATOM     11  C   UNL     1       6.976   4.840  14.269  0.00  0.00    +0.000 C 
BRANCH  11  12
ATOM     12  C   UNL     1       5.934   3.782  13.850  0.00  0.00    +0.000 C 
BRANCH  12  13
ATOM     13  N   UNL     1       6.125   3.230  12.487  0.00  0.00    +0.000 NA
ATOM     14  C   UNL     1       4.872   3.205  11.729  0.00  0.00    +0.000 C 
ATOM     15  C   UNL     1       7.106   4.054  11.765  0.00  0.00    +0.000 C 
ENDBRANCH  12  13
ENDBRANCH  11  12
ENDBRANCH   9  11
ENDBRANCH   4   7
BRANCH   1  16
ATOM     16  S   UNL     1       2.766   3.592  18.829  0.00  0.00    +0.000 S 
ATOM     17  O   UNL     1       2.990   2.634  17.766  0.00  0.00    +0.000 OA
ATOM     18  O   UNL     1       1.495   4.258  18.986  0.00  0.00    +0.000 OA
BRANCH  16  20
ATOM     19  C   UNL     1       2.101   2.958  21.404  0.00  0.00    +0.000 C 
ATOM     20  C   UNL     1       3.200   2.793  20.371  0.00  0.00    +0.000 C 
ENDBRANCH  16  20
ENDBRANCH   1  16
TORSDOF 6
ENDMDL
MODEL 2
REMARK VINA RESULT:      -6.4      1.407      1.745
REMARK  Name = 
REMARK  9 active torsions:
REMARK  status: ('A' for Active; 'I' for Inactive)
REMARK    1  A    between atoms: C_1  and  C_2
REMARK    2  A    between atoms: C_2  and  S_3
REMARK    3  A    between atoms: S_3  and  N_6
REMARK    4  A    between atoms: C_9  and  C_10
REMARK    5  A    between atoms: N_12  and  C_13
REMARK    6  A    between atoms: C_13  and  C_14
REMARK    7  A    between atoms: C_14  and  N_15
REMARK    8  A    between atoms: N_15  and  C_16
REMARK    9  A    between atoms: N_15  and  C_17
REMARK                            x       y       z     vdW  Elec       q    Type
REMARK                         _______ _______ _______ _____ _____    ______ ____
ROOT
ATOM      1  N   UNL     1       4.672   4.934  18.880  0.00  0.00    +0.000 NA
ATOM      2  C   UNL     1       6.150   4.736  18.984  0.00  0.00    +0.000 C 
ATOM      3  C   UNL     1       6.889   5.985  18.499  0.00  0.00    +0.000 C 
ATOM      4  C   UNL     1       6.479   6.376  17.073  0.00  0.00    +0.000 C 
ATOM      5  C   UNL     1       4.961   6.569  17.039  0.00  0.00    +0.000 C 
ATOM      6  C   UNL     1       4.231   5.314  17.507  0.00  0.00    +0.000 C 
ENDROOT
BRANCH   4   7
ATOM      7  C   UNL     1       6.980   5.344  16.061  0.00  0.00    +0.000 C 
ATOM      8  O   UNL     1       7.830   4.502  16.341  0.00  0.00    +0.000 OA
ATOM      9  N   UNL     1       6.461   5.460  14.793  0.00  0.00    +0.000 N 
ATOM     10  H   UNL     1       5.632   6.014  14.629  0.00  0.00    +0.000 HD
BRANCH   9  11
ATOM     11  C   UNL     1       6.814   4.497  13.765  0.00  0.00    +0.000 C 
BRANCH  11  12
ATOM     12  C   UNL     1       5.617   3.630  13.324  0.00  0.00    +0.000 C 
BRANCH  12  13
ATOM     13  N   UNL     1       5.591   3.299  11.878  0.00  0.00    +0.000 NA
ATOM     14  C   UNL     1       6.205   1.998  11.606  0.00  0.00    +0.000 C 
ATOM     15  C   UNL     1       4.196   3.278  11.412  0.00  0.00    +0.000 C 
ENDBRANCH  12  13
ENDBRANCH  11  12
ENDBRANCH   9  11
ENDBRANCH   4   7
BRANCH   1  16
ATOM     16  S   UNL     1       3.771   3.627  19.553  0.00  0.00    +0.000 S 
ATOM     17  O   UNL     1       2.819   4.177  20.496  0.00  0.00    +0.000 OA
ATOM     18  O   UNL     1       4.699   2.590  19.940  0.00  0.00    +0.000 OA
BRANCH  16  20
ATOM     19  C   UNL     1       1.477   2.570  18.507  0.00  0.00    +0.000 C 
ATOM     20  C   UNL     1       2.852   3.082  18.118  0.00  0.00    +0.000 C 
ENDBRANCH  16  20
ENDBRANCH   1  16
TORSDOF 6
ENDMDL
MODEL 3
REMARK VINA RESULT:      -6.4      0.874      1.179
REMARK  Name = 
REMARK  9 active torsions:
REMARK  status: ('A' for Active; 'I' for Inactive)
REMARK    1  A    between atoms: C_1  and  C_2
REMARK    2  A    between atoms: C_2  and  S_3
REMARK    3  A    between atoms: S_3  and  N_6
REMARK    4  A    between atoms: C_9  and  C_10
REMARK    5  A    between atoms: N_12  and  C_13
REMARK    6  A    between atoms: C_13  and  C_14
REMARK    7  A    between atoms: C_14  and  N_15
REMARK    8  A    between atoms: N_15  and  C_16
REMARK    9  A    between atoms: N_15  and  C_17
REMARK                            x       y       z     vdW  Elec       q    Type
REMARK                         _______ _______ _______ _____ _____    ______ ____
ROOT
ATOM      1  N   UNL     1       4.009   4.271  18.759  0.00  0.00    +0.000 NA
ATOM      2  C   UNL     1       5.460   4.114  19.084  0.00  0.00    +0.000 C 
ATOM      3  C   UNL     1       6.179   5.461  18.974  0.00  0.00    +0.000 C 
ATOM      4  C   UNL     1       5.983   6.104  17.595  0.00  0.00    +0.000 C 
ATOM      5  C   UNL     1       4.482   6.241  17.331  0.00  0.00    +0.000 C 
ATOM      6  C   UNL     1       3.776   4.892  17.424  0.00  0.00    +0.000 C 
ENDROOT
BRANCH   4   7
ATOM      7  C   UNL     1       6.717   5.307  16.515  0.00  0.00    +0.000 C 
ATOM      8  O   UNL     1       7.593   4.486  16.779  0.00  0.00    +0.000 OA
ATOM      9  N   UNL     1       6.375   5.615  15.219  0.00  0.00    +0.000 N 
ATOM     10  H   UNL     1       5.531   6.134  15.023  0.00  0.00    +0.000 HD
BRANCH   9  11
ATOM     11  C   UNL     1       6.960   4.879  14.113  0.00  0.00    +0.000 C 
BRANCH  11  12
ATOM     12  C   UNL     1       6.055   3.732  13.616  0.00  0.00    +0.000 C 
BRANCH  12  13
ATOM     13  N   UNL     1       5.996   3.584  12.141  0.00  0.00    +0.000 NA
ATOM     14  C   UNL     1       6.884   2.521  11.665  0.00  0.00    +0.000 C 
ATOM     15  C   UNL     1       4.615   3.270  11.742  0.00  0.00    +0.000 C 
ENDBRANCH  12  13
ENDBRANCH  11  12
ENDBRANCH   9  11
ENDBRANCH   4   7
BRANCH   1  16
ATOM     16  S   UNL     1       3.105   2.826  19.012  0.00  0.00    +0.000 S 
ATOM     17  O   UNL     1       4.041   1.746  19.249  0.00  0.00    +0.000 OA
ATOM     18  O   UNL     1       2.098   2.735  17.981  0.00  0.00    +0.000 OA
BRANCH  16  20
ATOM     19  C   UNL     1       1.150   4.158  20.383  0.00  0.00    +0.000 C 
ATOM     20  C   UNL     1       2.311   3.199  20.572  0.00  0.00    +0.000 C 
ENDBRANCH  16  20
ENDBRANCH   1  16
TORSDOF 6
ENDMDL
MODEL 4
REMARK VINA RESULT:      -6.2      1.322      1.374
REMARK  Name = 
REMARK  9 active torsions:
REMARK  status: ('A' for Active; 'I' for Inactive)
REMARK    1  A    between atoms: C_1  and  C_2
REMARK    2  A    between atoms: C_2  and  S_3
REMARK    3  A    between atoms: S_3  and  N_6
REMARK    4  A    between atoms: C_9  and  C_10
REMARK    5  A    between atoms: N_12  and  C_13
REMARK    6  A    between atoms: C_13  and  C_14
REMARK    7  A    between atoms: C_14  and  N_15
REMARK    8  A    between atoms: N_15  and  C_16
REMARK    9  A    between atoms: N_15  and  C_17
REMARK                            x       y       z     vdW  Elec       q    Type
REMARK                         _______ _______ _______ _____ _____    ______ ____
ROOT
ATOM      1  N   UNL     1       3.224   4.435  18.639  0.00  0.00    +0.000 NA
ATOM      2  C   UNL     1       4.604   3.910  18.406  0.00  0.00    +0.000 C 
ATOM      3  C   UNL     1       5.645   4.983  18.735  0.00  0.00    +0.000 C 
ATOM      4  C   UNL     1       5.401   6.277  17.948  0.00  0.00    +0.000 C 
ATOM      5  C   UNL     1       3.979   6.762  18.236  0.00  0.00    +0.000 C 
ATOM      6  C   UNL     1       2.947   5.694  17.889  0.00  0.00    +0.000 C 
ENDROOT
BRANCH   4   7
ATOM      7  C   UNL     1       5.678   6.067  16.458  0.00  0.00    +0.000 C 
ATOM      8  O   UNL     1       5.130   6.732  15.583  0.00  0.00    +0.000 OA
ATOM      9  N   UNL     1       6.538   5.036  16.157  0.00  0.00    +0.000 N 
ATOM     10  H   UNL     1       7.126   4.635  16.875  0.00  0.00    +0.000 HD
BRANCH   9  11
ATOM     11  C   UNL     1       6.925   4.783  14.781  0.00  0.00    +0.000 C 
BRANCH  11  12
ATOM     12  C   UNL     1       5.856   3.993  13.998  0.00  0.00    +0.000 C 
BRANCH  12  13
ATOM     13  N   UNL     1       6.330   3.408  12.719  0.00  0.00    +0.000 NA
ATOM     14  C   UNL     1       5.217   3.062  11.833  0.00  0.00    +0.000 C 
ATOM     15  C   UNL     1       7.202   4.378  12.039  0.00  0.00    +0.000 C 
ENDBRANCH  12  13
ENDBRANCH  11  12
ENDBRANCH   9  11
ENDBRANCH   4   7
BRANCH   1  16
ATOM     16  S   UNL     1       2.006   3.232  18.437  0.00  0.00    +0.000 S 
ATOM     17  O   UNL     1       2.648   1.935  18.464  0.00  0.00    +0.000 OA
ATOM     18  O   UNL     1       1.156   3.629  17.339  0.00  0.00    +0.000 OA
BRANCH  16  20
ATOM     19  C   UNL     1       2.014   3.861  21.098  0.00  0.00    +0.000 C 
ATOM     20  C   UNL     1       1.101   3.416  19.970  0.00  0.00    +0.000 C 
ENDBRANCH  16  20
ENDBRANCH   1  16
TORSDOF 6
ENDMDL
MODEL 5
REMARK VINA RESULT:      -6.1      3.750      7.385
REMARK  Name = 
REMARK  9 active torsions:
REMARK  status: ('A' for Active; 'I' for Inactive)
REMARK    1  A    between atoms: C_1  and  C_2
REMARK    2  A    between atoms: C_2  and  S_3
REMARK    3  A    between atoms: S_3  and  N_6
REMARK    4  A    between atoms: C_9  and  C_10
REMARK    5  A    between atoms: N_12  and  C_13
REMARK    6  A    between atoms: C_13  and  C_14
REMARK    7  A    between atoms: C_14  and  N_15
REMARK    8  A    between atoms: N_15  and  C_16
REMARK    9  A    between atoms: N_15  and  C_17
REMARK                            x       y       z     vdW  Elec       q    Type
REMARK                         _______ _______ _______ _____ _____    ______ ____
ROOT
ATOM      1  N   UNL     1       5.618   4.734  17.754  0.00  0.00    +0.000 NA
ATOM      2  C   UNL     1       5.375   5.146  19.170  0.00  0.00    +0.000 C 
ATOM      3  C   UNL     1       4.105   4.482  19.707  0.00  0.00    +0.000 C 
ATOM      4  C   UNL     1       2.887   4.779  18.824  0.00  0.00    +0.000 C 
ATOM      5  C   UNL     1       3.200   4.328  17.396  0.00  0.00    +0.000 C 
ATOM      6  C   UNL     1       4.456   5.007  16.861  0.00  0.00    +0.000 C 
ENDROOT
BRANCH   4   7
ATOM      7  C   UNL     1       2.493   6.254  18.919  0.00  0.00    +0.000 C 
ATOM      8  O   UNL     1       2.451   6.993  17.938  0.00  0.00    +0.000 OA
ATOM      9  N   UNL     1       2.249   6.719  20.191  0.00  0.00    +0.000 N 
ATOM     10  H   UNL     1       2.093   6.071  20.950  0.00  0.00    +0.000 HD
BRANCH   9  11
ATOM     11  C   UNL     1       1.806   8.086  20.398  0.00  0.00    +0.000 C 
BRANCH  11  12
ATOM     12  C   UNL     1       0.675   8.193  21.443  0.00  0.00    +0.000 C 
BRANCH  12  13
ATOM     13  N   UNL     1      -0.165   9.411  21.324  0.00  0.00    +0.000 NA
ATOM     14  C   UNL     1      -0.386  10.049  22.623  0.00  0.00    +0.000 C 
ATOM     15  C   UNL     1       0.498  10.369  20.425  0.00  0.00    +0.000 C 
ENDBRANCH  12  13
ENDBRANCH  11  12
ENDBRANCH   9  11
ENDBRANCH   4   7
BRANCH   1  16
ATOM     16  S   UNL     1       7.116   5.319  17.133  0.00  0.00    +0.000 S 
ATOM     17  O   UNL     1       6.842   6.043  15.908  0.00  0.00    +0.000 OA
ATOM     18  O   UNL     1       8.075   4.240  17.170  0.00  0.00    +0.000 OA
BRANCH  16  20
ATOM     19  C   UNL     1       7.818   7.885  17.766  0.00  0.00    +0.000 C 
ATOM     20  C   UNL     1       7.545   6.525  18.383  0.00  0.00    +0.000 C 
ENDBRANCH  16  20
ENDBRANCH   1  16
TORSDOF 6
ENDMDL
MODEL 6
REMARK VINA RESULT:      -6.1      0.956      1.204
REMARK  Name = 
REMARK  9 active torsions:
REMARK  status: ('A' for Active; 'I' for Inactive)
REMARK    1  A    between atoms: C_1  and  C_2
REMARK    2  A    between atoms: C_2  and  S_3
REMARK    3  A    between atoms: S_3  and  N_6
REMARK    4  A    between atoms: C_9  and  C_10
REMARK    5  A    between atoms: N_12  and  C_13
REMARK    6  A    between atoms: C_13  and  C_14
REMARK    7  A    between atoms: C_14  and  N_15
REMARK    8  A    between atoms: N_15  and  C_16
REMARK    9  A    between atoms: N_15  and  C_17
REMARK                            x       y       z     vdW  Elec       q    Type
REMARK                         _______ _______ _______ _____ _____    ______ ____
ROOT
ATOM      1  N   UNL     1       4.374   5.696  18.724  0.00  0.00    +0.000 NA
ATOM      2  C   UNL     1       5.596   4.929  19.116  0.00  0.00    +0.000 C 
ATOM      3  C   UNL     1       6.850   5.783  18.911  0.00  0.00    +0.000 C 
ATOM      4  C   UNL     1       6.957   6.306  17.472  0.00  0.00    +0.000 C 
ATOM      5  C   UNL     1       5.682   7.083  17.140  0.00  0.00    +0.000 C 
ATOM      6  C   UNL     1       4.439   6.220  17.330  0.00  0.00    +0.000 C 
ENDROOT
BRANCH   4   7
ATOM      7  C   UNL     1       7.237   5.160  16.498  0.00  0.00    +0.000 C 
ATOM      8  O   UNL     1       7.951   4.203  16.789  0.00  0.00    +0.000 OA
ATOM      9  N   UNL     1       6.686   5.302  15.245  0.00  0.00    +0.000 N 
ATOM     10  H   UNL     1       5.952   5.977  15.084  0.00  0.00    +0.000 HD
BRANCH   9  11
ATOM     11  C   UNL     1       6.831   4.248  14.257  0.00  0.00    +0.000 C 
BRANCH  11  12
ATOM     12  C   UNL     1       5.497   3.886  13.572  0.00  0.00    +0.000 C 
BRANCH  12  13
ATOM     13  N   UNL     1       5.604   3.596  12.121  0.00  0.00    +0.000 NA
ATOM     14  C   UNL     1       6.475   2.448  11.858  0.00  0.00    +0.000 C 
ATOM     15  C   UNL     1       4.264   3.315  11.584  0.00  0.00    +0.000 C 
ENDBRANCH  12  13
ENDBRANCH  11  12
ENDBRANCH   9  11
ENDBRANCH   4   7
BRANCH   1  16
ATOM     16  S   UNL     1       2.913   4.853  19.075  0.00  0.00    +0.000 S 
ATOM     17  O   UNL     1       2.287   4.497  17.819  0.00  0.00    +0.000 OA
ATOM     18  O   UNL     1       2.196   5.591  20.090  0.00  0.00    +0.000 OA
BRANCH  16  20
ATOM     19  C   UNL     1       2.749   2.925  21.007  0.00  0.00    +0.000 C 
ATOM     20  C   UNL     1       3.561   3.349  19.796  0.00  0.00    +0.000 C 
ENDBRANCH  16  20
ENDBRANCH   1  16
TORSDOF 6
ENDMDL
MODEL 7
REMARK VINA RESULT:      -6.1      3.639      7.357
REMARK  Name = 
REMARK  9 active torsions:
REMARK  status: ('A' for Active; 'I' for Inactive)
REMARK    1  A    between atoms: C_1  and  C_2
REMARK    2  A    between atoms: C_2  and  S_3
REMARK    3  A    between atoms: S_3  and  N_6
REMARK    4  A    between atoms: C_9  and  C_10
REMARK    5  A    between atoms: N_12  and  C_13
REMARK    6  A    between atoms: C_13  and  C_14
REMARK    7  A    between atoms: C_14  and  N_15
REMARK    8  A    between atoms: N_15  and  C_16
REMARK    9  A    between atoms: N_15  and  C_17
REMARK                            x       y       z     vdW  Elec       q    Type
REMARK                         _______ _______ _______ _____ _____    ______ ____
ROOT
ATOM      1  N   UNL     1       5.576   4.357  17.795  0.00  0.00    +0.000 NA
ATOM      2  C   UNL     1       5.261   4.770  19.196  0.00  0.00    +0.000 C 
ATOM      3  C   UNL     1       3.918   4.182  19.636  0.00  0.00    +0.000 C 
ATOM      4  C   UNL     1       2.784   4.562  18.676  0.00  0.00    +0.000 C 
ATOM      5  C   UNL     1       3.167   4.106  17.266  0.00  0.00    +0.000 C 
ATOM      6  C   UNL     1       4.497   4.711  16.828  0.00  0.00    +0.000 C 
ENDROOT
BRANCH   4   7
ATOM      7  C   UNL     1       2.476   6.058  18.764  0.00  0.00    +0.000 C 
ATOM      8  O   UNL     1       2.426   6.783  17.773  0.00  0.00    +0.000 OA
ATOM      9  N   UNL     1       2.321   6.555  20.037  0.00  0.00    +0.000 N 
ATOM     10  H   UNL     1       2.169   5.928  20.815  0.00  0.00    +0.000 HD
BRANCH   9  11
ATOM     11  C   UNL     1       1.964   7.947  20.242  0.00  0.00    +0.000 C 
BRANCH  11  12
ATOM     12  C   UNL     1       0.931   8.137  21.372  0.00  0.00    +0.000 C 
BRANCH  12  13
ATOM     13  N   UNL     1       0.877   9.507  21.940  0.00  0.00    +0.000 NA
ATOM     14  C   UNL     1       0.425  10.488  20.952  0.00  0.00    +0.000 C 
ATOM     15  C   UNL     1      -0.044   9.519  23.086  0.00  0.00    +0.000 C 
ENDBRANCH  12  13
ENDBRANCH  11  12
ENDBRANCH   9  11
ENDBRANCH   4   7
BRANCH   1  16
ATOM     16  S   UNL     1       7.145   4.854  17.285  0.00  0.00    +0.000 S 
ATOM     17  O   UNL     1       7.306   4.481  15.895  0.00  0.00    +0.000 OA
ATOM     18  O   UNL     1       8.099   4.443  18.289  0.00  0.00    +0.000 OA
BRANCH  16  20
ATOM     19  C   UNL     1       7.976   7.257  18.292  0.00  0.00    +0.000 C 
ATOM     20  C   UNL     1       6.966   6.634  17.346  0.00  0.00    +0.000 C 
ENDBRANCH  16  20
ENDBRANCH   1  16
TORSDOF 6
ENDMDL
MODEL 8
REMARK VINA RESULT:      -6.1      3.179      5.255
REMARK  Name = 
REMARK  9 active torsions:
REMARK  status: ('A' for Active; 'I' for Inactive)
REMARK    1  A    between atoms: C_1  and  C_2
REMARK    2  A    between atoms: C_2  and  S_3
REMARK    3  A    between atoms: S_3  and  N_6
REMARK    4  A    between atoms: C_9  and  C_10
REMARK    5  A    between atoms: N_12  and  C_13
REMARK    6  A    between atoms: C_13  and  C_14
REMARK    7  A    between atoms: C_14  and  N_15
REMARK    8  A    between atoms: N_15  and  C_16
REMARK    9  A    between atoms: N_15  and  C_17
REMARK                            x       y       z     vdW  Elec       q    Type
REMARK                         _______ _______ _______ _____ _____    ______ ____
ROOT
ATOM      1  N   UNL     1       4.004   4.503  18.000  0.00  0.00    +0.000 NA
ATOM      2  C   UNL     1       4.113   5.955  18.336  0.00  0.00    +0.000 C 
ATOM      3  C   UNL     1       4.328   6.781  17.066  0.00  0.00    +0.000 C 
ATOM      4  C   UNL     1       5.549   6.301  16.271  0.00  0.00    +0.000 C 
ATOM      5  C   UNL     1       5.370   4.814  15.955  0.00  0.00    +0.000 C 
ATOM      6  C   UNL     1       5.174   3.996  17.227  0.00  0.00    +0.000 C 
ENDROOT
BRANCH   4   7
ATOM      7  C   UNL     1       6.844   6.607  17.026  0.00  0.00    +0.000 C 
ATOM      8  O   UNL     1       7.617   5.727  17.398  0.00  0.00    +0.000 OA
ATOM      9  N   UNL     1       7.056   7.934  17.320  0.00  0.00    +0.000 N 
ATOM     10  H   UNL     1       6.528   8.653  16.846  0.00  0.00    +0.000 HD
BRANCH   9  11
ATOM     11  C   UNL     1       8.281   8.351  17.978  0.00  0.00    +0.000 C 
BRANCH  11  12
ATOM     12  C   UNL     1       8.326   9.870  18.244  0.00  0.00    +0.000 C 
BRANCH  12  13
ATOM     13  N   UNL     1       9.613  10.366  18.791  0.00  0.00    +0.000 NA
ATOM     14  C   UNL     1      10.207  11.398  17.938  0.00  0.00    +0.000 C 
ATOM     15  C   UNL     1       9.385  10.925  20.133  0.00  0.00    +0.000 C 
ENDBRANCH  12  13
ENDBRANCH  11  12
ENDBRANCH   9  11
ENDBRANCH   4   7
BRANCH   1  16
ATOM     16  S   UNL     1       3.606   3.527  19.364  0.00  0.00    +0.000 S 
ATOM     17  O   UNL     1       2.896   4.355  20.316  0.00  0.00    +0.000 OA
ATOM     18  O   UNL     1       4.782   2.780  19.746  0.00  0.00    +0.000 OA
BRANCH  16  20
ATOM     19  C   UNL     1       1.064   2.519  19.316  0.00  0.00    +0.000 C 
ATOM     20  C   UNL     1       2.416   2.406  18.635  0.00  0.00    +0.000 C 
ENDBRANCH  16  20
ENDBRANCH   1  16
TORSDOF 6
ENDMDL
MODEL 9
REMARK VINA RESULT:      -6.0      2.873      6.338
REMARK  Name = 
REMARK  9 active torsions:
REMARK  status: ('A' for Active; 'I' for Inactive)
REMARK    1  A    between atoms: C_1  and  C_2
REMARK    2  A    between atoms: C_2  and  S_3
REMARK    3  A    between atoms: S_3  and  N_6
REMARK    4  A    between atoms: C_9  and  C_10
REMARK    5  A    between atoms: N_12  and  C_13
REMARK    6  A    between atoms: C_13  and  C_14
REMARK    7  A    between atoms: C_14  and  N_15
REMARK    8  A    between atoms: N_15  and  C_16
REMARK    9  A    between atoms: N_15  and  C_17
REMARK                            x       y       z     vdW  Elec       q    Type
REMARK                         _______ _______ _______ _____ _____    ______ ____
ROOT
ATOM      1  N   UNL     1       6.144   5.400  17.824  0.00  0.00    +0.000 NA
ATOM      2  C   UNL     1       6.029   4.155  17.004  0.00  0.00    +0.000 C 
ATOM      3  C   UNL     1       4.847   4.262  16.037  0.00  0.00    +0.000 C 
ATOM      4  C   UNL     1       3.534   4.570  16.769  0.00  0.00    +0.000 C 
ATOM      5  C   UNL     1       3.719   5.854  17.580  0.00  0.00    +0.000 C 
ATOM      6  C   UNL     1       4.887   5.733  18.553  0.00  0.00    +0.000 C 
ENDROOT
BRANCH   4   7
ATOM      7  C   UNL     1       3.094   3.376  17.619  0.00  0.00    +0.000 C 
ATOM      8  O   UNL     1       3.797   2.381  17.777  0.00  0.00    +0.000 OA
ATOM      9  N   UNL     1       1.826   3.462  18.145  0.00  0.00    +0.000 N 
ATOM     10  H   UNL     1       1.344   4.350  18.175  0.00  0.00    +0.000 HD
BRANCH   9  11
ATOM     11  C   UNL     1       1.323   2.418  19.020  0.00  0.00    +0.000 C 
BRANCH  11  12
ATOM     12  C   UNL     1       0.706   2.976  20.320  0.00  0.00    +0.000 C 
BRANCH  12  13
ATOM     13  N   UNL     1       1.694   3.368  21.356  0.00  0.00    +0.000 NA
ATOM     14  C   UNL     1       2.861   2.483  21.358  0.00  0.00    +0.000 C 
ATOM     15  C   UNL     1       2.137   4.748  21.102  0.00  0.00    +0.000 C 
ENDBRANCH  12  13
ENDBRANCH  11  12
ENDBRANCH   9  11
ENDBRANCH   4   7
BRANCH   1  16
ATOM     16  S   UNL     1       7.546   5.415  18.826  0.00  0.00    +0.000 S 
ATOM     17  O   UNL     1       8.509   4.490  18.265  0.00  0.00    +0.000 OA
ATOM     18  O   UNL     1       7.120   5.314  20.203  0.00  0.00    +0.000 OA
BRANCH  16  20
ATOM     19  C   UNL     1       7.527   7.667  17.275  0.00  0.00    +0.000 C 
ATOM     20  C   UNL     1       8.153   7.071  18.523  0.00  0.00    +0.000 C 
ENDBRANCH  16  20
ENDBRANCH   1  16
TORSDOF 6
ENDMDL
