MODEL 1
REMARK VINA RESULT:      -7.8      0.000      0.000
REMARK  Name = 
REMARK  11 active torsions:
REMARK  status: ('A' for Active; 'I' for Inactive)
REMARK    1  A    between atoms: C_1  and  O_2
REMARK    2  A    between atoms: O_2  and  C_3
REMARK    3  A    between atoms: C_8  and  C_9
REMARK    4  A    between atoms: C_9  and  C_10
REMARK    5  A    between atoms: C_10  and  C_11
REMARK    6  A    between atoms: C_11  and  C_12
REMARK    7  A    between atoms: C_12  and  C_13
REMARK    8  A    between atoms: C_13  and  C_14
REMARK    9  A    between atoms: C_14  and  C_15
REMARK   10  A    between atoms: C_15  and  C_17
REMARK   11  A    between atoms: C_20  and  C_21
REMARK                            x       y       z     vdW  Elec       q    Type
REMARK                         _______ _______ _______ _____ _____    ______ ____
ROOT
ATOM      1  C   UNL     1       3.149   3.716  18.199  0.00  0.00    +0.000 C 
ENDROOT
BRANCH   1   2
ATOM      2  C   UNL     1       4.547   3.459  18.734  0.00  0.00    +0.000 C 
ATOM      3  O   UNL     1       4.724   2.862  19.794  0.00  0.00    +0.000 OA
BRANCH   2   4
ATOM      4  C   UNL     1       5.647   3.954  17.919  0.00  0.00    +0.000 A 
ATOM      5  N   UNL     1       6.815   4.412  18.336  0.00  0.00    +0.000 NA
ATOM      6  C   UNL     1       7.477   4.707  17.168  0.00  0.00    +0.000 A 
ATOM      7  C   UNL     1       6.686   4.421  16.076  0.00  0.00    +0.000 A 
ATOM      8  O   UNL     1       5.499   3.941  16.558  0.00  0.00    +0.000 OA
BRANCH   7   9
ATOM      9  C   UNL     1       6.843   4.488  14.637  0.00  0.00    +0.000 A 
ATOM     10  C   UNL     1       6.228   3.583  13.775  0.00  0.00    +0.000 A 
ATOM     11  C   UNL     1       6.474   3.684  12.409  0.00  0.00    +0.000 A 
ATOM     12  C   UNL     1       7.317   4.684  11.944  0.00  0.00    +0.000 A 
ATOM     13  C   UNL     1       7.875   5.554  12.869  0.00  0.00    +0.000 A 
ATOM     14  N   UNL     1       7.657   5.479  14.201  0.00  0.00    +0.000 NA
ENDBRANCH   7   9
ENDBRANCH   2   4
ENDBRANCH   1   2
BRANCH   1  15
ATOM     15  C   UNL     1       2.236   2.495  18.403  0.00  0.00    +0.000 C 
BRANCH  15  16
ATOM     16  C   UNL     1       1.129   2.797  19.405  0.00  0.00    +0.000 C 
BRANCH  16  17
ATOM     17  C   UNL     1       1.559   3.747  20.534  0.00  0.00    +0.000 C 
BRANCH  17  18
ATOM     18  C   UNL     1       1.192   5.173  20.118  0.00  0.00    +0.000 C 
BRANCH  18  19
ATOM     19  C   UNL     1       2.091   6.275  20.677  0.00  0.00    +0.000 C 
BRANCH  19  25
ATOM     20  C   UNL     1       1.220   8.679  20.382  0.00  0.00    +0.000 A 
ATOM     21  C   UNL     1       1.138   9.846  19.612  0.00  0.00    +0.000 A 
ATOM     22  C   UNL     1       1.569   9.850  18.287  0.00  0.00    +0.000 A 
ATOM     23  C   UNL     1       2.135   8.704  17.742  0.00  0.00    +0.000 A 
ATOM     24  C   UNL     1       2.326   7.576  18.541  0.00  0.00    +0.000 A 
ATOM     25  C   UNL     1       1.893   7.552  19.879  0.00  0.00    +0.000 A 
BRANCH  20  27
ATOM     26  C   UNL     1       0.287   9.850  22.212  0.00  0.00    +0.000 C 
ATOM     27  O   UNL     1       0.653   8.594  21.628  0.00  0.00    +0.000 OA
ENDBRANCH  20  27
ENDBRANCH  19  25
ENDBRANCH  18  19
ENDBRANCH  17  18
ENDBRANCH  16  17
ENDBRANCH  15  16
ENDBRANCH   1  15
TORSDOF 10
ENDMDL
MODEL 2
REMARK VINA RESULT:      -7.5      5.505      7.980
REMARK  Name = 
REMARK  11 active torsions:
REMARK  status: ('A' for Active; 'I' for Inactive)
REMARK    1  A    between atoms: C_1  and  O_2
REMARK    2  A    between atoms: O_2  and  C_3
REMARK    3  A    between atoms: C_8  and  C_9
REMARK    4  A    between atoms: C_9  and  C_10
REMARK    5  A    between atoms: C_10  and  C_11
REMARK    6  A    between atoms: C_11  and  C_12
REMARK    7  A    between atoms: C_12  and  C_13
REMARK    8  A    between atoms: C_13  and  C_14
REMARK    9  A    between atoms: C_14  and  C_15
REMARK   10  A    between atoms: C_15  and  C_17
REMARK   11  A    between atoms: C_20  and  C_21
REMARK                            x       y       z     vdW  Elec       q    Type
REMARK                         _______ _______ _______ _____ _____    ______ ____
ROOT
ATOM      1  C   UNL     1       7.126   5.845  15.989  0.00  0.00    +0.000 C 
ENDROOT
BRANCH   1   2
ATOM      2  C   UNL     1       5.854   5.023  15.888  0.00  0.00    +0.000 C 
ATOM      3  O   UNL     1       5.733   4.136  15.044  0.00  0.00    +0.000 OA
BRANCH   2   4
ATOM      4  C   UNL     1       4.803   5.344  16.843  0.00  0.00    +0.000 A 
ATOM      5  N   UNL     1       4.161   6.491  16.979  0.00  0.00    +0.000 NA
ATOM      6  C   UNL     1       3.264   6.237  17.989  0.00  0.00    +0.000 A 
ATOM      7  C   UNL     1       3.393   4.941  18.439  0.00  0.00    +0.000 A 
ATOM      8  O   UNL     1       4.393   4.362  17.705  0.00  0.00    +0.000 OA
BRANCH   7   9
ATOM      9  C   UNL     1       2.727   4.116  19.426  0.00  0.00    +0.000 A 
ATOM     10  C   UNL     1       1.346   4.131  19.603  0.00  0.00    +0.000 A 
ATOM     11  C   UNL     1       0.790   3.348  20.610  0.00  0.00    +0.000 A 
ATOM     12  C   UNL     1       1.624   2.572  21.404  0.00  0.00    +0.000 A 
ATOM     13  C   UNL     1       2.986   2.603  21.150  0.00  0.00    +0.000 A 
ATOM     14  N   UNL     1       3.556   3.355  20.181  0.00  0.00    +0.000 NA
ENDBRANCH   7   9
ENDBRANCH   2   4
ENDBRANCH   1   2
BRANCH   1  15
ATOM     15  C   UNL     1       7.326   6.399  17.409  0.00  0.00    +0.000 C 
BRANCH  15  16
ATOM     16  C   UNL     1       7.607   7.897  17.380  0.00  0.00    +0.000 C 
BRANCH  16  17
ATOM     17  C   UNL     1       8.545   8.371  18.501  0.00  0.00    +0.000 C 
BRANCH  17  18
ATOM     18  C   UNL     1       8.626   9.897  18.437  0.00  0.00    +0.000 C 
BRANCH  18  19
ATOM     19  C   UNL     1       9.673  10.542  19.343  0.00  0.00    +0.000 C 
BRANCH  19  25
ATOM     20  C   UNL     1       9.704  13.116  19.330  0.00  0.00    +0.000 A 
ATOM     21  C   UNL     1      10.188  14.313  18.786  0.00  0.00    +0.000 A 
ATOM     22  C   UNL     1      10.911  14.307  17.595  0.00  0.00    +0.000 A 
ATOM     23  C   UNL     1      11.203  13.101  16.971  0.00  0.00    +0.000 A 
ATOM     24  C   UNL     1      10.826  11.899  17.571  0.00  0.00    +0.000 A 
ATOM     25  C   UNL     1      10.091  11.886  18.770  0.00  0.00    +0.000 A 
BRANCH  20  27
ATOM     26  C   UNL     1       9.419  13.566  21.633  0.00  0.00    +0.000 C 
ATOM     27  O   UNL     1       8.851  13.102  20.403  0.00  0.00    +0.000 OA
ENDBRANCH  20  27
ENDBRANCH  19  25
ENDBRANCH  18  19
ENDBRANCH  17  18
ENDBRANCH  16  17
ENDBRANCH  15  16
ENDBRANCH   1  15
TORSDOF 10
ENDMDL
MODEL 3
REMARK VINA RESULT:      -7.5      2.446      7.920
REMARK  Name = 
REMARK  11 active torsions:
REMARK  status: ('A' for Active; 'I' for Inactive)
REMARK    1  A    between atoms: C_1  and  O_2
REMARK    2  A    between atoms: O_2  and  C_3
REMARK    3  A    between atoms: C_8  and  C_9
REMARK    4  A    between atoms: C_9  and  C_10
REMARK    5  A    between atoms: C_10  and  C_11
REMARK    6  A    between atoms: C_11  and  C_12
REMARK    7  A    between atoms: C_12  and  C_13
REMARK    8  A    between atoms: C_13  and  C_14
REMARK    9  A    between atoms: C_14  and  C_15
REMARK   10  A    between atoms: C_15  and  C_17
REMARK   11  A    between atoms: C_20  and  C_21
REMARK                            x       y       z     vdW  Elec       q    Type
REMARK                         _______ _______ _______ _____ _____    ______ ____
ROOT
ATOM      1  C   UNL     1       0.818   4.042  20.375  0.00  0.00    +0.000 C 
ENDROOT
BRANCH   1   2
ATOM      2  C   UNL     1       2.008   4.910  20.740  0.00  0.00    +0.000 C 
ATOM      3  O   UNL     1       3.001   4.433  21.286  0.00  0.00    +0.000 OA
BRANCH   2   4
ATOM      4  C   UNL     1       1.901   6.322  20.402  0.00  0.00    +0.000 A 
ATOM      5  N   UNL     1       2.389   6.935  19.338  0.00  0.00    +0.000 NA
ATOM      6  C   UNL     1       1.972   8.235  19.499  0.00  0.00    +0.000 A 
ATOM      7  C   UNL     1       1.246   8.371  20.662  0.00  0.00    +0.000 A 
ATOM      8  O   UNL     1       1.203   7.137  21.253  0.00  0.00    +0.000 OA
BRANCH   7   9
ATOM      9  C   UNL     1       0.546   9.453  21.326  0.00  0.00    +0.000 A 
ATOM     10  C   UNL     1      -0.136   9.275  22.527  0.00  0.00    +0.000 A 
ATOM     11  C   UNL     1      -0.828  10.353  23.072  0.00  0.00    +0.000 A 
ATOM     12  C   UNL     1      -0.813  11.573  22.408  0.00  0.00    +0.000 A 
ATOM     13  C   UNL     1      -0.095  11.668  21.226  0.00  0.00    +0.000 A 
ATOM     14  N   UNL     1       0.584  10.638  20.671  0.00  0.00    +0.000 NA
ENDBRANCH   7   9
ENDBRANCH   2   4
ENDBRANCH   1   2
BRANCH   1  15
ATOM     15  C   UNL     1       1.261   2.639  19.927  0.00  0.00    +0.000 C 
BRANCH  15  16
ATOM     16  C   UNL     1       1.112   2.470  18.420  0.00  0.00    +0.000 C 
BRANCH  16  17
ATOM     17  C   UNL     1       2.024   3.396  17.601  0.00  0.00    +0.000 C 
BRANCH  17  18
ATOM     18  C   UNL     1       3.445   2.834  17.658  0.00  0.00    +0.000 C 
BRANCH  18  19
ATOM     19  C   UNL     1       4.508   3.779  18.214  0.00  0.00    +0.000 C 
BRANCH  19  25
ATOM     20  C   UNL     1       6.355   5.285  17.243  0.00  0.00    +0.000 A 
ATOM     21  C   UNL     1       7.200   5.623  16.177  0.00  0.00    +0.000 A 
ATOM     22  C   UNL     1       7.000   5.070  14.915  0.00  0.00    +0.000 A 
ATOM     23  C   UNL     1       5.992   4.134  14.723  0.00  0.00    +0.000 A 
ATOM     24  C   UNL     1       5.225   3.706  15.808  0.00  0.00    +0.000 A 
ATOM     25  C   UNL     1       5.409   4.258  17.088  0.00  0.00    +0.000 A 
BRANCH  20  27
ATOM     26  C   UNL     1       7.618   5.706  19.197  0.00  0.00    +0.000 C 
ATOM     27  O   UNL     1       6.418   5.935  18.449  0.00  0.00    +0.000 OA
ENDBRANCH  20  27
ENDBRANCH  19  25
ENDBRANCH  18  19
ENDBRANCH  17  18
ENDBRANCH  16  17
ENDBRANCH  15  16
ENDBRANCH   1  15
TORSDOF 10
ENDMDL
MODEL 4
REMARK VINA RESULT:      -7.4      1.550      3.066
REMARK  Name = 
REMARK  11 active torsions:
REMARK  status: ('A' for Active; 'I' for Inactive)
REMARK    1  A    between atoms: C_1  and  O_2
REMARK    2  A    between atoms: O_2  and  C_3
REMARK    3  A    between atoms: C_8  and  C_9
REMARK    4  A    between atoms: C_9  and  C_10
REMARK    5  A    between atoms: C_10  and  C_11
REMARK    6  A    between atoms: C_11  and  C_12
REMARK    7  A    between atoms: C_12  and  C_13
REMARK    8  A    between atoms: C_13  and  C_14
REMARK    9  A    between atoms: C_14  and  C_15
REMARK   10  A    between atoms: C_15  and  C_17
REMARK   11  A    between atoms: C_20  and  C_21
REMARK                            x       y       z     vdW  Elec       q    Type
REMARK                         _______ _______ _______ _____ _____    ______ ____
ROOT
ATOM      1  C   UNL     1       2.695   4.865  17.972  0.00  0.00    +0.000 C 
ENDROOT
BRANCH   1   2
ATOM      2  C   UNL     1       4.016   4.364  18.527  0.00  0.00    +0.000 C 
ATOM      3  O   UNL     1       4.065   3.724  19.576  0.00  0.00    +0.000 OA
BRANCH   2   4
ATOM      4  C   UNL     1       5.203   4.681  17.746  0.00  0.00    +0.000 A 
ATOM      5  N   UNL     1       6.360   5.140  18.189  0.00  0.00    +0.000 NA
ATOM      6  C   UNL     1       7.126   5.227  17.051  0.00  0.00    +0.000 A 
ATOM      7  C   UNL     1       6.406   4.820  15.949  0.00  0.00    +0.000 A 
ATOM      8  O   UNL     1       5.159   4.472  16.393  0.00  0.00    +0.000 OA
BRANCH   7   9
ATOM      9  C   UNL     1       6.677   4.664  14.534  0.00  0.00    +0.000 A 
ATOM     10  C   UNL     1       5.993   3.749  13.738  0.00  0.00    +0.000 A 
ATOM     11  C   UNL     1       6.351   3.625  12.399  0.00  0.00    +0.000 A 
ATOM     12  C   UNL     1       7.373   4.418  11.894  0.00  0.00    +0.000 A 
ATOM     13  C   UNL     1       7.991   5.315  12.751  0.00  0.00    +0.000 A 
ATOM     14  N   UNL     1       7.667   5.457  14.056  0.00  0.00    +0.000 NA
ENDBRANCH   7   9
ENDBRANCH   2   4
ENDBRANCH   1   2
BRANCH   1  15
ATOM     15  C   UNL     1       2.212   6.121  18.716  0.00  0.00    +0.000 C 
BRANCH  15  16
ATOM     16  C   UNL     1       3.060   7.335  18.355  0.00  0.00    +0.000 C 
BRANCH  16  17
ATOM     17  C   UNL     1       2.268   8.464  17.677  0.00  0.00    +0.000 C 
BRANCH  17  18
ATOM     18  C   UNL     1       1.905   9.495  18.746  0.00  0.00    +0.000 C 
BRANCH  18  19
ATOM     19  C   UNL     1       0.424   9.856  18.841  0.00  0.00    +0.000 C 
BRANCH  19  25
ATOM     20  C   UNL     1      -0.372  11.306  20.813  0.00  0.00    +0.000 A 
ATOM     21  C   UNL     1      -0.780  11.404  22.150  0.00  0.00    +0.000 A 
ATOM     22  C   UNL     1      -0.626  10.325  23.017  0.00  0.00    +0.000 A 
ATOM     23  C   UNL     1      -0.115   9.124  22.540  0.00  0.00    +0.000 A 
ATOM     24  C   UNL     1       0.182   8.985  21.185  0.00  0.00    +0.000 A 
ATOM     25  C   UNL     1       0.038  10.065  20.295  0.00  0.00    +0.000 A 
BRANCH  20  27
ATOM     26  C   UNL     1      -0.645  13.646  20.617  0.00  0.00    +0.000 C 
ATOM     27  O   UNL     1      -0.353  12.396  19.981  0.00  0.00    +0.000 OA
ENDBRANCH  20  27
ENDBRANCH  19  25
ENDBRANCH  18  19
ENDBRANCH  17  18
ENDBRANCH  16  17
ENDBRANCH  15  16
ENDBRANCH   1  15
TORSDOF 10
ENDMDL
MODEL 5
REMARK VINA RESULT:      -7.4      2.709      3.739
REMARK  Name = 
REMARK  11 active torsions:
REMARK  status: ('A' for Active; 'I' for Inactive)
REMARK    1  A    between atoms: C_1  and  O_2
REMARK    2  A    between atoms: O_2  and  C_3
REMARK    3  A    between atoms: C_8  and  C_9
REMARK    4  A    between atoms: C_9  and  C_10
REMARK    5  A    between atoms: C_10  and  C_11
REMARK    6  A    between atoms: C_11  and  C_12
REMARK    7  A    between atoms: C_12  and  C_13
REMARK    8  A    between atoms: C_13  and  C_14
REMARK    9  A    between atoms: C_14  and  C_15
REMARK   10  A    between atoms: C_15  and  C_17
REMARK   11  A    between atoms: C_20  and  C_21
REMARK                            x       y       z     vdW  Elec       q    Type
REMARK                         _______ _______ _______ _____ _____    ______ ____
ROOT
ATOM      1  C   UNL     1       2.500   2.161  20.471  0.00  0.00    +0.000 C 
ENDROOT
BRANCH   1   2
ATOM      2  C   UNL     1       3.997   2.360  20.319  0.00  0.00    +0.000 C 
ATOM      3  O   UNL     1       4.790   1.858  21.113  0.00  0.00    +0.000 OA
BRANCH   2   4
ATOM      4  C   UNL     1       4.426   3.167  19.186  0.00  0.00    +0.000 A 
ATOM      5  N   UNL     1       4.041   3.056  17.926  0.00  0.00    +0.000 NA
ATOM      6  C   UNL     1       4.718   4.074  17.296  0.00  0.00    +0.000 A 
ATOM      7  C   UNL     1       5.497   4.769  18.195  0.00  0.00    +0.000 A 
ATOM      8  O   UNL     1       5.317   4.181  19.418  0.00  0.00    +0.000 OA
BRANCH   7   9
ATOM      9  C   UNL     1       6.375   5.920  18.132  0.00  0.00    +0.000 A 
ATOM     10  C   UNL     1       6.157   6.979  17.253  0.00  0.00    +0.000 A 
ATOM     11  C   UNL     1       7.078   8.022  17.217  0.00  0.00    +0.000 A 
ATOM     12  C   UNL     1       8.182   7.980  18.059  0.00  0.00    +0.000 A 
ATOM     13  C   UNL     1       8.314   6.897  18.914  0.00  0.00    +0.000 A 
ATOM     14  N   UNL     1       7.438   5.869  18.970  0.00  0.00    +0.000 NA
ENDBRANCH   7   9
ENDBRANCH   2   4
ENDBRANCH   1   2
BRANCH   1  15
ATOM     15  C   UNL     1       1.854   3.319  21.250  0.00  0.00    +0.000 C 
BRANCH  15  16
ATOM     16  C   UNL     1       0.980   4.174  20.341  0.00  0.00    +0.000 C 
BRANCH  16  17
ATOM     17  C   UNL     1       1.709   5.390  19.748  0.00  0.00    +0.000 C 
BRANCH  17  18
ATOM     18  C   UNL     1       1.607   6.539  20.751  0.00  0.00    +0.000 C 
BRANCH  18  19
ATOM     19  C   UNL     1       1.764   7.942  20.167  0.00  0.00    +0.000 C 
BRANCH  19  25
ATOM     20  C   UNL     1       0.267  10.029  20.327  0.00  0.00    +0.000 A 
ATOM     21  C   UNL     1      -0.591  10.843  21.078  0.00  0.00    +0.000 A 
ATOM     22  C   UNL     1      -0.712  10.663  22.454  0.00  0.00    +0.000 A 
ATOM     23  C   UNL     1      -0.019   9.633  23.078  0.00  0.00    +0.000 A 
ATOM     24  C   UNL     1       0.744   8.748  22.317  0.00  0.00    +0.000 A 
ATOM     25  C   UNL     1       0.881   8.917  20.928  0.00  0.00    +0.000 A 
BRANCH  20  27
ATOM     26  C   UNL     1      -0.613  10.317  18.152  0.00  0.00    +0.000 C 
ATOM     27  O   UNL     1       0.535  10.287  19.007  0.00  0.00    +0.000 OA
ENDBRANCH  20  27
ENDBRANCH  19  25
ENDBRANCH  18  19
ENDBRANCH  17  18
ENDBRANCH  16  17
ENDBRANCH  15  16
ENDBRANCH   1  15
TORSDOF 10
ENDMDL
MODEL 6
REMARK VINA RESULT:      -7.3      5.732      8.212
REMARK  Name = 
REMARK  11 active torsions:
REMARK  status: ('A' for Active; 'I' for Inactive)
REMARK    1  A    between atoms: C_1  and  O_2
REMARK    2  A    between atoms: O_2  and  C_3
REMARK    3  A    between atoms: C_8  and  C_9
REMARK    4  A    between atoms: C_9  and  C_10
REMARK    5  A    between atoms: C_10  and  C_11
REMARK    6  A    between atoms: C_11  and  C_12
REMARK    7  A    between atoms: C_12  and  C_13
REMARK    8  A    between atoms: C_13  and  C_14
REMARK    9  A    between atoms: C_14  and  C_15
REMARK   10  A    between atoms: C_15  and  C_17
REMARK   11  A    between atoms: C_20  and  C_21
REMARK                            x       y       z     vdW  Elec       q    Type
REMARK                         _______ _______ _______ _____ _____    ______ ____
ROOT
ATOM      1  C   UNL     1       6.188   7.404  16.950  0.00  0.00    +0.000 C 
ENDROOT
BRANCH   1   2
ATOM      2  C   UNL     1       5.414   6.491  16.017  0.00  0.00    +0.000 C 
ATOM      3  O   UNL     1       5.220   6.798  14.842  0.00  0.00    +0.000 OA
BRANCH   2   4
ATOM      4  C   UNL     1       4.928   5.246  16.593  0.00  0.00    +0.000 A 
ATOM      5  N   UNL     1       5.241   4.014  16.231  0.00  0.00    +0.000 NA
ATOM      6  C   UNL     1       4.537   3.232  17.116  0.00  0.00    +0.000 A 
ATOM      7  C   UNL     1       3.814   4.017  17.987  0.00  0.00    +0.000 A 
ATOM      8  O   UNL     1       4.058   5.320  17.648  0.00  0.00    +0.000 OA
BRANCH   7   9
ATOM      9  C   UNL     1       2.941   3.775  19.118  0.00  0.00    +0.000 A 
ATOM     10  C   UNL     1       2.854   4.651  20.197  0.00  0.00    +0.000 A 
ATOM     11  C   UNL     1       2.031   4.318  21.268  0.00  0.00    +0.000 A 
ATOM     12  C   UNL     1       1.317   3.128  21.230  0.00  0.00    +0.000 A 
ATOM     13  C   UNL     1       1.448   2.320  20.111  0.00  0.00    +0.000 A 
ATOM     14  N   UNL     1       2.241   2.616  19.056  0.00  0.00    +0.000 NA
ENDBRANCH   7   9
ENDBRANCH   2   4
ENDBRANCH   1   2
BRANCH   1  15
ATOM     15  C   UNL     1       7.215   6.618  17.782  0.00  0.00    +0.000 C 
BRANCH  15  16
ATOM     16  C   UNL     1       8.230   7.552  18.430  0.00  0.00    +0.000 C 
BRANCH  16  17
ATOM     17  C   UNL     1       8.292   8.943  17.781  0.00  0.00    +0.000 C 
BRANCH  17  18
ATOM     18  C   UNL     1       8.887   9.916  18.800  0.00  0.00    +0.000 C 
BRANCH  18  19
ATOM     19  C   UNL     1       8.671  11.399  18.503  0.00  0.00    +0.000 C 
BRANCH  19  25
ATOM     20  C   UNL     1      10.065  13.559  18.620  0.00  0.00    +0.000 A 
ATOM     21  C   UNL     1      11.226  14.224  19.036  0.00  0.00    +0.000 A 
ATOM     22  C   UNL     1      12.315  13.506  19.526  0.00  0.00    +0.000 A 
ATOM     23  C   UNL     1      12.229  12.126  19.656  0.00  0.00    +0.000 A 
ATOM     24  C   UNL     1      11.034  11.472  19.354  0.00  0.00    +0.000 A 
ATOM     25  C   UNL     1       9.926  12.180  18.854  0.00  0.00    +0.000 A 
BRANCH  20  27
ATOM     26  C   UNL     1       8.174  14.960  18.837  0.00  0.00    +0.000 C 
ATOM     27  O   UNL     1       9.046  14.216  17.979  0.00  0.00    +0.000 OA
ENDBRANCH  20  27
ENDBRANCH  19  25
ENDBRANCH  18  19
ENDBRANCH  17  18
ENDBRANCH  16  17
ENDBRANCH  15  16
ENDBRANCH   1  15
TORSDOF 10
ENDMDL
MODEL 7
REMARK VINA RESULT:      -7.3      2.277      7.823
REMARK  Name = 
REMARK  11 active torsions:
REMARK  status: ('A' for Active; 'I' for Inactive)
REMARK    1  A    between atoms: C_1  and  O_2
REMARK    2  A    between atoms: O_2  and  C_3
REMARK    3  A    between atoms: C_8  and  C_9
REMARK    4  A    between atoms: C_9  and  C_10
REMARK    5  A    between atoms: C_10  and  C_11
REMARK    6  A    between atoms: C_11  and  C_12
REMARK    7  A    between atoms: C_12  and  C_13
REMARK    8  A    between atoms: C_13  and  C_14
REMARK    9  A    between atoms: C_14  and  C_15
REMARK   10  A    between atoms: C_15  and  C_17
REMARK   11  A    between atoms: C_20  and  C_21
REMARK                            x       y       z     vdW  Elec       q    Type
REMARK                         _______ _______ _______ _____ _____    ______ ____
ROOT
ATOM      1  C   UNL     1       0.820   3.365  20.183  0.00  0.00    +0.000 C 
ENDROOT
BRANCH   1   2
ATOM      2  C   UNL     1       1.739   4.231  21.025  0.00  0.00    +0.000 C 
ATOM      3  O   UNL     1       2.339   3.769  21.993  0.00  0.00    +0.000 OA
BRANCH   2   4
ATOM      4  C   UNL     1       1.865   5.622  20.614  0.00  0.00    +0.000 A 
ATOM      5  N   UNL     1       2.584   6.105  19.615  0.00  0.00    +0.000 NA
ATOM      6  C   UNL     1       2.317   7.454  19.653  0.00  0.00    +0.000 A 
ATOM      7  C   UNL     1       1.445   7.747  20.680  0.00  0.00    +0.000 A 
ATOM      8  O   UNL     1       1.156   6.567  21.309  0.00  0.00    +0.000 OA
BRANCH   7   9
ATOM      9  C   UNL     1       0.797   8.944  21.178  0.00  0.00    +0.000 A 
ATOM     10  C   UNL     1       0.201   9.002  22.435  0.00  0.00    +0.000 A 
ATOM     11  C   UNL     1      -0.448  10.173  22.816  0.00  0.00    +0.000 A 
ATOM     12  C   UNL     1      -0.478  11.248  21.938  0.00  0.00    +0.000 A 
ATOM     13  C   UNL     1       0.154  11.111  20.712  0.00  0.00    +0.000 A 
ATOM     14  N   UNL     1       0.791   9.986  20.313  0.00  0.00    +0.000 NA
ENDBRANCH   7   9
ENDBRANCH   2   4
ENDBRANCH   1   2
BRANCH   1  15
ATOM     15  C   UNL     1       1.092   3.550  18.681  0.00  0.00    +0.000 C 
BRANCH  15  16
ATOM     16  C   UNL     1       1.741   2.308  18.082  0.00  0.00    +0.000 C 
BRANCH  16  17
ATOM     17  C   UNL     1       2.809   1.672  18.986  0.00  0.00    +0.000 C 
BRANCH  17  18
ATOM     18  C   UNL     1       4.075   2.526  18.895  0.00  0.00    +0.000 C 
BRANCH  18  19
ATOM     19  C   UNL     1       4.227   3.348  17.617  0.00  0.00    +0.000 C 
BRANCH  19  25
ATOM     20  C   UNL     1       6.297   4.561  16.684  0.00  0.00    +0.000 A 
ATOM     21  C   UNL     1       7.333   5.487  16.860  0.00  0.00    +0.000 A 
ATOM     22  C   UNL     1       7.607   6.010  18.122  0.00  0.00    +0.000 A 
ATOM     23  C   UNL     1       6.812   5.653  19.204  0.00  0.00    +0.000 A 
ATOM     24  C   UNL     1       5.708   4.823  19.011  0.00  0.00    +0.000 A 
ATOM     25  C   UNL     1       5.419   4.282  17.745  0.00  0.00    +0.000 A 
BRANCH  20  27
ATOM     26  C   UNL     1       6.581   4.602  14.338  0.00  0.00    +0.000 C 
ATOM     27  O   UNL     1       6.110   3.902  15.496  0.00  0.00    +0.000 OA
ENDBRANCH  20  27
ENDBRANCH  19  25
ENDBRANCH  18  19
ENDBRANCH  17  18
ENDBRANCH  16  17
ENDBRANCH  15  16
ENDBRANCH   1  15
TORSDOF 10
ENDMDL
MODEL 8
REMARK VINA RESULT:      -7.3      1.922      3.188
REMARK  Name = 
REMARK  11 active torsions:
REMARK  status: ('A' for Active; 'I' for Inactive)
REMARK    1  A    between atoms: C_1  and  O_2
REMARK    2  A    between atoms: O_2  and  C_3
REMARK    3  A    between atoms: C_8  and  C_9
REMARK    4  A    between atoms: C_9  and  C_10
REMARK    5  A    between atoms: C_10  and  C_11
REMARK    6  A    between atoms: C_11  and  C_12
REMARK    7  A    between atoms: C_12  and  C_13
REMARK    8  A    between atoms: C_13  and  C_14
REMARK    9  A    between atoms: C_14  and  C_15
REMARK   10  A    between atoms: C_15  and  C_17
REMARK   11  A    between atoms: C_20  and  C_21
REMARK                            x       y       z     vdW  Elec       q    Type
REMARK                         _______ _______ _______ _____ _____    ______ ____
ROOT
ATOM      1  C   UNL     1       3.541   2.180  18.319  0.00  0.00    +0.000 C 
ENDROOT
BRANCH   1   2
ATOM      2  C   UNL     1       3.162   3.181  17.243  0.00  0.00    +0.000 C 
ATOM      3  O   UNL     1       2.002   3.282  16.847  0.00  0.00    +0.000 OA
BRANCH   2   4
ATOM      4  C   UNL     1       4.243   4.004  16.721  0.00  0.00    +0.000 A 
ATOM      5  N   UNL     1       4.612   4.144  15.460  0.00  0.00    +0.000 NA
ATOM      6  C   UNL     1       5.644   5.051  15.528  0.00  0.00    +0.000 A 
ATOM      7  C   UNL     1       5.870   5.431  16.834  0.00  0.00    +0.000 A 
ATOM      8  O   UNL     1       4.971   4.751  17.609  0.00  0.00    +0.000 OA
BRANCH   7   9
ATOM      9  C   UNL     1       6.769   6.349  17.504  0.00  0.00    +0.000 A 
ATOM     10  C   UNL     1       6.957   7.659  17.072  0.00  0.00    +0.000 A 
ATOM     11  C   UNL     1       7.880   8.460  17.740  0.00  0.00    +0.000 A 
ATOM     12  C   UNL     1       8.579   7.934  18.818  0.00  0.00    +0.000 A 
ATOM     13  C   UNL     1       8.319   6.624  19.192  0.00  0.00    +0.000 A 
ATOM     14  N   UNL     1       7.432   5.822  18.562  0.00  0.00    +0.000 NA
ENDBRANCH   7   9
ENDBRANCH   2   4
ENDBRANCH   1   2
BRANCH   1  15
ATOM     15  C   UNL     1       2.412   2.004  19.348  0.00  0.00    +0.000 C 
BRANCH  15  16
ATOM     16  C   UNL     1       2.726   2.744  20.643  0.00  0.00    +0.000 C 
BRANCH  16  17
ATOM     17  C   UNL     1       1.525   3.501  21.230  0.00  0.00    +0.000 C 
BRANCH  17  18
ATOM     18  C   UNL     1       1.371   4.814  20.460  0.00  0.00    +0.000 C 
BRANCH  18  19
ATOM     19  C   UNL     1       2.610   5.707  20.424  0.00  0.00    +0.000 C 
BRANCH  19  25
ATOM     20  C   UNL     1       1.575   8.050  20.170  0.00  0.00    +0.000 A 
ATOM     21  C   UNL     1       1.397   9.214  19.410  0.00  0.00    +0.000 A 
ATOM     22  C   UNL     1       1.790   9.253  18.075  0.00  0.00    +0.000 A 
ATOM     23  C   UNL     1       2.415   8.150  17.507  0.00  0.00    +0.000 A 
ATOM     24  C   UNL     1       2.701   7.032  18.291  0.00  0.00    +0.000 A 
ATOM     25  C   UNL     1       2.307   6.973  19.640  0.00  0.00    +0.000 A 
BRANCH  20  27
ATOM     26  C   UNL     1       0.051   8.892  21.769  0.00  0.00    +0.000 C 
ATOM     27  O   UNL     1       1.049   7.922  21.430  0.00  0.00    +0.000 OA
ENDBRANCH  20  27
ENDBRANCH  19  25
ENDBRANCH  18  19
ENDBRANCH  17  18
ENDBRANCH  16  17
ENDBRANCH  15  16
ENDBRANCH   1  15
TORSDOF 10
ENDMDL
MODEL 9
REMARK VINA RESULT:      -7.2      5.474      7.785
REMARK  Name = 
REMARK  11 active torsions:
REMARK  status: ('A' for Active; 'I' for Inactive)
REMARK    1  A    between atoms: C_1  and  O_2
REMARK    2  A    between atoms: O_2  and  C_3
REMARK    3  A    between atoms: C_8  and  C_9
REMARK    4  A    between atoms: C_9  and  C_10
REMARK    5  A    between atoms: C_10  and  C_11
REMARK    6  A    between atoms: C_11  and  C_12
REMARK    7  A    between atoms: C_12  and  C_13
REMARK    8  A    between atoms: C_13  and  C_14
REMARK    9  A    between atoms: C_14  and  C_15
REMARK   10  A    between atoms: C_15  and  C_17
REMARK   11  A    between atoms: C_20  and  C_21
REMARK                            x       y       z     vdW  Elec       q    Type
REMARK                         _______ _______ _______ _____ _____    ______ ____
ROOT
ATOM      1  C   UNL     1       7.647   6.911  17.764  0.00  0.00    +0.000 C 
ENDROOT
BRANCH   1   2
ATOM      2  C   UNL     1       7.318   5.619  18.490  0.00  0.00    +0.000 C 
ATOM      3  O   UNL     1       8.013   5.217  19.421  0.00  0.00    +0.000 OA
BRANCH   2   4
ATOM      4  C   UNL     1       6.142   4.900  18.022  0.00  0.00    +0.000 A 
ATOM      5  N   UNL     1       5.986   4.276  16.867  0.00  0.00    +0.000 NA
ATOM      6  C   UNL     1       4.720   3.747  16.959  0.00  0.00    +0.000 A 
ATOM      7  C   UNL     1       4.145   4.073  18.168  0.00  0.00    +0.000 A 
ATOM      8  O   UNL     1       5.058   4.824  18.856  0.00  0.00    +0.000 OA
BRANCH   7   9
ATOM      9  C   UNL     1       2.887   3.785  18.828  0.00  0.00    +0.000 A 
ATOM     10  C   UNL     1       2.494   4.425  20.000  0.00  0.00    +0.000 A 
ATOM     11  C   UNL     1       1.294   4.052  20.600  0.00  0.00    +0.000 A 
ATOM     12  C   UNL     1       0.523   3.060  20.010  0.00  0.00    +0.000 A 
ATOM     13  C   UNL     1       0.979   2.485  18.835  0.00  0.00    +0.000 A 
ATOM     14  N   UNL     1       2.141   2.825  18.231  0.00  0.00    +0.000 NA
ENDBRANCH   7   9
ENDBRANCH   2   4
ENDBRANCH   1   2
BRANCH   1  15
ATOM     15  C   UNL     1       8.419   7.884  18.670  0.00  0.00    +0.000 C 
BRANCH  15  16
ATOM     16  C   UNL     1       8.359   9.307  18.127  0.00  0.00    +0.000 C 
BRANCH  16  17
ATOM     17  C   UNL     1       9.257  10.297  18.885  0.00  0.00    +0.000 C 
BRANCH  17  18
ATOM     18  C   UNL     1       9.614  11.438  17.932  0.00  0.00    +0.000 C 
BRANCH  18  19
ATOM     19  C   UNL     1       9.977  12.765  18.597  0.00  0.00    +0.000 C 
BRANCH  19  25
ATOM     20  C   UNL     1       8.328  14.057  20.092  0.00  0.00    +0.000 A 
ATOM     21  C   UNL     1       7.191  14.866  20.215  0.00  0.00    +0.000 A 
ATOM     22  C   UNL     1       6.347  15.070  19.126  0.00  0.00    +0.000 A 
ATOM     23  C   UNL     1       6.664  14.512  17.894  0.00  0.00    +0.000 A 
ATOM     24  C   UNL     1       7.856  13.803  17.738  0.00  0.00    +0.000 A 
ATOM     25  C   UNL     1       8.718  13.584  18.828  0.00  0.00    +0.000 A 
BRANCH  20  27
ATOM     26  C   UNL     1       9.832  14.770  21.771  0.00  0.00    +0.000 C 
ATOM     27  O   UNL     1       9.082  13.702  21.181  0.00  0.00    +0.000 OA
ENDBRANCH  20  27
ENDBRANCH  19  25
ENDBRANCH  18  19
ENDBRANCH  17  18
ENDBRANCH  16  17
ENDBRANCH  15  16
ENDBRANCH   1  15
TORSDOF 10
ENDMDL
