MODEL 1
REMARK VINA RESULT:      -7.1      0.000      0.000
REMARK  Name = 
REMARK  7 active torsions:
REMARK  status: ('A' for Active; 'I' for Inactive)
REMARK    1  A    between atoms: C_1  and  C_2
REMARK    2  A    between atoms: C_8  and  O_9
REMARK    3  A    between atoms: C_12  and  C_13
REMARK    4  A    between atoms: N_16  and  C_17
REMARK    5  A    between atoms: C_17  and  C_18
REMARK    6  A    between atoms: C_18  and  C_19
REMARK    7  A    between atoms: C_19  and  C_20
REMARK                            x       y       z     vdW  Elec       q    Type
REMARK                         _______ _______ _______ _____ _____    ______ ____
ROOT
ATOM      1  C   UNL     1       7.414   5.409  19.292  0.00  0.00    +0.000 C 
ATOM      2  C   UNL     1       6.461   4.976  18.172  0.00  0.00    +0.000 C 
ATOM      3  C   UNL     1       5.321   4.021  18.611  0.00  0.00    +0.000 C 
ATOM      4  C   UNL     1       4.553   4.740  19.744  0.00  0.00    +0.000 C 
ATOM      5  C   UNL     1       3.927   6.007  19.203  0.00  0.00    +0.000 A 
ATOM      6  C   UNL     1       2.739   6.466  19.792  0.00  0.00    +0.000 A 
ATOM      7  C   UNL     1       2.001   7.478  19.186  0.00  0.00    +0.000 A 
ATOM      8  C   UNL     1       2.467   8.037  18.004  0.00  0.00    +0.000 A 
ATOM      9  C   UNL     1       3.688   7.650  17.453  0.00  0.00    +0.000 A 
ATOM     10  C   UNL     1       4.459   6.638  18.052  0.00  0.00    +0.000 A 
ATOM     11  C   UNL     1       5.775   6.142  17.386  0.00  0.00    +0.000 C 
ATOM     12  C   UNL     1       6.721   7.341  17.188  0.00  0.00    +0.000 C 
ATOM     13  C   UNL     1       5.460   5.496  16.008  0.00  0.00    +0.000 C 
ATOM     14  C   UNL     1       4.869   4.078  16.125  0.00  0.00    +0.000 C 
ATOM     15  N   UNL     1       4.430   3.737  17.465  0.00  0.00    +0.000 NA
ENDROOT
BRANCH   8  16
ATOM     16  O   UNL     1       1.730   8.966  17.327  0.00  0.00    +0.000 OA
ATOM     17  H   UNL     1       2.343   9.594  16.912  0.00  0.00    +0.000 HD
ENDBRANCH   8  16
BRANCH  15  18
ATOM     18  C   UNL     1       3.334   2.802  17.596  0.00  0.00    +0.000 C 
BRANCH  18  19
ATOM     19  C   UNL     1       1.974   3.499  17.683  0.00  0.00    +0.000 C 
BRANCH  19  20
ATOM     20  C   UNL     1       0.992   2.741  18.586  0.00  0.00    +0.000 C 
BRANCH  20  21
ATOM     21  C   UNL     1       1.194   3.040  20.004  0.00  0.00    +0.000 C 
ATOM     22  N   UNL     1       1.350   3.285  21.128  0.00  0.00    +0.000 NA
ENDBRANCH  20  21
ENDBRANCH  19  20
ENDBRANCH  18  19
ENDBRANCH  15  18
TORSDOF 5
ENDMDL
MODEL 2
REMARK VINA RESULT:      -6.7      2.917      5.526
REMARK  Name = 
REMARK  7 active torsions:
REMARK  status: ('A' for Active; 'I' for Inactive)
REMARK    1  A    between atoms: C_1  and  C_2
REMARK    2  A    between atoms: C_8  and  O_9
REMARK    3  A    between atoms: C_12  and  C_13
REMARK    4  A    between atoms: N_16  and  C_17
REMARK    5  A    between atoms: C_17  and  C_18
REMARK    6  A    between atoms: C_18  and  C_19
REMARK    7  A    between atoms: C_19  and  C_20
REMARK                            x       y       z     vdW  Elec       q    Type
REMARK                         _______ _______ _______ _____ _____    ______ ____
ROOT
ATOM      1  C   UNL     1       5.579   3.812  15.719  0.00  0.00    +0.000 C 
ATOM      2  C   UNL     1       6.209   4.648  16.839  0.00  0.00    +0.000 C 
ATOM      3  C   UNL     1       6.471   6.134  16.482  0.00  0.00    +0.000 C 
ATOM      4  C   UNL     1       5.114   6.730  16.042  0.00  0.00    +0.000 C 
ATOM      5  C   UNL     1       4.145   6.687  17.203  0.00  0.00    +0.000 A 
ATOM      6  C   UNL     1       3.147   7.672  17.274  0.00  0.00    +0.000 A 
ATOM      7  C   UNL     1       2.390   7.821  18.432  0.00  0.00    +0.000 A 
ATOM      8  C   UNL     1       2.624   6.971  19.504  0.00  0.00    +0.000 A 
ATOM      9  C   UNL     1       3.553   5.936  19.417  0.00  0.00    +0.000 A 
ATOM     10  C   UNL     1       4.323   5.755  18.255  0.00  0.00    +0.000 A 
ATOM     11  C   UNL     1       5.425   4.658  18.193  0.00  0.00    +0.000 C 
ATOM     12  C   UNL     1       4.788   3.289  18.502  0.00  0.00    +0.000 C 
ATOM     13  C   UNL     1       6.534   4.963  19.237  0.00  0.00    +0.000 C 
ATOM     14  C   UNL     1       7.491   6.087  18.794  0.00  0.00    +0.000 C 
ATOM     15  N   UNL     1       7.007   6.851  17.659  0.00  0.00    +0.000 NA
ENDROOT
BRANCH   8  16
ATOM     16  O   UNL     1       1.970   7.141  20.691  0.00  0.00    +0.000 OA
ATOM     17  H   UNL     1       2.571   6.878  21.407  0.00  0.00    +0.000 HD
ENDBRANCH   8  16
BRANCH  15  18
ATOM     18  C   UNL     1       7.413   8.235  17.560  0.00  0.00    +0.000 C 
BRANCH  18  19
ATOM     19  C   UNL     1       8.564   8.580  18.509  0.00  0.00    +0.000 C 
BRANCH  19  20
ATOM     20  C   UNL     1       8.957  10.061  18.429  0.00  0.00    +0.000 C 
BRANCH  20  21
ATOM     21  C   UNL     1       9.234  10.636  19.747  0.00  0.00    +0.000 C 
ATOM     22  N   UNL     1       9.459  11.084  20.793  0.00  0.00    +0.000 NA
ENDBRANCH  20  21
ENDBRANCH  19  20
ENDBRANCH  18  19
ENDBRANCH  15  18
TORSDOF 5
ENDMDL
MODEL 3
REMARK VINA RESULT:      -6.6      1.779      4.890
REMARK  Name = 
REMARK  7 active torsions:
REMARK  status: ('A' for Active; 'I' for Inactive)
REMARK    1  A    between atoms: C_1  and  C_2
REMARK    2  A    between atoms: C_8  and  O_9
REMARK    3  A    between atoms: C_12  and  C_13
REMARK    4  A    between atoms: N_16  and  C_17
REMARK    5  A    between atoms: C_17  and  C_18
REMARK    6  A    between atoms: C_18  and  C_19
REMARK    7  A    between atoms: C_19  and  C_20
REMARK                            x       y       z     vdW  Elec       q    Type
REMARK                         _______ _______ _______ _____ _____    ______ ____
ROOT
ATOM      1  C   UNL     1       0.955   1.971  18.187  0.00  0.00    +0.000 C 
ATOM      2  C   UNL     1       2.242   2.359  18.925  0.00  0.00    +0.000 C 
ATOM      3  C   UNL     1       3.338   3.005  18.038  0.00  0.00    +0.000 C 
ATOM      4  C   UNL     1       2.693   4.238  17.364  0.00  0.00    +0.000 C 
ATOM      5  C   UNL     1       2.292   5.239  18.424  0.00  0.00    +0.000 A 
ATOM      6  C   UNL     1       2.288   6.602  18.086  0.00  0.00    +0.000 A 
ATOM      7  C   UNL     1       2.162   7.570  19.077  0.00  0.00    +0.000 A 
ATOM      8  C   UNL     1       2.022   7.169  20.399  0.00  0.00    +0.000 A 
ATOM      9  C   UNL     1       1.939   5.819  20.739  0.00  0.00    +0.000 A 
ATOM     10  C   UNL     1       2.051   4.821  19.757  0.00  0.00    +0.000 A 
ATOM     11  C   UNL     1       2.053   3.315  20.149  0.00  0.00    +0.000 C 
ATOM     12  C   UNL     1       0.766   3.000  20.935  0.00  0.00    +0.000 C 
ATOM     13  C   UNL     1       3.291   2.999  21.033  0.00  0.00    +0.000 C 
ATOM     14  C   UNL     1       4.600   2.891  20.225  0.00  0.00    +0.000 C 
ATOM     15  N   UNL     1       4.494   3.402  18.872  0.00  0.00    +0.000 NA
ENDROOT
BRANCH   8  16
ATOM     16  O   UNL     1       1.988   8.084  21.411  0.00  0.00    +0.000 OA
ATOM     17  H   UNL     1       2.867   8.109  21.824  0.00  0.00    +0.000 HD
ENDBRANCH   8  16
BRANCH  15  18
ATOM     18  C   UNL     1       5.687   3.952  18.267  0.00  0.00    +0.000 C 
BRANCH  18  19
ATOM     19  C   UNL     1       5.962   5.390  18.713  0.00  0.00    +0.000 C 
BRANCH  19  20
ATOM     20  C   UNL     1       5.970   6.371  17.533  0.00  0.00    +0.000 C 
BRANCH  20  21
ATOM     21  C   UNL     1       6.793   5.897  16.419  0.00  0.00    +0.000 C 
ATOM     22  N   UNL     1       7.439   5.526  15.530  0.00  0.00    +0.000 NA
ENDBRANCH  20  21
ENDBRANCH  19  20
ENDBRANCH  18  19
ENDBRANCH  15  18
TORSDOF 5
ENDMDL
MODEL 4
REMARK VINA RESULT:      -6.4      1.813      4.729
REMARK  Name = 
REMARK  7 active torsions:
REMARK  status: ('A' for Active; 'I' for Inactive)
REMARK    1  A    between atoms: C_1  and  C_2
REMARK    2  A    between atoms: C_8  and  O_9
REMARK    3  A    between atoms: C_12  and  C_13
REMARK    4  A    between atoms: N_16  and  C_17
REMARK    5  A    between atoms: C_17  and  C_18
REMARK    6  A    between atoms: C_18  and  C_19
REMARK    7  A    between atoms: C_19  and  C_20
REMARK                            x       y       z     vdW  Elec       q    Type
REMARK                         _______ _______ _______ _____ _____    ______ ____
ROOT
ATOM      1  C   UNL     1       0.756   1.872  18.501  0.00  0.00    +0.000 C 
ATOM      2  C   UNL     1       2.146   2.338  18.952  0.00  0.00    +0.000 C 
ATOM      3  C   UNL     1       3.012   2.991  17.843  0.00  0.00    +0.000 C 
ATOM      4  C   UNL     1       2.190   4.170  17.276  0.00  0.00    +0.000 C 
ATOM      5  C   UNL     1       1.964   5.196  18.365  0.00  0.00    +0.000 A 
ATOM      6  C   UNL     1       1.831   6.543  17.993  0.00  0.00    +0.000 A 
ATOM      7  C   UNL     1       1.863   7.544  18.959  0.00  0.00    +0.000 A 
ATOM      8  C   UNL     1       2.008   7.189  20.293  0.00  0.00    +0.000 A 
ATOM      9  C   UNL     1       2.057   5.852  20.684  0.00  0.00    +0.000 A 
ATOM     10  C   UNL     1       2.015   4.821  19.730  0.00  0.00    +0.000 A 
ATOM     11  C   UNL     1       2.163   3.333  20.159  0.00  0.00    +0.000 C 
ATOM     12  C   UNL     1       1.075   2.999  21.198  0.00  0.00    +0.000 C 
ATOM     13  C   UNL     1       3.566   3.099  20.785  0.00  0.00    +0.000 C 
ATOM     14  C   UNL     1       4.690   3.010  19.733  0.00  0.00    +0.000 C 
ATOM     15  N   UNL     1       4.292   3.463  18.414  0.00  0.00    +0.000 NA
ENDROOT
BRANCH   8  16
ATOM     16  O   UNL     1       2.137   8.141  21.263  0.00  0.00    +0.000 OA
ATOM     17  H   UNL     1       3.084   8.298  21.408  0.00  0.00    +0.000 HD
ENDBRANCH   8  16
BRANCH  15  18
ATOM     18  C   UNL     1       5.313   4.035  17.564  0.00  0.00    +0.000 C 
BRANCH  18  19
ATOM     19  C   UNL     1       5.562   5.516  17.858  0.00  0.00    +0.000 C 
BRANCH  19  20
ATOM     20  C   UNL     1       7.054   5.833  18.020  0.00  0.00    +0.000 C 
BRANCH  20  21
ATOM     21  C   UNL     1       7.541   5.547  19.371  0.00  0.00    +0.000 C 
ATOM     22  N   UNL     1       7.935   5.317  20.438  0.00  0.00    +0.000 NA
ENDBRANCH  20  21
ENDBRANCH  19  20
ENDBRANCH  18  19
ENDBRANCH  15  18
TORSDOF 5
ENDMDL
MODEL 5
REMARK VINA RESULT:      -6.4      2.743      5.005
REMARK  Name = 
REMARK  7 active torsions:
REMARK  status: ('A' for Active; 'I' for Inactive)
REMARK    1  A    between atoms: C_1  and  C_2
REMARK    2  A    between atoms: C_8  and  O_9
REMARK    3  A    between atoms: C_12  and  C_13
REMARK    4  A    between atoms: N_16  and  C_17
REMARK    5  A    between atoms: C_17  and  C_18
REMARK    6  A    between atoms: C_18  and  C_19
REMARK    7  A    between atoms: C_19  and  C_20
REMARK                            x       y       z     vdW  Elec       q    Type
REMARK                         _______ _______ _______ _____ _____    ______ ____
ROOT
ATOM      1  C   UNL     1       4.288   2.635  20.491  0.00  0.00    +0.000 C 
ATOM      2  C   UNL     1       3.516   3.533  19.518  0.00  0.00    +0.000 C 
ATOM      3  C   UNL     1       3.897   5.036  19.568  0.00  0.00    +0.000 C 
ATOM      4  C   UNL     1       5.418   5.116  19.307  0.00  0.00    +0.000 C 
ATOM      5  C   UNL     1       5.719   4.598  17.918  0.00  0.00    +0.000 A 
ATOM      6  C   UNL     1       6.830   5.122  17.239  0.00  0.00    +0.000 A 
ATOM      7  C   UNL     1       7.011   4.861  15.884  0.00  0.00    +0.000 A 
ATOM      8  C   UNL     1       6.089   4.062  15.222  0.00  0.00    +0.000 A 
ATOM      9  C   UNL     1       5.028   3.467  15.903  0.00  0.00    +0.000 A 
ATOM     10  C   UNL     1       4.829   3.704  17.274  0.00  0.00    +0.000 A 
ATOM     11  C   UNL     1       3.592   3.115  18.012  0.00  0.00    +0.000 C 
ATOM     12  C   UNL     1       3.585   1.584  17.837  0.00  0.00    +0.000 C 
ATOM     13  C   UNL     1       2.287   3.712  17.417  0.00  0.00    +0.000 C 
ATOM     14  C   UNL     1       2.008   5.151  17.893  0.00  0.00    +0.000 C 
ATOM     15  N   UNL     1       3.143   5.783  18.537  0.00  0.00    +0.000 NA
ENDROOT
BRANCH   8  16
ATOM     16  O   UNL     1       6.176   3.857  13.875  0.00  0.00    +0.000 OA
ATOM     17  H   UNL     1       5.301   3.582  13.555  0.00  0.00    +0.000 HD
ENDBRANCH   8  16
BRANCH  15  18
ATOM     18  C   UNL     1       3.258   7.221  18.436  0.00  0.00    +0.000 C 
BRANCH  18  19
ATOM     19  C   UNL     1       1.987   7.876  17.890  0.00  0.00    +0.000 C 
BRANCH  19  20
ATOM     20  C   UNL     1       2.071   9.408  17.906  0.00  0.00    +0.000 C 
BRANCH  20  21
ATOM     21  C   UNL     1       0.843  10.028  18.406  0.00  0.00    +0.000 C 
ATOM     22  N   UNL     1      -0.132  10.512  18.810  0.00  0.00    +0.000 NA
ENDBRANCH  20  21
ENDBRANCH  19  20
ENDBRANCH  18  19
ENDBRANCH  15  18
TORSDOF 5
ENDMDL
MODEL 6
REMARK VINA RESULT:      -6.1      1.986      4.862
REMARK  Name = 
REMARK  7 active torsions:
REMARK  status: ('A' for Active; 'I' for Inactive)
REMARK    1  A    between atoms: C_1  and  C_2
REMARK    2  A    between atoms: C_8  and  O_9
REMARK    3  A    between atoms: C_12  and  C_13
REMARK    4  A    between atoms: N_16  and  C_17
REMARK    5  A    between atoms: C_17  and  C_18
REMARK    6  A    between atoms: C_18  and  C_19
REMARK    7  A    between atoms: C_19  and  C_20
REMARK                            x       y       z     vdW  Elec       q    Type
REMARK                         _______ _______ _______ _____ _____    ______ ____
ROOT
ATOM      1  C   UNL     1       0.755   1.910  18.460  0.00  0.00    +0.000 C 
ATOM      2  C   UNL     1       2.129   2.356  18.973  0.00  0.00    +0.000 C 
ATOM      3  C   UNL     1       3.045   3.015  17.909  0.00  0.00    +0.000 C 
ATOM      4  C   UNL     1       2.257   4.210  17.325  0.00  0.00    +0.000 C 
ATOM      5  C   UNL     1       1.997   5.223  18.417  0.00  0.00    +0.000 A 
ATOM      6  C   UNL     1       1.891   6.577  18.059  0.00  0.00    +0.000 A 
ATOM      7  C   UNL     1       1.892   7.564  19.039  0.00  0.00    +0.000 A 
ATOM      8  C   UNL     1       1.980   7.190  20.373  0.00  0.00    +0.000 A 
ATOM      9  C   UNL     1       2.001   5.848  20.747  0.00  0.00    +0.000 A 
ATOM     10  C   UNL     1       1.988   4.830  19.778  0.00  0.00    +0.000 A 
ATOM     11  C   UNL     1       2.106   3.335  20.193  0.00  0.00    +0.000 C 
ATOM     12  C   UNL     1       0.973   2.998  21.183  0.00  0.00    +0.000 C 
ATOM     13  C   UNL     1       3.480   3.080  20.872  0.00  0.00    +0.000 C 
ATOM     14  C   UNL     1       4.645   2.993  19.866  0.00  0.00    +0.000 C 
ATOM     15  N   UNL     1       4.305   3.468  18.538  0.00  0.00    +0.000 NA
ENDROOT
BRANCH   8  16
ATOM     16  O   UNL     1       2.078   8.128  21.360  0.00  0.00    +0.000 OA
ATOM     17  H   UNL     1       3.000   8.151  21.664  0.00  0.00    +0.000 HD
ENDBRANCH   8  16
BRANCH  15  18
ATOM     18  C   UNL     1       5.365   4.041  17.738  0.00  0.00    +0.000 C 
BRANCH  18  19
ATOM     19  C   UNL     1       5.233   3.696  16.252  0.00  0.00    +0.000 C 
BRANCH  19  20
ATOM     20  C   UNL     1       6.454   4.148  15.441  0.00  0.00    +0.000 C 
BRANCH  20  21
ATOM     21  C   UNL     1       7.020   5.403  15.939  0.00  0.00    +0.000 C 
ATOM     22  N   UNL     1       7.460   6.400  16.337  0.00  0.00    +0.000 NA
ENDBRANCH  20  21
ENDBRANCH  19  20
ENDBRANCH  18  19
ENDBRANCH  15  18
TORSDOF 5
ENDMDL
MODEL 7
REMARK VINA RESULT:      -6.0      1.930      4.787
REMARK  Name = 
REMARK  7 active torsions:
REMARK  status: ('A' for Active; 'I' for Inactive)
REMARK    1  A    between atoms: C_1  and  C_2
REMARK    2  A    between atoms: C_8  and  O_9
REMARK    3  A    between atoms: C_12  and  C_13
REMARK    4  A    between atoms: N_16  and  C_17
REMARK    5  A    between atoms: C_17  and  C_18
REMARK    6  A    between atoms: C_18  and  C_19
REMARK    7  A    between atoms: C_19  and  C_20
REMARK                            x       y       z     vdW  Elec       q    Type
REMARK                         _______ _______ _______ _____ _____    ______ ____
ROOT
ATOM      1  C   UNL     1       1.976   2.597  17.169  0.00  0.00    +0.000 C 
ATOM      2  C   UNL     1       2.980   2.941  18.275  0.00  0.00    +0.000 C 
ATOM      3  C   UNL     1       4.158   3.849  17.835  0.00  0.00    +0.000 C 
ATOM      4  C   UNL     1       3.530   5.130  17.240  0.00  0.00    +0.000 C 
ATOM      5  C   UNL     1       2.750   5.855  18.314  0.00  0.00    +0.000 A 
ATOM      6  C   UNL     1       2.639   7.252  18.229  0.00  0.00    +0.000 A 
ATOM      7  C   UNL     1       2.145   7.983  19.305  0.00  0.00    +0.000 A 
ATOM      8  C   UNL     1       1.746   7.310  20.451  0.00  0.00    +0.000 A 
ATOM      9  C   UNL     1       1.772   5.918  20.518  0.00  0.00    +0.000 A 
ATOM     10  C   UNL     1       2.255   5.154  19.442  0.00  0.00    +0.000 A 
ATOM     11  C   UNL     1       2.371   3.607  19.553  0.00  0.00    +0.000 C 
ATOM     12  C   UNL     1       0.989   3.024  19.905  0.00  0.00    +0.000 C 
ATOM     13  C   UNL     1       3.391   3.230  20.663  0.00  0.00    +0.000 C 
ATOM     14  C   UNL     1       4.857   3.406  20.223  0.00  0.00    +0.000 C 
ATOM     15  N   UNL     1       5.011   4.170  19.000  0.00  0.00    +0.000 NA
ENDROOT
BRANCH   8  16
ATOM     16  O   UNL     1       1.343   7.994  21.563  0.00  0.00    +0.000 OA
ATOM     17  H   UNL     1       2.129   8.387  21.976  0.00  0.00    +0.000 HD
ENDBRANCH   8  16
BRANCH  15  18
ATOM     18  C   UNL     1       6.227   4.936  18.835  0.00  0.00    +0.000 C 
BRANCH  18  19
ATOM     19  C   UNL     1       7.058   4.471  17.637  0.00  0.00    +0.000 C 
BRANCH  19  20
ATOM     20  C   UNL     1       7.080   5.510  16.509  0.00  0.00    +0.000 C 
BRANCH  20  21
ATOM     21  C   UNL     1       7.291   6.870  17.007  0.00  0.00    +0.000 C 
ATOM     22  N   UNL     1       7.452   7.952  17.396  0.00  0.00    +0.000 NA
ENDBRANCH  20  21
ENDBRANCH  19  20
ENDBRANCH  18  19
ENDBRANCH  15  18
TORSDOF 5
ENDMDL
MODEL 8
REMARK VINA RESULT:      -6.0      1.892      4.772
REMARK  Name = 
REMARK  7 active torsions:
REMARK  status: ('A' for Active; 'I' for Inactive)
REMARK    1  A    between atoms: C_1  and  C_2
REMARK    2  A    between atoms: C_8  and  O_9
REMARK    3  A    between atoms: C_12  and  C_13
REMARK    4  A    between atoms: N_16  and  C_17
REMARK    5  A    between atoms: C_17  and  C_18
REMARK    6  A    between atoms: C_18  and  C_19
REMARK    7  A    between atoms: C_19  and  C_20
REMARK                            x       y       z     vdW  Elec       q    Type
REMARK                         _______ _______ _______ _____ _____    ______ ____
ROOT
ATOM      1  C   UNL     1       2.094   2.545  17.073  0.00  0.00    +0.000 C 
ATOM      2  C   UNL     1       3.118   2.909  18.155  0.00  0.00    +0.000 C 
ATOM      3  C   UNL     1       4.253   3.860  17.692  0.00  0.00    +0.000 C 
ATOM      4  C   UNL     1       3.568   5.126  17.129  0.00  0.00    +0.000 C 
ATOM      5  C   UNL     1       2.796   5.814  18.233  0.00  0.00    +0.000 A 
ATOM      6  C   UNL     1       2.638   7.207  18.167  0.00  0.00    +0.000 A 
ATOM      7  C   UNL     1       2.152   7.911  19.264  0.00  0.00    +0.000 A 
ATOM      8  C   UNL     1       1.808   7.214  20.414  0.00  0.00    +0.000 A 
ATOM      9  C   UNL     1       1.880   5.823  20.465  0.00  0.00    +0.000 A 
ATOM     10  C   UNL     1       2.357   5.086  19.367  0.00  0.00    +0.000 A 
ATOM     11  C   UNL     1       2.525   3.542  19.457  0.00  0.00    +0.000 C 
ATOM     12  C   UNL     1       1.172   2.911  19.841  0.00  0.00    +0.000 C 
ATOM     13  C   UNL     1       3.587   3.187  20.533  0.00  0.00    +0.000 C 
ATOM     14  C   UNL     1       5.034   3.415  20.054  0.00  0.00    +0.000 C 
ATOM     15  N   UNL     1       5.129   4.196  18.835  0.00  0.00    +0.000 NA
ENDROOT
BRANCH   8  16
ATOM     16  O   UNL     1       1.415   7.873  21.544  0.00  0.00    +0.000 OA
ATOM     17  H   UNL     1       0.976   7.233  22.128  0.00  0.00    +0.000 HD
ENDBRANCH   8  16
BRANCH  15  18
ATOM     18  C   UNL     1       6.314   5.003  18.645  0.00  0.00    +0.000 C 
BRANCH  18  19
ATOM     19  C   UNL     1       7.193   4.496  17.499  0.00  0.00    +0.000 C 
BRANCH  19  20
ATOM     20  C   UNL     1       7.126   5.411  16.269  0.00  0.00    +0.000 C 
BRANCH  20  21
ATOM     21  C   UNL     1       6.777   4.680  15.050  0.00  0.00    +0.000 C 
ATOM     22  N   UNL     1       6.510   4.103  14.079  0.00  0.00    +0.000 NA
ENDBRANCH  20  21
ENDBRANCH  19  20
ENDBRANCH  18  19
ENDBRANCH  15  18
TORSDOF 5
ENDMDL
MODEL 9
REMARK VINA RESULT:      -6.0      2.051      4.976
REMARK  Name = 
REMARK  7 active torsions:
REMARK  status: ('A' for Active; 'I' for Inactive)
REMARK    1  A    between atoms: C_1  and  C_2
REMARK    2  A    between atoms: C_8  and  O_9
REMARK    3  A    between atoms: C_12  and  C_13
REMARK    4  A    between atoms: N_16  and  C_17
REMARK    5  A    between atoms: C_17  and  C_18
REMARK    6  A    between atoms: C_18  and  C_19
REMARK    7  A    between atoms: C_19  and  C_20
REMARK                            x       y       z     vdW  Elec       q    Type
REMARK                         _______ _______ _______ _____ _____    ______ ____
ROOT
ATOM      1  C   UNL     1       0.823   1.968  18.371  0.00  0.00    +0.000 C 
ATOM      2  C   UNL     1       2.188   2.413  18.910  0.00  0.00    +0.000 C 
ATOM      3  C   UNL     1       3.115   3.092  17.868  0.00  0.00    +0.000 C 
ATOM      4  C   UNL     1       2.330   4.292  17.291  0.00  0.00    +0.000 C 
ATOM      5  C   UNL     1       2.050   5.288  18.394  0.00  0.00    +0.000 A 
ATOM      6  C   UNL     1       1.942   6.646  18.054  0.00  0.00    +0.000 A 
ATOM      7  C   UNL     1       1.926   7.618  19.049  0.00  0.00    +0.000 A 
ATOM      8  C   UNL     1       1.997   7.226  20.378  0.00  0.00    +0.000 A 
ATOM      9  C   UNL     1       2.019   5.878  20.733  0.00  0.00    +0.000 A 
ATOM     10  C   UNL     1       2.025   4.874  19.749  0.00  0.00    +0.000 A 
ATOM     11  C   UNL     1       2.143   3.374  20.144  0.00  0.00    +0.000 C 
ATOM     12  C   UNL     1       0.999   3.017  21.112  0.00  0.00    +0.000 C 
ATOM     13  C   UNL     1       3.510   3.115  20.837  0.00  0.00    +0.000 C 
ATOM     14  C   UNL     1       4.688   3.049  19.846  0.00  0.00    +0.000 C 
ATOM     15  N   UNL     1       4.364   3.541  18.521  0.00  0.00    +0.000 NA
ENDROOT
BRANCH   8  16
ATOM     16  O   UNL     1       2.077   8.149  21.381  0.00  0.00    +0.000 OA
ATOM     17  H   UNL     1       1.264   8.681  21.366  0.00  0.00    +0.000 HD
ENDBRANCH   8  16
BRANCH  15  18
ATOM     18  C   UNL     1       5.433   4.131  17.744  0.00  0.00    +0.000 C 
BRANCH  18  19
ATOM     19  C   UNL     1       5.215   3.982  16.236  0.00  0.00    +0.000 C 
BRANCH  19  20
ATOM     20  C   UNL     1       6.517   4.150  15.443  0.00  0.00    +0.000 C 
BRANCH  20  21
ATOM     21  C   UNL     1       6.339   3.879  14.015  0.00  0.00    +0.000 C 
ATOM     22  N   UNL     1       6.204   3.671  12.882  0.00  0.00    +0.000 NA
ENDBRANCH  20  21
ENDBRANCH  19  20
ENDBRANCH  18  19
ENDBRANCH  15  18
TORSDOF 5
ENDMDL
