MODEL 1
REMARK VINA RESULT:      -8.5      0.000      0.000
REMARK  Name = 
REMARK  5 active torsions:
REMARK  status: ('A' for Active; 'I' for Inactive)
REMARK    1  A    between atoms: C_1  and  C_2
REMARK    2  A    between atoms: C_5  and  C_6
REMARK    3  A    between atoms: C_16  and  C_17
REMARK    4  A    between atoms: C_17  and  N_18
REMARK    5  A    between atoms: N_21  and  C_22
REMARK                            x       y       z     vdW  Elec       q    Type
REMARK                         _______ _______ _______ _____ _____    ______ ____
ROOT
ATOM      1  C   UNL     1       2.299   9.647  17.730  0.00  0.00    +0.000 C 
ATOM      2  C   UNL     1       2.387   8.344  18.435  0.00  0.00    +0.000 A 
ATOM      3  N   UNL     1       3.272   7.428  18.026  0.00  0.00    +0.000 NA
ATOM      4  N   UNL     1       3.111   6.357  18.855  0.00  0.00    +0.000 N 
ATOM      5  C   UNL     1       3.757   5.096  18.819  0.00  0.00    +0.000 A 
ATOM      6  C   UNL     1       3.435   4.167  19.746  0.00  0.00    +0.000 A 
ATOM      7  C   UNL     1       2.506   4.503  20.806  0.00  0.00    +0.000 A 
ATOM      8  C   UNL     1       1.899   5.698  20.855  0.00  0.00    +0.000 A 
ATOM      9  C   UNL     1       2.144   6.659  19.830  0.00  0.00    +0.000 A 
ATOM     10  C   UNL     1       1.619   7.909  19.554  0.00  0.00    +0.000 A 
ENDROOT
BRANCH   5  11
ATOM     11  C   UNL     1       4.827   4.727  17.874  0.00  0.00    +0.000 A 
ATOM     12  C   UNL     1       6.183   4.901  18.184  0.00  0.00    +0.000 A 
ATOM     13  C   UNL     1       7.161   4.741  17.196  0.00  0.00    +0.000 A 
ATOM     14  C   UNL     1       6.792   4.414  15.889  0.00  0.00    +0.000 A 
ATOM     15  C   UNL     1       5.448   4.226  15.575  0.00  0.00    +0.000 A 
ATOM     16  C   UNL     1       4.471   4.379  16.562  0.00  0.00    +0.000 A 
ENDBRANCH   5  11
BRANCH  10  17
ATOM     17  C   UNL     1       0.494   8.619  20.254  0.00  0.00    +0.000 C 
BRANCH  17  18
ATOM     18  N   UNL     1       1.024   9.505  21.290  0.00  0.00    +0.000 NA
ATOM     19  C   UNL     1       1.003  10.929  20.926  0.00  0.00    +0.000 C 
ATOM     20  C   UNL     1      -0.337  11.642  21.177  0.00  0.00    +0.000 C 
ATOM     21  N   UNL     1      -0.686  11.573  22.602  0.00  0.00    +0.000 N 
ATOM     22  C   UNL     1      -0.690  10.209  23.170  0.00  0.00    +0.000 C 
ATOM     23  C   UNL     1       0.464   9.301  22.639  0.00  0.00    +0.000 C 
BRANCH  21  24
ATOM     24  C   UNL     1      -1.612  12.491  23.115  0.00  0.00    +0.000 A 
ATOM     25  C   UNL     1      -2.964  12.171  23.336  0.00  0.00    +0.000 A 
ATOM     26  C   UNL     1      -3.899  13.134  23.744  0.00  0.00    +0.000 A 
ATOM     27  C   UNL     1      -3.491  14.446  23.941  0.00  0.00    +0.000 A 
ATOM     28 CL   UNL     1      -4.646  15.645  24.389  0.00  0.00    +0.000 Cl
ATOM     29  C   UNL     1      -2.163  14.797  23.759  0.00  0.00    +0.000 A 
ATOM     30  C   UNL     1      -1.236  13.824  23.355  0.00  0.00    +0.000 A 
ENDBRANCH  21  24
ENDBRANCH  17  18
ENDBRANCH  10  17
TORSDOF 4
ENDMDL
MODEL 2
REMARK VINA RESULT:      -8.2      0.380      1.296
REMARK  Name = 
REMARK  5 active torsions:
REMARK  status: ('A' for Active; 'I' for Inactive)
REMARK    1  A    between atoms: C_1  and  C_2
REMARK    2  A    between atoms: C_5  and  C_6
REMARK    3  A    between atoms: C_16  and  C_17
REMARK    4  A    between atoms: C_17  and  N_18
REMARK    5  A    between atoms: N_21  and  C_22
REMARK                            x       y       z     vdW  Elec       q    Type
REMARK                         _______ _______ _______ _____ _____    ______ ____
ROOT
ATOM      1  C   UNL     1       2.047  10.000  17.822  0.00  0.00    +0.000 C 
ATOM      2  C   UNL     1       2.207   8.677  18.474  0.00  0.00    +0.000 A 
ATOM      3  N   UNL     1       3.124   7.818  18.014  0.00  0.00    +0.000 NA
ATOM      4  N   UNL     1       3.028   6.710  18.804  0.00  0.00    +0.000 N 
ATOM      5  C   UNL     1       3.729   5.482  18.707  0.00  0.00    +0.000 A 
ATOM      6  C   UNL     1       3.467   4.506  19.604  0.00  0.00    +0.000 A 
ATOM      7  C   UNL     1       2.546   4.758  20.693  0.00  0.00    +0.000 A 
ATOM      8  C   UNL     1       1.887   5.923  20.799  0.00  0.00    +0.000 A 
ATOM      9  C   UNL     1       2.068   6.932  19.807  0.00  0.00    +0.000 A 
ATOM     10  C   UNL     1       1.482   8.166  19.590  0.00  0.00    +0.000 A 
ENDROOT
BRANCH   5  11
ATOM     11  C   UNL     1       4.795   5.199  17.730  0.00  0.00    +0.000 A 
ATOM     12  C   UNL     1       4.526   4.594  16.494  0.00  0.00    +0.000 A 
ATOM     13  C   UNL     1       5.576   4.149  15.681  0.00  0.00    +0.000 A 
ATOM     14  C   UNL     1       6.900   4.298  16.099  0.00  0.00    +0.000 A 
ATOM     15  C   UNL     1       7.176   4.911  17.320  0.00  0.00    +0.000 A 
ATOM     16  C   UNL     1       6.130   5.362  18.129  0.00  0.00    +0.000 A 
ENDBRANCH   5  11
BRANCH  10  17
ATOM     17  C   UNL     1       0.340   8.797  20.337  0.00  0.00    +0.000 C 
BRANCH  17  18
ATOM     18  N   UNL     1       0.846   9.566  21.473  0.00  0.00    +0.000 NA
ATOM     19  C   UNL     1       1.073  10.988  21.178  0.00  0.00    +0.000 C 
ATOM     20  C   UNL     1      -0.176  11.881  21.290  0.00  0.00    +0.000 C 
ATOM     21  N   UNL     1      -0.718  11.821  22.654  0.00  0.00    +0.000 N 
ATOM     22  C   UNL     1      -0.988  10.456  23.150  0.00  0.00    +0.000 C 
ATOM     23  C   UNL     1       0.088   9.406  22.728  0.00  0.00    +0.000 C 
BRANCH  21  24
ATOM     24  C   UNL     1      -1.566  12.847  23.087  0.00  0.00    +0.000 A 
ATOM     25  C   UNL     1      -1.141  14.181  23.236  0.00  0.00    +0.000 A 
ATOM     26  C   UNL     1      -1.974  15.171  23.777  0.00  0.00    +0.000 A 
ATOM     27  C   UNL     1      -3.260  14.841  24.180  0.00  0.00    +0.000 A 
ATOM     28 CL   UNL     1      -4.268  16.042  24.897  0.00  0.00    +0.000 Cl
ATOM     29  C   UNL     1      -3.726  13.546  24.028  0.00  0.00    +0.000 A 
ATOM     30  C   UNL     1      -2.886  12.564  23.481  0.00  0.00    +0.000 A 
ENDBRANCH  21  24
ENDBRANCH  17  18
ENDBRANCH  10  17
TORSDOF 4
ENDMDL
MODEL 3
REMARK VINA RESULT:      -7.5      2.615      4.163
REMARK  Name = 
REMARK  5 active torsions:
REMARK  status: ('A' for Active; 'I' for Inactive)
REMARK    1  A    between atoms: C_1  and  C_2
REMARK    2  A    between atoms: C_5  and  C_6
REMARK    3  A    between atoms: C_16  and  C_17
REMARK    4  A    between atoms: C_17  and  N_18
REMARK    5  A    between atoms: N_21  and  C_22
REMARK                            x       y       z     vdW  Elec       q    Type
REMARK                         _______ _______ _______ _____ _____    ______ ____
ROOT
ATOM      1  C   UNL     1      -0.160   9.271  22.606  0.00  0.00    +0.000 C 
ATOM      2  C   UNL     1       0.608   8.877  21.399  0.00  0.00    +0.000 A 
ATOM      3  N   UNL     1       0.873   7.585  21.175  0.00  0.00    +0.000 NA
ATOM      4  N   UNL     1       1.585   7.546  20.012  0.00  0.00    +0.000 N 
ATOM      5  C   UNL     1       2.165   6.431  19.358  0.00  0.00    +0.000 A 
ATOM      6  C   UNL     1       2.841   6.625  18.205  0.00  0.00    +0.000 A 
ATOM      7  C   UNL     1       2.886   7.946  17.613  0.00  0.00    +0.000 A 
ATOM      8  C   UNL     1       2.328   9.006  18.218  0.00  0.00    +0.000 A 
ATOM      9  C   UNL     1       1.698   8.846  19.488  0.00  0.00    +0.000 A 
ATOM     10  C   UNL     1       1.129   9.732  20.384  0.00  0.00    +0.000 A 
ENDROOT
BRANCH   5  11
ATOM     11  C   UNL     1       2.032   5.032  19.806  0.00  0.00    +0.000 A 
ATOM     12  C   UNL     1       1.354   4.071  19.045  0.00  0.00    +0.000 A 
ATOM     13  C   UNL     1       1.064   2.814  19.588  0.00  0.00    +0.000 A 
ATOM     14  C   UNL     1       1.442   2.511  20.897  0.00  0.00    +0.000 A 
ATOM     15  C   UNL     1       2.129   3.455  21.657  0.00  0.00    +0.000 A 
ATOM     16  C   UNL     1       2.425   4.708  21.114  0.00  0.00    +0.000 A 
ENDBRANCH   5  11
BRANCH  10  17
ATOM     17  C   UNL     1       1.095  11.233  20.313  0.00  0.00    +0.000 C 
BRANCH  17  18
ATOM     18  N   UNL     1       0.100  11.668  19.332  0.00  0.00    +0.000 NA
ATOM     19  C   UNL     1      -1.200  10.996  19.462  0.00  0.00    +0.000 C 
ATOM     20  C   UNL     1      -2.146  11.612  20.509  0.00  0.00    +0.000 C 
ATOM     21  N   UNL     1      -2.433  13.012  20.167  0.00  0.00    +0.000 N 
ATOM     22  C   UNL     1      -1.237  13.855  19.962  0.00  0.00    +0.000 C 
ATOM     23  C   UNL     1      -0.073  13.128  19.217  0.00  0.00    +0.000 C 
BRANCH  21  24
ATOM     24  C   UNL     1      -3.568  13.621  20.717  0.00  0.00    +0.000 A 
ATOM     25  C   UNL     1      -3.560  14.930  21.234  0.00  0.00    +0.000 A 
ATOM     26  C   UNL     1      -4.676  15.481  21.881  0.00  0.00    +0.000 A 
ATOM     27  C   UNL     1      -5.831  14.724  22.022  0.00  0.00    +0.000 A 
ATOM     28 CL   UNL     1      -7.185  15.376  22.866  0.00  0.00    +0.000 Cl
ATOM     29  C   UNL     1      -5.888  13.440  21.506  0.00  0.00    +0.000 A 
ATOM     30  C   UNL     1      -4.767  12.900  20.856  0.00  0.00    +0.000 A 
ENDBRANCH  21  24
ENDBRANCH  17  18
ENDBRANCH  10  17
TORSDOF 4
ENDMDL
MODEL 4
REMARK VINA RESULT:      -7.5      2.041      4.102
REMARK  Name = 
REMARK  5 active torsions:
REMARK  status: ('A' for Active; 'I' for Inactive)
REMARK    1  A    between atoms: C_1  and  C_2
REMARK    2  A    between atoms: C_5  and  C_6
REMARK    3  A    between atoms: C_16  and  C_17
REMARK    4  A    between atoms: C_17  and  N_18
REMARK    5  A    between atoms: N_21  and  C_22
REMARK                            x       y       z     vdW  Elec       q    Type
REMARK                         _______ _______ _______ _____ _____    ______ ____
ROOT
ATOM      1  C   UNL     1       0.249   9.504  23.533  0.00  0.00    +0.000 C 
ATOM      2  C   UNL     1       0.661   9.375  22.113  0.00  0.00    +0.000 A 
ATOM      3  N   UNL     1       1.186   8.224  21.678  0.00  0.00    +0.000 NA
ATOM      4  N   UNL     1       1.463   8.416  20.356  0.00  0.00    +0.000 N 
ATOM      5  C   UNL     1       2.085   7.534  19.437  0.00  0.00    +0.000 A 
ATOM      6  C   UNL     1       2.267   7.938  18.161  0.00  0.00    +0.000 A 
ATOM      7  C   UNL     1       1.749   9.221  17.733  0.00  0.00    +0.000 A 
ATOM      8  C   UNL     1       1.147  10.058  18.593  0.00  0.00    +0.000 A 
ATOM      9  C   UNL     1       1.034   9.698  19.968  0.00  0.00    +0.000 A 
ATOM     10  C   UNL     1       0.565  10.361  21.088  0.00  0.00    +0.000 A 
ENDROOT
BRANCH   5  11
ATOM     11  C   UNL     1       2.498   6.153  19.748  0.00  0.00    +0.000 A 
ATOM     12  C   UNL     1       3.771   5.669  19.419  0.00  0.00    +0.000 A 
ATOM     13  C   UNL     1       4.061   4.304  19.534  0.00  0.00    +0.000 A 
ATOM     14  C   UNL     1       3.078   3.413  19.972  0.00  0.00    +0.000 A 
ATOM     15  C   UNL     1       1.814   3.888  20.314  0.00  0.00    +0.000 A 
ATOM     16  C   UNL     1       1.526   5.251  20.206  0.00  0.00    +0.000 A 
ENDBRANCH   5  11
BRANCH  10  17
ATOM     17  C   UNL     1       0.094  11.785  21.196  0.00  0.00    +0.000 C 
BRANCH  17  18
ATOM     18  N   UNL     1      -1.368  11.834  21.179  0.00  0.00    +0.000 NA
ATOM     19  C   UNL     1      -1.983  11.742  22.510  0.00  0.00    +0.000 C 
ATOM     20  C   UNL     1      -2.071  13.073  23.278  0.00  0.00    +0.000 C 
ATOM     21  N   UNL     1      -2.871  14.042  22.516  0.00  0.00    +0.000 N 
ATOM     22  C   UNL     1      -2.422  14.254  21.125  0.00  0.00    +0.000 C 
ATOM     23  C   UNL     1      -1.950  12.949  20.409  0.00  0.00    +0.000 C 
BRANCH  21  24
ATOM     24  C   UNL     1      -3.425  15.137  23.192  0.00  0.00    +0.000 A 
ATOM     25  C   UNL     1      -2.666  16.249  23.600  0.00  0.00    +0.000 A 
ATOM     26  C   UNL     1      -3.217  17.283  24.371  0.00  0.00    +0.000 A 
ATOM     27  C   UNL     1      -4.550  17.221  24.750  0.00  0.00    +0.000 A 
ATOM     28 CL   UNL     1      -5.217  18.460  25.745  0.00  0.00    +0.000 Cl
ATOM     29  C   UNL     1      -5.339  16.155  24.348  0.00  0.00    +0.000 A 
ATOM     30  C   UNL     1      -4.779  15.129  23.572  0.00  0.00    +0.000 A 
ENDBRANCH  21  24
ENDBRANCH  17  18
ENDBRANCH  10  17
TORSDOF 4
ENDMDL
MODEL 5
REMARK VINA RESULT:      -7.5      4.127      9.114
REMARK  Name = 
REMARK  5 active torsions:
REMARK  status: ('A' for Active; 'I' for Inactive)
REMARK    1  A    between atoms: C_1  and  C_2
REMARK    2  A    between atoms: C_5  and  C_6
REMARK    3  A    between atoms: C_16  and  C_17
REMARK    4  A    between atoms: C_17  and  N_18
REMARK    5  A    between atoms: N_21  and  C_22
REMARK                            x       y       z     vdW  Elec       q    Type
REMARK                         _______ _______ _______ _____ _____    ______ ____
ROOT
ATOM      1  C   UNL     1       1.447   2.886  21.294  0.00  0.00    +0.000 C 
ATOM      2  C   UNL     1       1.650   4.099  20.464  0.00  0.00    +0.000 A 
ATOM      3  N   UNL     1       1.389   5.306  20.979  0.00  0.00    +0.000 NA
ATOM      4  N   UNL     1       1.664   6.202  19.988  0.00  0.00    +0.000 N 
ATOM      5  C   UNL     1       1.501   7.610  19.988  0.00  0.00    +0.000 A 
ATOM      6  C   UNL     1       1.835   8.309  18.881  0.00  0.00    +0.000 A 
ATOM      7  C   UNL     1       2.432   7.625  17.753  0.00  0.00    +0.000 A 
ATOM      8  C   UNL     1       2.602   6.293  17.749  0.00  0.00    +0.000 A 
ATOM      9  C   UNL     1       2.163   5.520  18.864  0.00  0.00    +0.000 A 
ATOM     10  C   UNL     1       2.114   4.161  19.117  0.00  0.00    +0.000 A 
ENDROOT
BRANCH   5  11
ATOM     11  C   UNL     1       1.051   8.402  21.147  0.00  0.00    +0.000 A 
ATOM     12  C   UNL     1       1.932   8.795  22.164  0.00  0.00    +0.000 A 
ATOM     13  C   UNL     1       1.440   9.362  23.346  0.00  0.00    +0.000 A 
ATOM     14  C   UNL     1       0.065   9.532  23.524  0.00  0.00    +0.000 A 
ATOM     15  C   UNL     1      -0.817   9.157  22.513  0.00  0.00    +0.000 A 
ATOM     16  C   UNL     1      -0.327   8.598  21.329  0.00  0.00    +0.000 A 
ENDBRANCH   5  11
BRANCH  10  17
ATOM     17  C   UNL     1       2.446   3.030  18.185  0.00  0.00    +0.000 C 
BRANCH  17  18
ATOM     18  N   UNL     1       3.883   2.759  18.214  0.00  0.00    +0.000 NA
ATOM     19  C   UNL     1       4.598   3.197  17.007  0.00  0.00    +0.000 C 
ATOM     20  C   UNL     1       5.004   4.681  16.997  0.00  0.00    +0.000 C 
ATOM     21  N   UNL     1       5.892   4.968  18.132  0.00  0.00    +0.000 N 
ATOM     22  C   UNL     1       5.357   4.567  19.449  0.00  0.00    +0.000 C 
ATOM     23  C   UNL     1       4.584   3.211  19.430  0.00  0.00    +0.000 C 
BRANCH  21  24
ATOM     24  C   UNL     1       6.702   6.109  18.082  0.00  0.00    +0.000 A 
ATOM     25  C   UNL     1       7.814   6.296  18.924  0.00  0.00    +0.000 A 
ATOM     26  C   UNL     1       8.546   7.493  18.935  0.00  0.00    +0.000 A 
ATOM     27  C   UNL     1       8.174   8.532  18.095  0.00  0.00    +0.000 A 
ATOM     28 CL   UNL     1       9.035  10.025  18.146  0.00  0.00    +0.000 Cl
ATOM     29  C   UNL     1       7.100   8.380  17.233  0.00  0.00    +0.000 A 
ATOM     30  C   UNL     1       6.378   7.177  17.227  0.00  0.00    +0.000 A 
ENDBRANCH  21  24
ENDBRANCH  17  18
ENDBRANCH  10  17
TORSDOF 4
ENDMDL
MODEL 6
REMARK VINA RESULT:      -7.4      2.583      4.103
REMARK  Name = 
REMARK  5 active torsions:
REMARK  status: ('A' for Active; 'I' for Inactive)
REMARK    1  A    between atoms: C_1  and  C_2
REMARK    2  A    between atoms: C_5  and  C_6
REMARK    3  A    between atoms: C_16  and  C_17
REMARK    4  A    between atoms: C_17  and  N_18
REMARK    5  A    between atoms: N_21  and  C_22
REMARK                            x       y       z     vdW  Elec       q    Type
REMARK                         _______ _______ _______ _____ _____    ______ ____
ROOT
ATOM      1  C   UNL     1      -0.099   9.293  22.702  0.00  0.00    +0.000 C 
ATOM      2  C   UNL     1       0.630   8.909  21.468  0.00  0.00    +0.000 A 
ATOM      3  N   UNL     1       0.892   7.620  21.228  0.00  0.00    +0.000 NA
ATOM      4  N   UNL     1       1.565   7.590  20.041  0.00  0.00    +0.000 N 
ATOM      5  C   UNL     1       2.128   6.481  19.362  0.00  0.00    +0.000 A 
ATOM      6  C   UNL     1       2.764   6.685  18.188  0.00  0.00    +0.000 A 
ATOM      7  C   UNL     1       2.785   8.010  17.603  0.00  0.00    +0.000 A 
ATOM      8  C   UNL     1       2.244   9.064  18.233  0.00  0.00    +0.000 A 
ATOM      9  C   UNL     1       1.657   8.894  19.521  0.00  0.00    +0.000 A 
ATOM     10  C   UNL     1       1.114   9.772  20.442  0.00  0.00    +0.000 A 
ENDROOT
BRANCH   5  11
ATOM     11  C   UNL     1       2.015   5.080  19.806  0.00  0.00    +0.000 A 
ATOM     12  C   UNL     1       1.346   4.112  19.044  0.00  0.00    +0.000 A 
ATOM     13  C   UNL     1       1.075   2.849  19.584  0.00  0.00    +0.000 A 
ATOM     14  C   UNL     1       1.463   2.547  20.891  0.00  0.00    +0.000 A 
ATOM     15  C   UNL     1       2.140   3.498  21.651  0.00  0.00    +0.000 A 
ATOM     16  C   UNL     1       2.418   4.756  21.111  0.00  0.00    +0.000 A 
ENDBRANCH   5  11
BRANCH  10  17
ATOM     17  C   UNL     1       1.072  11.274  20.380  0.00  0.00    +0.000 C 
BRANCH  17  18
ATOM     18  N   UNL     1       0.041  11.710  19.438  0.00  0.00    +0.000 NA
ATOM     19  C   UNL     1      -1.305  11.212  19.752  0.00  0.00    +0.000 C 
ATOM     20  C   UNL     1      -2.078  12.044  20.791  0.00  0.00    +0.000 C 
ATOM     21  N   UNL     1      -2.247  13.421  20.308  0.00  0.00    +0.000 N 
ATOM     22  C   UNL     1      -0.993  14.093  19.909  0.00  0.00    +0.000 C 
ATOM     23  C   UNL     1       0.013  13.159  19.164  0.00  0.00    +0.000 C 
BRANCH  21  24
ATOM     24  C   UNL     1      -3.255  14.214  20.872  0.00  0.00    +0.000 A 
ATOM     25  C   UNL     1      -4.625  13.996  20.630  0.00  0.00    +0.000 A 
ATOM     26  C   UNL     1      -5.612  14.867  21.114  0.00  0.00    +0.000 A 
ATOM     27  C   UNL     1      -5.243  15.980  21.855  0.00  0.00    +0.000 A 
ATOM     28 CL   UNL     1      -6.448  17.084  22.403  0.00  0.00    +0.000 Cl
ATOM     29  C   UNL     1      -3.907  16.217  22.136  0.00  0.00    +0.000 A 
ATOM     30  C   UNL     1      -2.928  15.337  21.651  0.00  0.00    +0.000 A 
ENDBRANCH  21  24
ENDBRANCH  17  18
ENDBRANCH  10  17
TORSDOF 4
ENDMDL
MODEL 7
REMARK VINA RESULT:      -7.3      2.348      4.089
REMARK  Name = 
REMARK  5 active torsions:
REMARK  status: ('A' for Active; 'I' for Inactive)
REMARK    1  A    between atoms: C_1  and  C_2
REMARK    2  A    between atoms: C_5  and  C_6
REMARK    3  A    between atoms: C_16  and  C_17
REMARK    4  A    between atoms: C_17  and  N_18
REMARK    5  A    between atoms: N_21  and  C_22
REMARK                            x       y       z     vdW  Elec       q    Type
REMARK                         _______ _______ _______ _____ _____    ______ ____
ROOT
ATOM      1  C   UNL     1       0.131   9.600  23.277  0.00  0.00    +0.000 C 
ATOM      2  C   UNL     1       0.682   9.327  21.926  0.00  0.00    +0.000 A 
ATOM      3  N   UNL     1       1.052   8.083  21.602  0.00  0.00    +0.000 NA
ATOM      4  N   UNL     1       1.513   8.153  20.320  0.00  0.00    +0.000 N 
ATOM      5  C   UNL     1       2.081   7.132  19.519  0.00  0.00    +0.000 A 
ATOM      6  C   UNL     1       2.481   7.429  18.263  0.00  0.00    +0.000 A 
ATOM      7  C   UNL     1       2.244   8.754  17.729  0.00  0.00    +0.000 A 
ATOM      8  C   UNL     1       1.695   9.725  18.476  0.00  0.00    +0.000 A 
ATOM      9  C   UNL     1       1.359   9.465  19.837  0.00  0.00    +0.000 A 
ATOM     10  C   UNL     1       0.878  10.257  20.865  0.00  0.00    +0.000 A 
ENDROOT
BRANCH   5  11
ATOM     11  C   UNL     1       2.213   5.721  19.926  0.00  0.00    +0.000 A 
ATOM     12  C   UNL     1       3.370   4.977  19.658  0.00  0.00    +0.000 A 
ATOM     13  C   UNL     1       3.385   3.592  19.868  0.00  0.00    +0.000 A 
ATOM     14  C   UNL     1       2.243   2.941  20.339  0.00  0.00    +0.000 A 
ATOM     15  C   UNL     1       1.093   3.675  20.622  0.00  0.00    +0.000 A 
ATOM     16  C   UNL     1       1.079   5.058  20.419  0.00  0.00    +0.000 A 
ENDBRANCH   5  11
BRANCH  10  17
ATOM     17  C   UNL     1       0.648  11.742  20.862  0.00  0.00    +0.000 C 
BRANCH  17  18
ATOM     18  N   UNL     1      -0.448  12.081  19.954  0.00  0.00    +0.000 NA
ATOM     19  C   UNL     1      -1.736  11.474  20.319  0.00  0.00    +0.000 C 
ATOM     20  C   UNL     1      -2.540  12.250  21.378  0.00  0.00    +0.000 C 
ATOM     21  N   UNL     1      -2.841  13.603  20.891  0.00  0.00    +0.000 N 
ATOM     22  C   UNL     1      -1.663  14.373  20.442  0.00  0.00    +0.000 C 
ATOM     23  C   UNL     1      -0.608  13.519  19.670  0.00  0.00    +0.000 C 
BRANCH  21  24
ATOM     24  C   UNL     1      -3.892  14.314  21.483  0.00  0.00    +0.000 A 
ATOM     25  C   UNL     1      -4.979  14.826  20.750  0.00  0.00    +0.000 A 
ATOM     26  C   UNL     1      -5.964  15.630  21.344  0.00  0.00    +0.000 A 
ATOM     27  C   UNL     1      -5.877  15.936  22.694  0.00  0.00    +0.000 A 
ATOM     28 CL   UNL     1      -7.053  16.969  23.416  0.00  0.00    +0.000 Cl
ATOM     29  C   UNL     1      -4.837  15.432  23.457  0.00  0.00    +0.000 A 
ATOM     30  C   UNL     1      -3.860  14.625  22.854  0.00  0.00    +0.000 A 
ENDBRANCH  21  24
ENDBRANCH  17  18
ENDBRANCH  10  17
TORSDOF 4
ENDMDL
MODEL 8
REMARK VINA RESULT:      -7.2      3.156      4.683
REMARK  Name = 
REMARK  5 active torsions:
REMARK  status: ('A' for Active; 'I' for Inactive)
REMARK    1  A    between atoms: C_1  and  C_2
REMARK    2  A    between atoms: C_5  and  C_6
REMARK    3  A    between atoms: C_16  and  C_17
REMARK    4  A    between atoms: C_17  and  N_18
REMARK    5  A    between atoms: N_21  and  C_22
REMARK                            x       y       z     vdW  Elec       q    Type
REMARK                         _______ _______ _______ _____ _____    ______ ____
ROOT
ATOM      1  C   UNL     1      -0.066   9.016  22.112  0.00  0.00    +0.000 C 
ATOM      2  C   UNL     1       0.799   8.545  21.001  0.00  0.00    +0.000 A 
ATOM      3  N   UNL     1       1.035   7.236  20.856  0.00  0.00    +0.000 NA
ATOM      4  N   UNL     1       1.852   7.123  19.769  0.00  0.00    +0.000 N 
ATOM      5  C   UNL     1       2.450   5.962  19.220  0.00  0.00    +0.000 A 
ATOM      6  C   UNL     1       3.239   6.083  18.130  0.00  0.00    +0.000 A 
ATOM      7  C   UNL     1       3.389   7.375  17.493  0.00  0.00    +0.000 A 
ATOM      8  C   UNL     1       2.817   8.479  17.999  0.00  0.00    +0.000 A 
ATOM      9  C   UNL     1       2.063   8.394  19.207  0.00  0.00    +0.000 A 
ATOM     10  C   UNL     1       1.445   9.337  20.008  0.00  0.00    +0.000 A 
ENDROOT
BRANCH   5  11
ATOM     11  C   UNL     1       2.223   4.589  19.708  0.00  0.00    +0.000 A 
ATOM     12  C   UNL     1       1.506   3.645  18.960  0.00  0.00    +0.000 A 
ATOM     13  C   UNL     1       1.128   2.426  19.535  0.00  0.00    +0.000 A 
ATOM     14  C   UNL     1       1.457   2.144  20.863  0.00  0.00    +0.000 A 
ATOM     15  C   UNL     1       2.181   3.071  21.610  0.00  0.00    +0.000 A 
ATOM     16  C   UNL     1       2.564   4.286  21.035  0.00  0.00    +0.000 A 
ENDBRANCH   5  11
BRANCH  10  17
ATOM     17  C   UNL     1       1.474  10.834  19.874  0.00  0.00    +0.000 C 
BRANCH  17  18
ATOM     18  N   UNL     1       0.822  11.240  18.629  0.00  0.00    +0.000 NA
ATOM     19  C   UNL     1      -0.185  10.286  18.143  0.00  0.00    +0.000 C 
ATOM     20  C   UNL     1      -1.579  10.436  18.777  0.00  0.00    +0.000 C 
ATOM     21  N   UNL     1      -2.114  11.778  18.507  0.00  0.00    +0.000 N 
ATOM     22  C   UNL     1      -1.223  12.888  18.903  0.00  0.00    +0.000 C 
ATOM     23  C   UNL     1       0.288  12.615  18.619  0.00  0.00    +0.000 C 
BRANCH  21  24
ATOM     24  C   UNL     1      -3.495  11.987  18.613  0.00  0.00    +0.000 A 
ATOM     25  C   UNL     1      -4.407  11.600  17.613  0.00  0.00    +0.000 A 
ATOM     26  C   UNL     1      -5.771  11.917  17.687  0.00  0.00    +0.000 A 
ATOM     27  C   UNL     1      -6.251  12.633  18.775  0.00  0.00    +0.000 A 
ATOM     28 CL   UNL     1      -7.915  13.074  18.844  0.00  0.00    +0.000 Cl
ATOM     29  C   UNL     1      -5.391  13.011  19.793  0.00  0.00    +0.000 A 
ATOM     30  C   UNL     1      -4.029  12.684  19.711  0.00  0.00    +0.000 A 
ENDBRANCH  21  24
ENDBRANCH  17  18
ENDBRANCH  10  17
TORSDOF 4
ENDMDL
MODEL 9
REMARK VINA RESULT:      -7.2      2.136      3.936
REMARK  Name = 
REMARK  5 active torsions:
REMARK  status: ('A' for Active; 'I' for Inactive)
REMARK    1  A    between atoms: C_1  and  C_2
REMARK    2  A    between atoms: C_5  and  C_6
REMARK    3  A    between atoms: C_16  and  C_17
REMARK    4  A    between atoms: C_17  and  N_18
REMARK    5  A    between atoms: N_21  and  C_22
REMARK                            x       y       z     vdW  Elec       q    Type
REMARK                         _______ _______ _______ _____ _____    ______ ____
ROOT
ATOM      1  C   UNL     1       0.235   9.464  23.251  0.00  0.00    +0.000 C 
ATOM      2  C   UNL     1       0.754   9.241  21.879  0.00  0.00    +0.000 A 
ATOM      3  N   UNL     1       1.101   8.008  21.495  0.00  0.00    +0.000 NA
ATOM      4  N   UNL     1       1.537   8.127  20.207  0.00  0.00    +0.000 N 
ATOM      5  C   UNL     1       2.075   7.133  19.352  0.00  0.00    +0.000 A 
ATOM      6  C   UNL     1       2.453   7.479  18.102  0.00  0.00    +0.000 A 
ATOM      7  C   UNL     1       2.221   8.828  17.628  0.00  0.00    +0.000 A 
ATOM      8  C   UNL     1       1.699   9.772  18.427  0.00  0.00    +0.000 A 
ATOM      9  C   UNL     1       1.389   9.459  19.783  0.00  0.00    +0.000 A 
ATOM     10  C   UNL     1       0.939  10.213  20.853  0.00  0.00    +0.000 A 
ENDROOT
BRANCH   5  11
ATOM     11  C   UNL     1       2.198   5.705  19.698  0.00  0.00    +0.000 A 
ATOM     12  C   UNL     1       1.250   5.052  20.496  0.00  0.00    +0.000 A 
ATOM     13  C   UNL     1       1.500   3.761  20.978  0.00  0.00    +0.000 A 
ATOM     14  C   UNL     1       2.702   3.118  20.672  0.00  0.00    +0.000 A 
ATOM     15  C   UNL     1       3.644   3.755  19.867  0.00  0.00    +0.000 A 
ATOM     16  C   UNL     1       3.393   5.040  19.380  0.00  0.00    +0.000 A 
ENDBRANCH   5  11
BRANCH  10  17
ATOM     17  C   UNL     1       0.727  11.700  20.918  0.00  0.00    +0.000 C 
BRANCH  17  18
ATOM     18  N   UNL     1      -0.610  12.039  20.429  0.00  0.00    +0.000 NA
ATOM     19  C   UNL     1      -1.699  11.577  21.300  0.00  0.00    +0.000 C 
ATOM     20  C   UNL     1      -2.028  12.512  22.478  0.00  0.00    +0.000 C 
ATOM     21  N   UNL     1      -2.430  13.833  21.975  0.00  0.00    +0.000 N 
ATOM     22  C   UNL     1      -1.465  14.458  21.047  0.00  0.00    +0.000 C 
ATOM     23  C   UNL     1      -0.801  13.453  20.055  0.00  0.00    +0.000 C 
BRANCH  21  24
ATOM     24  C   UNL     1      -3.161  14.680  22.817  0.00  0.00    +0.000 A 
ATOM     25  C   UNL     1      -4.416  15.212  22.465  0.00  0.00    +0.000 A 
ATOM     26  C   UNL     1      -5.081  16.145  23.274  0.00  0.00    +0.000 A 
ATOM     27  C   UNL     1      -4.497  16.566  24.460  0.00  0.00    +0.000 A 
ATOM     28 CL   UNL     1      -5.283  17.755  25.428  0.00  0.00    +0.000 Cl
ATOM     29  C   UNL     1      -3.274  16.049  24.854  0.00  0.00    +0.000 A 
ATOM     30  C   UNL     1      -2.619  15.112  24.040  0.00  0.00    +0.000 A 
ENDBRANCH  21  24
ENDBRANCH  17  18
ENDBRANCH  10  17
TORSDOF 4
ENDMDL
