MODEL 1
REMARK VINA RESULT:      -8.5      0.000      0.000
REMARK  Name = 
REMARK  2 active torsions:
REMARK  status: ('A' for Active; 'I' for Inactive)
REMARK    1  A    between atoms: C_2  and  O_3
REMARK    2  A    between atoms: C_2  and  C_4
REMARK                            x       y       z     vdW  Elec       q    Type
REMARK                         _______ _______ _______ _____ _____    ______ ____
ROOT
ATOM      1  C   UNL     1       5.825   4.882  15.345  0.00  0.00    +0.000 A 
ATOM      2  C   UNL     1       5.578   6.203  15.748  0.00  0.00    +0.000 A 
ATOM      3  C   UNL     1       4.710   6.466  16.815  0.00  0.00    +0.000 A 
ATOM      4  C   UNL     1       4.093   5.410  17.488  0.00  0.00    +0.000 A 
ATOM      5  O   UNL     1       3.257   5.738  18.527  0.00  0.00    +0.000 OA
ATOM      6  C   UNL     1       2.645   4.722  19.227  0.00  0.00    +0.000 A 
ATOM      7  C   UNL     1       1.799   5.063  20.288  0.00  0.00    +0.000 A 
ATOM      8 CL   UNL     1       1.523   6.712  20.722  0.00  0.00    +0.000 Cl
ATOM      9  C   UNL     1       1.151   4.067  21.028  0.00  0.00    +0.000 A 
ATOM     10  C   UNL     1       1.342   2.721  20.716  0.00  0.00    +0.000 A 
ATOM     11  C   UNL     1       2.182   2.370  19.662  0.00  0.00    +0.000 A 
ATOM     12  C   UNL     1       2.825   3.371  18.926  0.00  0.00    +0.000 A 
ATOM     13  C   UNL     1       3.701   3.007  17.807  0.00  0.00    +0.000 A 
ATOM     14  O   UNL     1       3.876   1.844  17.475  0.00  0.00    +0.000 OA
ATOM     15  C   UNL     1       4.355   4.103  17.089  0.00  0.00    +0.000 A 
ATOM     16  C   UNL     1       5.223   3.825  16.030  0.00  0.00    +0.000 A 
ENDROOT
BRANCH   1  18
ATOM     17  O   UNL     1       7.702   5.392  13.984  0.00  0.00    +0.000 OA
ATOM     18  C   UNL     1       6.770   4.647  14.226  0.00  0.00    +0.000 C 
BRANCH  18  19
ATOM     19  O   UNL     1       6.479   3.558  13.484  0.00  0.00    +0.000 OA
ATOM     20  H   UNL     1       5.598   3.165  13.624  0.00  0.00    +0.000 HD
ENDBRANCH  18  19
ENDBRANCH   1  18
TORSDOF 2
ENDMDL
MODEL 2
REMARK VINA RESULT:      -7.6      2.969      5.248
REMARK  Name = 
REMARK  2 active torsions:
REMARK  status: ('A' for Active; 'I' for Inactive)
REMARK    1  A    between atoms: C_2  and  O_3
REMARK    2  A    between atoms: C_2  and  C_4
REMARK                            x       y       z     vdW  Elec       q    Type
REMARK                         _______ _______ _______ _____ _____    ______ ____
ROOT
ATOM      1  C   UNL     1       3.475   3.164  19.667  0.00  0.00    +0.000 A 
ATOM      2  C   UNL     1       2.735   3.264  20.855  0.00  0.00    +0.000 A 
ATOM      3  C   UNL     1       2.101   4.466  21.193  0.00  0.00    +0.000 A 
ATOM      4  C   UNL     1       2.197   5.568  20.341  0.00  0.00    +0.000 A 
ATOM      5  O   UNL     1       1.548   6.714  20.732  0.00  0.00    +0.000 OA
ATOM      6  C   UNL     1       1.603   7.817  19.908  0.00  0.00    +0.000 A 
ATOM      7  C   UNL     1       0.936   8.979  20.309  0.00  0.00    +0.000 A 
ATOM      8 CL   UNL     1       0.057   9.043  21.794  0.00  0.00    +0.000 Cl
ATOM      9  C   UNL     1       0.965  10.128  19.508  0.00  0.00    +0.000 A 
ATOM     10  C   UNL     1       1.662  10.125  18.300  0.00  0.00    +0.000 A 
ATOM     11  C   UNL     1       2.330   8.974  17.890  0.00  0.00    +0.000 A 
ATOM     12  C   UNL     1       2.298   7.831  18.697  0.00  0.00    +0.000 A 
ATOM     13  C   UNL     1       3.010   6.620  18.276  0.00  0.00    +0.000 A 
ATOM     14  O   UNL     1       3.660   6.578  17.243  0.00  0.00    +0.000 OA
ATOM     15  C   UNL     1       2.921   5.455  19.160  0.00  0.00    +0.000 A 
ATOM     16  C   UNL     1       3.555   4.260  18.807  0.00  0.00    +0.000 A 
ENDROOT
BRANCH   1  18
ATOM     17  O   UNL     1       3.671   1.117  18.483  0.00  0.00    +0.000 OA
ATOM     18  C   UNL     1       4.110   1.865  19.336  0.00  0.00    +0.000 C 
BRANCH  18  19
ATOM     19  O   UNL     1       5.192   1.577  20.091  0.00  0.00    +0.000 OA
ATOM     20  H   UNL     1       5.971   1.237  19.614  0.00  0.00    +0.000 HD
ENDBRANCH  18  19
ENDBRANCH   1  18
TORSDOF 2
ENDMDL
MODEL 3
REMARK VINA RESULT:      -7.2      2.901      6.416
REMARK  Name = 
REMARK  2 active torsions:
REMARK  status: ('A' for Active; 'I' for Inactive)
REMARK    1  A    between atoms: C_2  and  O_3
REMARK    2  A    between atoms: C_2  and  C_4
REMARK                            x       y       z     vdW  Elec       q    Type
REMARK                         _______ _______ _______ _____ _____    ______ ____
ROOT
ATOM      1  C   UNL     1       2.476   3.078  19.909  0.00  0.00    +0.000 A 
ATOM      2  C   UNL     1       1.763   2.668  18.773  0.00  0.00    +0.000 A 
ATOM      3  C   UNL     1       2.306   2.847  17.494  0.00  0.00    +0.000 A 
ATOM      4  C   UNL     1       3.567   3.428  17.348  0.00  0.00    +0.000 A 
ATOM      5  O   UNL     1       4.042   3.570  16.067  0.00  0.00    +0.000 OA
ATOM      6  C   UNL     1       5.290   4.121  15.883  0.00  0.00    +0.000 A 
ATOM      7  C   UNL     1       5.770   4.258  14.576  0.00  0.00    +0.000 A 
ATOM      8 CL   UNL     1       4.833   3.750  13.218  0.00  0.00    +0.000 Cl
ATOM      9  C   UNL     1       7.032   4.816  14.337  0.00  0.00    +0.000 A 
ATOM     10  C   UNL     1       7.826   5.242  15.402  0.00  0.00    +0.000 A 
ATOM     11  C   UNL     1       7.359   5.111  16.707  0.00  0.00    +0.000 A 
ATOM     12  C   UNL     1       6.097   4.554  16.938  0.00  0.00    +0.000 A 
ATOM     13  C   UNL     1       5.595   4.424  18.310  0.00  0.00    +0.000 A 
ATOM     14  O   UNL     1       6.240   4.811  19.273  0.00  0.00    +0.000 OA
ATOM     15  C   UNL     1       4.273   3.819  18.481  0.00  0.00    +0.000 A 
ATOM     16  C   UNL     1       3.745   3.641  19.763  0.00  0.00    +0.000 A 
ENDROOT
BRANCH   1  18
ATOM     17  O   UNL     1       2.544   2.696  22.250  0.00  0.00    +0.000 OA
ATOM     18  C   UNL     1       1.875   2.848  21.245  0.00  0.00    +0.000 C 
BRANCH  18  19
ATOM     19  O   UNL     1       0.526   2.784  21.233  0.00  0.00    +0.000 OA
ATOM     20  H   UNL     1       0.110   2.618  20.368  0.00  0.00    +0.000 HD
ENDBRANCH  18  19
ENDBRANCH   1  18
TORSDOF 2
ENDMDL
MODEL 4
REMARK VINA RESULT:      -7.1      3.622      5.451
REMARK  Name = 
REMARK  2 active torsions:
REMARK  status: ('A' for Active; 'I' for Inactive)
REMARK    1  A    between atoms: C_2  and  O_3
REMARK    2  A    between atoms: C_2  and  C_4
REMARK                            x       y       z     vdW  Elec       q    Type
REMARK                         _______ _______ _______ _____ _____    ______ ____
ROOT
ATOM      1  C   UNL     1       3.409   4.935  18.502  0.00  0.00    +0.000 A 
ATOM      2  C   UNL     1       2.998   4.567  19.792  0.00  0.00    +0.000 A 
ATOM      3  C   UNL     1       2.303   5.477  20.599  0.00  0.00    +0.000 A 
ATOM      4  C   UNL     1       2.009   6.754  20.116  0.00  0.00    +0.000 A 
ATOM      5  O   UNL     1       1.322   7.594  20.958  0.00  0.00    +0.000 OA
ATOM      6  C   UNL     1       0.997   8.855  20.510  0.00  0.00    +0.000 A 
ATOM      7  C   UNL     1       0.292   9.704  21.370  0.00  0.00    +0.000 A 
ATOM      8 CL   UNL     1      -0.168   9.195  22.955  0.00  0.00    +0.000 Cl
ATOM      9  C   UNL     1      -0.059  10.997  20.963  0.00  0.00    +0.000 A 
ATOM     10  C   UNL     1       0.291  11.453  19.692  0.00  0.00    +0.000 A 
ATOM     11  C   UNL     1       0.993  10.617  18.827  0.00  0.00    +0.000 A 
ATOM     12  C   UNL     1       1.341   9.327  19.242  0.00  0.00    +0.000 A 
ATOM     13  C   UNL     1       2.090   8.447  18.339  0.00  0.00    +0.000 A 
ATOM     14  O   UNL     1       2.447   8.812  17.229  0.00  0.00    +0.000 OA
ATOM     15  C   UNL     1       2.409   7.105  18.832  0.00  0.00    +0.000 A 
ATOM     16  C   UNL     1       3.098   6.205  18.012  0.00  0.00    +0.000 A 
ENDROOT
BRANCH   1  18
ATOM     17  O   UNL     1       4.445   4.146  16.519  0.00  0.00    +0.000 OA
ATOM     18  C   UNL     1       4.121   3.934  17.672  0.00  0.00    +0.000 C 
BRANCH  18  19
ATOM     19  O   UNL     1       4.338   2.758  18.300  0.00  0.00    +0.000 OA
ATOM     20  H   UNL     1       4.682   2.814  19.211  0.00  0.00    +0.000 HD
ENDBRANCH  18  19
ENDBRANCH   1  18
TORSDOF 2
ENDMDL
MODEL 5
REMARK VINA RESULT:      -7.1      1.566      2.998
REMARK  Name = 
REMARK  2 active torsions:
REMARK  status: ('A' for Active; 'I' for Inactive)
REMARK    1  A    between atoms: C_2  and  O_3
REMARK    2  A    between atoms: C_2  and  C_4
REMARK                            x       y       z     vdW  Elec       q    Type
REMARK                         _______ _______ _______ _____ _____    ______ ____
ROOT
ATOM      1  C   UNL     1       5.815   4.658  15.423  0.00  0.00    +0.000 A 
ATOM      2  C   UNL     1       5.553   3.410  16.008  0.00  0.00    +0.000 A 
ATOM      3  C   UNL     1       4.717   3.316  17.128  0.00  0.00    +0.000 A 
ATOM      4  C   UNL     1       4.135   4.467  17.661  0.00  0.00    +0.000 A 
ATOM      5  O   UNL     1       3.323   4.304  18.757  0.00  0.00    +0.000 OA
ATOM      6  C   UNL     1       2.716   5.414  19.300  0.00  0.00    +0.000 A 
ATOM      7  C   UNL     1       1.886   5.239  20.413  0.00  0.00    +0.000 A 
ATOM      8 CL   UNL     1       1.618   3.676  21.096  0.00  0.00    +0.000 Cl
ATOM      9  C   UNL     1       1.248   6.337  21.003  0.00  0.00    +0.000 A 
ATOM     10  C   UNL     1       1.434   7.620  20.487  0.00  0.00    +0.000 A 
ATOM     11  C   UNL     1       2.257   7.806  19.379  0.00  0.00    +0.000 A 
ATOM     12  C   UNL     1       2.892   6.704  18.796  0.00  0.00    +0.000 A 
ATOM     13  C   UNL     1       3.770   6.896  17.637  0.00  0.00    +0.000 A 
ATOM     14  O   UNL     1       3.989   8.003  17.168  0.00  0.00    +0.000 OA
ATOM     15  C   UNL     1       4.391   5.698  17.067  0.00  0.00    +0.000 A 
ATOM     16  C   UNL     1       5.218   5.806  15.945  0.00  0.00    +0.000 A 
ENDROOT
BRANCH   1  18
ATOM     17  O   UNL     1       6.469   4.049  13.225  0.00  0.00    +0.000 OA
ATOM     18  C   UNL     1       6.686   4.709  14.223  0.00  0.00    +0.000 C 
BRANCH  18  19
ATOM     19  O   UNL     1       7.755   5.523  14.358  0.00  0.00    +0.000 OA
ATOM     20  H   UNL     1       8.032   6.006  13.558  0.00  0.00    +0.000 HD
ENDBRANCH  18  19
ENDBRANCH   1  18
TORSDOF 2
ENDMDL
MODEL 6
REMARK VINA RESULT:      -6.8      3.289      5.514
REMARK  Name = 
REMARK  2 active torsions:
REMARK  status: ('A' for Active; 'I' for Inactive)
REMARK    1  A    between atoms: C_2  and  O_3
REMARK    2  A    between atoms: C_2  and  C_4
REMARK                            x       y       z     vdW  Elec       q    Type
REMARK                         _______ _______ _______ _____ _____    ______ ____
ROOT
ATOM      1  C   UNL     1       1.637   9.434  19.033  0.00  0.00    +0.000 A 
ATOM      2  C   UNL     1       1.063   9.071  20.261  0.00  0.00    +0.000 A 
ATOM      3  C   UNL     1       1.210   7.768  20.752  0.00  0.00    +0.000 A 
ATOM      4  C   UNL     1       1.938   6.825  20.023  0.00  0.00    +0.000 A 
ATOM      5  O   UNL     1       2.045   5.568  20.564  0.00  0.00    +0.000 OA
ATOM      6  C   UNL     1       2.772   4.617  19.883  0.00  0.00    +0.000 A 
ATOM      7  C   UNL     1       2.883   3.339  20.442  0.00  0.00    +0.000 A 
ATOM      8 CL   UNL     1       2.135   2.952  21.950  0.00  0.00    +0.000 Cl
ATOM      9  C   UNL     1       3.608   2.336  19.787  0.00  0.00    +0.000 A 
ATOM     10  C   UNL     1       4.229   2.601  18.566  0.00  0.00    +0.000 A 
ATOM     11  C   UNL     1       4.126   3.869  18.000  0.00  0.00    +0.000 A 
ATOM     12  C   UNL     1       3.398   4.865  18.660  0.00  0.00    +0.000 A 
ATOM     13  C   UNL     1       3.277   6.199  18.062  0.00  0.00    +0.000 A 
ATOM     14  O   UNL     1       3.776   6.470  16.980  0.00  0.00    +0.000 OA
ATOM     15  C   UNL     1       2.514   7.198  18.814  0.00  0.00    +0.000 A 
ATOM     16  C   UNL     1       2.381   8.497  18.313  0.00  0.00    +0.000 A 
ENDROOT
BRANCH   1  18
ATOM     17  O   UNL     1       0.732  11.626  19.101  0.00  0.00    +0.000 OA
ATOM     18  C   UNL     1       1.479  10.831  18.562  0.00  0.00    +0.000 C 
BRANCH  18  19
ATOM     19  O   UNL     1       2.207  11.123  17.463  0.00  0.00    +0.000 OA
ATOM     20  H   UNL     1       3.042  10.632  17.357  0.00  0.00    +0.000 HD
ENDBRANCH  18  19
ENDBRANCH   1  18
TORSDOF 2
ENDMDL
MODEL 7
REMARK VINA RESULT:      -6.7      3.650      6.692
REMARK  Name = 
REMARK  2 active torsions:
REMARK  status: ('A' for Active; 'I' for Inactive)
REMARK    1  A    between atoms: C_2  and  O_3
REMARK    2  A    between atoms: C_2  and  C_4
REMARK                            x       y       z     vdW  Elec       q    Type
REMARK                         _______ _______ _______ _____ _____    ______ ____
ROOT
ATOM      1  C   UNL     1       0.613   8.880  20.865  0.00  0.00    +0.000 A 
ATOM      2  C   UNL     1       0.959   9.656  19.748  0.00  0.00    +0.000 A 
ATOM      3  C   UNL     1       1.817   9.141  18.768  0.00  0.00    +0.000 A 
ATOM      4  C   UNL     1       2.325   7.847  18.896  0.00  0.00    +0.000 A 
ATOM      5  O   UNL     1       3.157   7.404  17.898  0.00  0.00    +0.000 OA
ATOM      6  C   UNL     1       3.663   6.125  17.980  0.00  0.00    +0.000 A 
ATOM      7  C   UNL     1       4.506   5.678  16.957  0.00  0.00    +0.000 A 
ATOM      8 CL   UNL     1       4.907   6.691  15.617  0.00  0.00    +0.000 Cl
ATOM      9  C   UNL     1       5.048   4.387  16.996  0.00  0.00    +0.000 A 
ATOM     10  C   UNL     1       4.753   3.533  18.058  0.00  0.00    +0.000 A 
ATOM     11  C   UNL     1       3.915   3.967  19.082  0.00  0.00    +0.000 A 
ATOM     12  C   UNL     1       3.379   5.258  19.037  0.00  0.00    +0.000 A 
ATOM     13  C   UNL     1       2.506   5.725  20.119  0.00  0.00    +0.000 A 
ATOM     14  O   UNL     1       2.243   5.025  21.085  0.00  0.00    +0.000 OA
ATOM     15  C   UNL     1       1.966   7.081  20.000  0.00  0.00    +0.000 A 
ATOM     16  C   UNL     1       1.106   7.580  20.983  0.00  0.00    +0.000 A 
ENDROOT
BRANCH   1  18
ATOM     17  O   UNL     1      -0.560  10.645  21.932  0.00  0.00    +0.000 OA
ATOM     18  C   UNL     1      -0.317   9.455  21.866  0.00  0.00    +0.000 C 
BRANCH  18  19
ATOM     19  O   UNL     1      -0.836   8.543  22.716  0.00  0.00    +0.000 OA
ATOM     20  H   UNL     1      -1.634   8.074  22.410  0.00  0.00    +0.000 HD
ENDBRANCH  18  19
ENDBRANCH   1  18
TORSDOF 2
ENDMDL
MODEL 8
REMARK VINA RESULT:      -6.6      5.502      8.827
REMARK  Name = 
REMARK  2 active torsions:
REMARK  status: ('A' for Active; 'I' for Inactive)
REMARK    1  A    between atoms: C_2  and  O_3
REMARK    2  A    between atoms: C_2  and  C_4
REMARK                            x       y       z     vdW  Elec       q    Type
REMARK                         _______ _______ _______ _____ _____    ______ ____
ROOT
ATOM      1  C   UNL     1      -0.801  11.194  22.228  0.00  0.00    +0.000 A 
ATOM      2  C   UNL     1      -0.734  10.089  23.090  0.00  0.00    +0.000 A 
ATOM      3  C   UNL     1      -0.053   8.929  22.700  0.00  0.00    +0.000 A 
ATOM      4  C   UNL     1       0.570   8.872  21.452  0.00  0.00    +0.000 A 
ATOM      5  O   UNL     1       1.223   7.706  21.135  0.00  0.00    +0.000 OA
ATOM      6  C   UNL     1       1.866   7.620  19.920  0.00  0.00    +0.000 A 
ATOM      7  C   UNL     1       2.534   6.431  19.605  0.00  0.00    +0.000 A 
ATOM      8 CL   UNL     1       2.563   5.100  20.705  0.00  0.00    +0.000 Cl
ATOM      9  C   UNL     1       3.200   6.292  18.381  0.00  0.00    +0.000 A 
ATOM     10  C   UNL     1       3.204   7.341  17.461  0.00  0.00    +0.000 A 
ATOM     11  C   UNL     1       2.543   8.528  17.763  0.00  0.00    +0.000 A 
ATOM     12  C   UNL     1       1.878   8.658  18.987  0.00  0.00    +0.000 A 
ATOM     13  C   UNL     1       1.170   9.903  19.305  0.00  0.00    +0.000 A 
ATOM     14  O   UNL     1       1.119  10.837  18.519  0.00  0.00    +0.000 OA
ATOM     15  C   UNL     1       0.509   9.977  20.610  0.00  0.00    +0.000 A 
ATOM     16  C   UNL     1      -0.162  11.144  20.988  0.00  0.00    +0.000 A 
ENDROOT
BRANCH   1  18
ATOM     17  O   UNL     1      -1.027  13.191  23.489  0.00  0.00    +0.000 OA
ATOM     18  C   UNL     1      -1.511  12.412  22.690  0.00  0.00    +0.000 C 
BRANCH  18  19
ATOM     19  O   UNL     1      -2.750  12.551  22.173  0.00  0.00    +0.000 OA
ATOM     20  H   UNL     1      -3.003  11.910  21.483  0.00  0.00    +0.000 HD
ENDBRANCH  18  19
ENDBRANCH   1  18
TORSDOF 2
ENDMDL
MODEL 9
REMARK VINA RESULT:      -6.6      3.879      6.579
REMARK  Name = 
REMARK  2 active torsions:
REMARK  status: ('A' for Active; 'I' for Inactive)
REMARK    1  A    between atoms: C_2  and  O_3
REMARK    2  A    between atoms: C_2  and  C_4
REMARK                            x       y       z     vdW  Elec       q    Type
REMARK                         _______ _______ _______ _____ _____    ______ ____
ROOT
ATOM      1  C   UNL     1       0.745   9.661  19.817  0.00  0.00    +0.000 A 
ATOM      2  C   UNL     1       1.232  10.177  18.607  0.00  0.00    +0.000 A 
ATOM      3  C   UNL     1       2.113   9.423  17.821  0.00  0.00    +0.000 A 
ATOM      4  C   UNL     1       2.501   8.148  18.237  0.00  0.00    +0.000 A 
ATOM      5  O   UNL     1       3.363   7.463  17.417  0.00  0.00    +0.000 OA
ATOM      6  C   UNL     1       3.755   6.194  17.784  0.00  0.00    +0.000 A 
ATOM      7  C   UNL     1       4.628   5.499  16.941  0.00  0.00    +0.000 A 
ATOM      8 CL   UNL     1       5.207   6.199  15.473  0.00  0.00    +0.000 Cl
ATOM      9  C   UNL     1       5.058   4.208  17.272  0.00  0.00    +0.000 A 
ATOM     10  C   UNL     1       4.618   3.600  18.448  0.00  0.00    +0.000 A 
ATOM     11  C   UNL     1       3.748   4.282  19.295  0.00  0.00    +0.000 A 
ATOM     12  C   UNL     1       3.325   5.572  18.958  0.00  0.00    +0.000 A 
ATOM     13  C   UNL     1       2.418   6.300  19.852  0.00  0.00    +0.000 A 
ATOM     14  O   UNL     1       2.030   5.823  20.908  0.00  0.00    +0.000 OA
ATOM     15  C   UNL     1       2.002   7.640  19.431  0.00  0.00    +0.000 A 
ATOM     16  C   UNL     1       1.118   8.379  20.224  0.00  0.00    +0.000 A 
ENDROOT
BRANCH   1  18
ATOM     17  O   UNL     1      -0.768  11.458  20.149  0.00  0.00    +0.000 OA
ATOM     18  C   UNL     1      -0.205  10.482  20.607  0.00  0.00    +0.000 C 
BRANCH  18  19
ATOM     19  O   UNL     1      -0.354  10.069  21.884  0.00  0.00    +0.000 OA
ATOM     20  H   UNL     1      -0.059  10.691  22.575  0.00  0.00    +0.000 HD
ENDBRANCH  18  19
ENDBRANCH   1  18
TORSDOF 2
ENDMDL
