MODEL 1
REMARK VINA RESULT:      -7.7      0.000      0.000
REMARK  Name = 
REMARK  2 active torsions:
REMARK  status: ('A' for Active; 'I' for Inactive)
REMARK    1  A    between atoms: N_1  and  C_2
REMARK    2  A    between atoms: C_7  and  C_8
REMARK                            x       y       z     vdW  Elec       q    Type
REMARK                         _______ _______ _______ _____ _____    ______ ____
ROOT
ATOM      1  C   UNL     1       1.817   2.897  20.908  0.00  0.00    +0.000 A 
ATOM      2  C   UNL     1       0.878   2.829  19.865  0.00  0.00    +0.000 A 
ATOM      3  C   UNL     1       1.211   3.139  18.539  0.00  0.00    +0.000 A 
ATOM      4  C   UNL     1       2.541   3.464  18.319  0.00  0.00    +0.000 A 
ATOM      5  O   UNL     1       3.132   3.778  17.131  0.00  0.00    +0.000 OA
ATOM      6  C   UNL     1       4.451   3.973  17.459  0.00  0.00    +0.000 A 
ATOM      7  N   UNL     1       4.727   3.824  18.742  0.00  0.00    +0.000 NA
ATOM      8  C   UNL     1       3.517   3.495  19.299  0.00  0.00    +0.000 A 
ATOM      9  C   UNL     1       3.162   3.188  20.619  0.00  0.00    +0.000 A 
ENDROOT
BRANCH   6  10
ATOM     10  C   UNL     1       5.358   4.287  16.358  0.00  0.00    +0.000 A 
ATOM     11  C   UNL     1       6.484   5.102  16.536  0.00  0.00    +0.000 A 
ATOM     12  C   UNL     1       7.326   5.405  15.461  0.00  0.00    +0.000 A 
ATOM     13  C   UNL     1       7.051   4.897  14.189  0.00  0.00    +0.000 A 
ATOM     14 CL   UNL     1       8.124   5.319  12.904  0.00  0.00    +0.000 Cl
ATOM     15  C   UNL     1       5.931   4.080  13.997  0.00  0.00    +0.000 A 
ATOM     16 CL   UNL     1       5.523   3.419  12.453  0.00  0.00    +0.000 Cl
ATOM     17  C   UNL     1       5.094   3.776  15.077  0.00  0.00    +0.000 A 
ENDBRANCH   6  10
BRANCH   1  18
ATOM     18  N   UNL     1       1.464   2.451  22.189  0.00  0.00    +0.000 N 
ATOM     19  H   UNL     1       2.174   1.886  22.645  0.00  0.00    +0.000 HD
ATOM     20  H   UNL     1       0.543   2.025  22.240  0.00  0.00    +0.000 HD
ENDBRANCH   1  18
TORSDOF 2
ENDMDL
MODEL 2
REMARK VINA RESULT:      -7.4      1.016      1.110
REMARK  Name = 
REMARK  2 active torsions:
REMARK  status: ('A' for Active; 'I' for Inactive)
REMARK    1  A    between atoms: N_1  and  C_2
REMARK    2  A    between atoms: C_7  and  C_8
REMARK                            x       y       z     vdW  Elec       q    Type
REMARK                         _______ _______ _______ _____ _____    ______ ____
ROOT
ATOM      1  C   UNL     1       2.176   3.316  21.235  0.00  0.00    +0.000 A 
ATOM      2  C   UNL     1       1.759   4.633  20.976  0.00  0.00    +0.000 A 
ATOM      3  C   UNL     1       2.314   5.402  19.944  0.00  0.00    +0.000 A 
ATOM      4  C   UNL     1       3.261   4.757  19.162  0.00  0.00    +0.000 A 
ATOM      5  O   UNL     1       3.931   5.261  18.087  0.00  0.00    +0.000 OA
ATOM      6  C   UNL     1       4.708   4.212  17.660  0.00  0.00    +0.000 A 
ATOM      7  N   UNL     1       4.593   3.112  18.382  0.00  0.00    +0.000 NA
ATOM      8  C   UNL     1       3.669   3.447  19.340  0.00  0.00    +0.000 A 
ATOM      9  C   UNL     1       3.107   2.697  20.382  0.00  0.00    +0.000 A 
ENDROOT
BRANCH   6  10
ATOM     10  C   UNL     1       5.523   4.446  16.471  0.00  0.00    +0.000 A 
ATOM     11  C   UNL     1       6.717   5.179  16.523  0.00  0.00    +0.000 A 
ATOM     12  C   UNL     1       7.468   5.406  15.365  0.00  0.00    +0.000 A 
ATOM     13  C   UNL     1       7.034   4.903  14.136  0.00  0.00    +0.000 A 
ATOM     14 CL   UNL     1       8.004   5.230  12.746  0.00  0.00    +0.000 Cl
ATOM     15  C   UNL     1       5.846   4.167  14.070  0.00  0.00    +0.000 A 
ATOM     16 CL   UNL     1       5.243   3.518  12.586  0.00  0.00    +0.000 Cl
ATOM     17  C   UNL     1       5.099   3.939  15.232  0.00  0.00    +0.000 A 
ENDBRANCH   6  10
BRANCH   1  18
ATOM     18  N   UNL     1       1.498   2.549  22.193  0.00  0.00    +0.000 N 
ATOM     19  H   UNL     1       1.465   2.969  23.117  0.00  0.00    +0.000 HD
ATOM     20  H   UNL     1       1.785   1.576  22.223  0.00  0.00    +0.000 HD
ENDBRANCH   1  18
TORSDOF 2
ENDMDL
MODEL 3
REMARK VINA RESULT:      -7.0      5.819      6.759
REMARK  Name = 
REMARK  2 active torsions:
REMARK  status: ('A' for Active; 'I' for Inactive)
REMARK    1  A    between atoms: N_1  and  C_2
REMARK    2  A    between atoms: C_7  and  C_8
REMARK                            x       y       z     vdW  Elec       q    Type
REMARK                         _______ _______ _______ _____ _____    ______ ____
ROOT
ATOM      1  C   UNL     1       4.140   2.643  20.092  0.00  0.00    +0.000 A 
ATOM      2  C   UNL     1       3.071   2.534  20.998  0.00  0.00    +0.000 A 
ATOM      3  C   UNL     1       2.216   3.611  21.276  0.00  0.00    +0.000 A 
ATOM      4  C   UNL     1       2.463   4.770  20.557  0.00  0.00    +0.000 A 
ATOM      5  O   UNL     1       1.773   5.944  20.614  0.00  0.00    +0.000 OA
ATOM      6  C   UNL     1       2.397   6.741  19.685  0.00  0.00    +0.000 A 
ATOM      7  N   UNL     1       3.419   6.172  19.071  0.00  0.00    +0.000 NA
ATOM      8  C   UNL     1       3.468   4.914  19.616  0.00  0.00    +0.000 A 
ATOM      9  C   UNL     1       4.315   3.828  19.357  0.00  0.00    +0.000 A 
ENDROOT
BRANCH   6  10
ATOM     10  C   UNL     1       1.837   8.075  19.488  0.00  0.00    +0.000 A 
ATOM     11  C   UNL     1       1.937   8.746  18.261  0.00  0.00    +0.000 A 
ATOM     12  C   UNL     1       1.411  10.033  18.105  0.00  0.00    +0.000 A 
ATOM     13  C   UNL     1       0.777  10.667  19.175  0.00  0.00    +0.000 A 
ATOM     14 CL   UNL     1       0.159  12.259  18.915  0.00  0.00    +0.000 Cl
ATOM     15  C   UNL     1       0.666  10.008  20.404  0.00  0.00    +0.000 A 
ATOM     16 CL   UNL     1      -0.100  10.730  21.775  0.00  0.00    +0.000 Cl
ATOM     17  C   UNL     1       1.191   8.719  20.555  0.00  0.00    +0.000 A 
ENDBRANCH   6  10
BRANCH   1  18
ATOM     18  N   UNL     1       4.880   1.502  19.754  0.00  0.00    +0.000 N 
ATOM     19  H   UNL     1       5.788   1.699  19.344  0.00  0.00    +0.000 HD
ATOM     20  H   UNL     1       4.358   0.814  19.218  0.00  0.00    +0.000 HD
ENDBRANCH   1  18
TORSDOF 2
ENDMDL
MODEL 4
REMARK VINA RESULT:      -7.0      6.223      7.995
REMARK  Name = 
REMARK  2 active torsions:
REMARK  status: ('A' for Active; 'I' for Inactive)
REMARK    1  A    between atoms: N_1  and  C_2
REMARK    2  A    between atoms: C_7  and  C_8
REMARK                            x       y       z     vdW  Elec       q    Type
REMARK                         _______ _______ _______ _____ _____    ______ ____
ROOT
ATOM      1  C   UNL     1       6.051   5.375  16.952  0.00  0.00    +0.000 A 
ATOM      2  C   UNL     1       6.791   4.781  17.989  0.00  0.00    +0.000 A 
ATOM      3  C   UNL     1       7.747   5.494  18.726  0.00  0.00    +0.000 A 
ATOM      4  C   UNL     1       7.873   6.835  18.400  0.00  0.00    +0.000 A 
ATOM      5  O   UNL     1       8.702   7.754  18.973  0.00  0.00    +0.000 OA
ATOM      6  C   UNL     1       8.406   8.923  18.316  0.00  0.00    +0.000 A 
ATOM      7  N   UNL     1       7.483   8.808  17.378  0.00  0.00    +0.000 NA
ATOM      8  C   UNL     1       7.133   7.482  17.425  0.00  0.00    +0.000 A 
ATOM      9  C   UNL     1       6.187   6.750  16.696  0.00  0.00    +0.000 A 
ENDROOT
BRANCH   6  10
ATOM     10  C   UNL     1       9.122  10.117  18.755  0.00  0.00    +0.000 A 
ATOM     11  C   UNL     1       9.295  10.420  20.113  0.00  0.00    +0.000 A 
ATOM     12  C   UNL     1       9.966  11.582  20.507  0.00  0.00    +0.000 A 
ATOM     13  C   UNL     1      10.474  12.460  19.547  0.00  0.00    +0.000 A 
ATOM     14 CL   UNL     1      11.282  13.880  20.103  0.00  0.00    +0.000 Cl
ATOM     15  C   UNL     1      10.311  12.169  18.188  0.00  0.00    +0.000 A 
ATOM     16 CL   UNL     1      10.907  13.209  16.943  0.00  0.00    +0.000 Cl
ATOM     17  C   UNL     1       9.642  11.003  17.798  0.00  0.00    +0.000 A 
ENDBRANCH   6  10
BRANCH   1  18
ATOM     18  N   UNL     1       5.017   4.654  16.338  0.00  0.00    +0.000 N 
ATOM     19  H   UNL     1       5.269   3.707  16.072  0.00  0.00    +0.000 HD
ATOM     20  H   UNL     1       4.556   5.154  15.583  0.00  0.00    +0.000 HD
ENDBRANCH   1  18
TORSDOF 2
ENDMDL
MODEL 5
REMARK VINA RESULT:      -6.8      6.183      7.971
REMARK  Name = 
REMARK  2 active torsions:
REMARK  status: ('A' for Active; 'I' for Inactive)
REMARK    1  A    between atoms: N_1  and  C_2
REMARK    2  A    between atoms: C_7  and  C_8
REMARK                            x       y       z     vdW  Elec       q    Type
REMARK                         _______ _______ _______ _____ _____    ______ ____
ROOT
ATOM      1  C   UNL     1       6.475   4.875  17.319  0.00  0.00    +0.000 A 
ATOM      2  C   UNL     1       7.217   4.621  18.485  0.00  0.00    +0.000 A 
ATOM      3  C   UNL     1       8.010   5.605  19.094  0.00  0.00    +0.000 A 
ATOM      4  C   UNL     1       7.968   6.857  18.500  0.00  0.00    +0.000 A 
ATOM      5  O   UNL     1       8.617   7.987  18.901  0.00  0.00    +0.000 OA
ATOM      6  C   UNL     1       8.206   8.941  18.003  0.00  0.00    +0.000 A 
ATOM      7  N   UNL     1       7.376   8.502  17.074  0.00  0.00    +0.000 NA
ATOM      8  C   UNL     1       7.214   7.174  17.384  0.00  0.00    +0.000 A 
ATOM      9  C   UNL     1       6.433   6.176  16.786  0.00  0.00    +0.000 A 
ENDROOT
BRANCH   6  10
ATOM     10  C   UNL     1       8.714  10.294  18.211  0.00  0.00    +0.000 A 
ATOM     11  C   UNL     1       8.148  11.404  17.567  0.00  0.00    +0.000 A 
ATOM     12  C   UNL     1       8.667  12.688  17.767  0.00  0.00    +0.000 A 
ATOM     13  C   UNL     1       9.761  12.879  18.613  0.00  0.00    +0.000 A 
ATOM     14 CL   UNL     1      10.357  14.489  18.805  0.00  0.00    +0.000 Cl
ATOM     15  C   UNL     1      10.335  11.781  19.263  0.00  0.00    +0.000 A 
ATOM     16 CL   UNL     1      11.693  11.939  20.320  0.00  0.00    +0.000 Cl
ATOM     17  C   UNL     1       9.810  10.499  19.064  0.00  0.00    +0.000 A 
ENDBRANCH   6  10
BRANCH   1  18
ATOM     18  N   UNL     1       5.599   3.897  16.828  0.00  0.00    +0.000 N 
ATOM     19  H   UNL     1       5.581   3.041  17.372  0.00  0.00    +0.000 HD
ATOM     20  H   UNL     1       5.694   3.718  15.833  0.00  0.00    +0.000 HD
ENDBRANCH   1  18
TORSDOF 2
ENDMDL
MODEL 6
REMARK VINA RESULT:      -6.8      5.169      5.499
REMARK  Name = 
REMARK  2 active torsions:
REMARK  status: ('A' for Active; 'I' for Inactive)
REMARK    1  A    between atoms: N_1  and  C_2
REMARK    2  A    between atoms: C_7  and  C_8
REMARK                            x       y       z     vdW  Elec       q    Type
REMARK                         _______ _______ _______ _____ _____    ______ ____
ROOT
ATOM      1  C   UNL     1      -0.065  10.524  20.636  0.00  0.00    +0.000 A 
ATOM      2  C   UNL     1       0.251   9.688  21.720  0.00  0.00    +0.000 A 
ATOM      3  C   UNL     1       1.029   8.531  21.569  0.00  0.00    +0.000 A 
ATOM      4  C   UNL     1       1.510   8.299  20.289  0.00  0.00    +0.000 A 
ATOM      5  O   UNL     1       2.304   7.271  19.876  0.00  0.00    +0.000 OA
ATOM      6  C   UNL     1       2.517   7.531  18.544  0.00  0.00    +0.000 A 
ATOM      7  N   UNL     1       1.915   8.617  18.093  0.00  0.00    +0.000 NA
ATOM      8  C   UNL     1       1.273   9.116  19.198  0.00  0.00    +0.000 A 
ATOM      9  C   UNL     1       0.488  10.264  19.369  0.00  0.00    +0.000 A 
ENDROOT
BRANCH   6  10
ATOM     10  C   UNL     1       3.388   6.603  17.829  0.00  0.00    +0.000 A 
ATOM     11  C   UNL     1       4.389   7.051  16.955  0.00  0.00    +0.000 A 
ATOM     12  C   UNL     1       5.196   6.141  16.265  0.00  0.00    +0.000 A 
ATOM     13  C   UNL     1       5.012   4.767  16.438  0.00  0.00    +0.000 A 
ATOM     14 CL   UNL     1       6.036   3.700  15.548  0.00  0.00    +0.000 Cl
ATOM     15  C   UNL     1       4.019   4.306  17.310  0.00  0.00    +0.000 A 
ATOM     16 CL   UNL     1       3.729   2.622  17.572  0.00  0.00    +0.000 Cl
ATOM     17  C   UNL     1       3.216   5.221  18.001  0.00  0.00    +0.000 A 
ENDBRANCH   6  10
BRANCH   1  18
ATOM     18  N   UNL     1      -0.734  11.734  20.865  0.00  0.00    +0.000 N 
ATOM     19  H   UNL     1      -1.078  12.187  20.025  0.00  0.00    +0.000 HD
ATOM     20  H   UNL     1      -0.230  12.377  21.470  0.00  0.00    +0.000 HD
ENDBRANCH   1  18
TORSDOF 2
ENDMDL
MODEL 7
REMARK VINA RESULT:      -6.6      5.173      5.454
REMARK  Name = 
REMARK  2 active torsions:
REMARK  status: ('A' for Active; 'I' for Inactive)
REMARK    1  A    between atoms: N_1  and  C_2
REMARK    2  A    between atoms: C_7  and  C_8
REMARK                            x       y       z     vdW  Elec       q    Type
REMARK                         _______ _______ _______ _____ _____    ______ ____
ROOT
ATOM      1  C   UNL     1      -0.037  10.306  20.964  0.00  0.00    +0.000 A 
ATOM      2  C   UNL     1      -0.085  10.944  19.713  0.00  0.00    +0.000 A 
ATOM      3  C   UNL     1       0.640  10.474  18.607  0.00  0.00    +0.000 A 
ATOM      4  C   UNL     1       1.361   9.309  18.819  0.00  0.00    +0.000 A 
ATOM      5  O   UNL     1       2.123   8.630  17.916  0.00  0.00    +0.000 OA
ATOM      6  C   UNL     1       2.578   7.541  18.617  0.00  0.00    +0.000 A 
ATOM      7  N   UNL     1       2.181   7.492  19.876  0.00  0.00    +0.000 NA
ATOM      8  C   UNL     1       1.401   8.613  20.015  0.00  0.00    +0.000 A 
ATOM      9  C   UNL     1       0.675   9.103  21.108  0.00  0.00    +0.000 A 
ENDROOT
BRANCH   6  10
ATOM     10  C   UNL     1       3.404   6.588  17.881  0.00  0.00    +0.000 A 
ATOM     11  C   UNL     1       4.425   7.006  17.016  0.00  0.00    +0.000 A 
ATOM     12  C   UNL     1       5.188   6.073  16.306  0.00  0.00    +0.000 A 
ATOM     13  C   UNL     1       4.938   4.707  16.449  0.00  0.00    +0.000 A 
ATOM     14 CL   UNL     1       5.910   3.611  15.534  0.00  0.00    +0.000 Cl
ATOM     15  C   UNL     1       3.923   4.275  17.310  0.00  0.00    +0.000 A 
ATOM     16 CL   UNL     1       3.552   2.602  17.535  0.00  0.00    +0.000 Cl
ATOM     17  C   UNL     1       3.165   5.212  18.022  0.00  0.00    +0.000 A 
ENDBRANCH   6  10
BRANCH   1  18
ATOM     18  N   UNL     1      -0.881  10.741  21.996  0.00  0.00    +0.000 N 
ATOM     19  H   UNL     1      -1.714  10.175  22.120  0.00  0.00    +0.000 HD
ATOM     20  H   UNL     1      -1.092  11.734  21.967  0.00  0.00    +0.000 HD
ENDBRANCH   1  18
TORSDOF 2
ENDMDL
MODEL 8
REMARK VINA RESULT:      -6.6      5.816      7.547
REMARK  Name = 
REMARK  2 active torsions:
REMARK  status: ('A' for Active; 'I' for Inactive)
REMARK    1  A    between atoms: N_1  and  C_2
REMARK    2  A    between atoms: C_7  and  C_8
REMARK                            x       y       z     vdW  Elec       q    Type
REMARK                         _______ _______ _______ _____ _____    ______ ____
ROOT
ATOM      1  C   UNL     1       5.127   4.285  16.333  0.00  0.00    +0.000 A 
ATOM      2  C   UNL     1       5.603   5.489  15.788  0.00  0.00    +0.000 A 
ATOM      3  C   UNL     1       5.084   6.736  16.166  0.00  0.00    +0.000 A 
ATOM      4  C   UNL     1       4.110   6.703  17.152  0.00  0.00    +0.000 A 
ATOM      5  O   UNL     1       3.464   7.763  17.716  0.00  0.00    +0.000 OA
ATOM      6  C   UNL     1       2.641   7.189  18.654  0.00  0.00    +0.000 A 
ATOM      7  N   UNL     1       2.706   5.871  18.710  0.00  0.00    +0.000 NA
ATOM      8  C   UNL     1       3.643   5.550  17.760  0.00  0.00    +0.000 A 
ATOM      9  C   UNL     1       4.170   4.314  17.363  0.00  0.00    +0.000 A 
ENDROOT
BRANCH   6  10
ATOM     10  C   UNL     1       1.839   8.101  19.464  0.00  0.00    +0.000 A 
ATOM     11  C   UNL     1       1.555   7.839  20.812  0.00  0.00    +0.000 A 
ATOM     12  C   UNL     1       0.767   8.718  21.561  0.00  0.00    +0.000 A 
ATOM     13  C   UNL     1       0.250   9.874  20.972  0.00  0.00    +0.000 A 
ATOM     14 CL   UNL     1      -0.724  10.910  21.951  0.00  0.00    +0.000 Cl
ATOM     15  C   UNL     1       0.528  10.151  19.628  0.00  0.00    +0.000 A 
ATOM     16 CL   UNL     1      -0.080  11.557  18.829  0.00  0.00    +0.000 Cl
ATOM     17  C   UNL     1       1.321   9.269  18.884  0.00  0.00    +0.000 A 
ENDBRANCH   6  10
BRANCH   1  18
ATOM     18  N   UNL     1       5.769   3.079  16.018  0.00  0.00    +0.000 N 
ATOM     19  H   UNL     1       5.634   2.773  15.059  0.00  0.00    +0.000 HD
ATOM     20  H   UNL     1       5.601   2.333  16.687  0.00  0.00    +0.000 HD
ENDBRANCH   1  18
TORSDOF 2
ENDMDL
MODEL 9
REMARK VINA RESULT:      -6.6      0.986      1.509
REMARK  Name = 
REMARK  2 active torsions:
REMARK  status: ('A' for Active; 'I' for Inactive)
REMARK    1  A    between atoms: N_1  and  C_2
REMARK    2  A    between atoms: C_7  and  C_8
REMARK                            x       y       z     vdW  Elec       q    Type
REMARK                         _______ _______ _______ _____ _____    ______ ____
ROOT
ATOM      1  C   UNL     1       1.838   2.852  20.496  0.00  0.00    +0.000 A 
ATOM      2  C   UNL     1       3.060   2.480  21.083  0.00  0.00    +0.000 A 
ATOM      3  C   UNL     1       4.275   2.553  20.387  0.00  0.00    +0.000 A 
ATOM      4  C   UNL     1       4.197   3.068  19.102  0.00  0.00    +0.000 A 
ATOM      5  O   UNL     1       5.221   3.271  18.226  0.00  0.00    +0.000 OA
ATOM      6  C   UNL     1       4.614   3.830  17.129  0.00  0.00    +0.000 A 
ATOM      7  N   UNL     1       3.305   3.977  17.239  0.00  0.00    +0.000 NA
ATOM      8  C   UNL     1       3.029   3.498  18.496  0.00  0.00    +0.000 A 
ATOM      9  C   UNL     1       1.825   3.410  19.206  0.00  0.00    +0.000 A 
ENDROOT
BRANCH   6  10
ATOM     10  C   UNL     1       5.486   4.204  16.019  0.00  0.00    +0.000 A 
ATOM     11  C   UNL     1       6.532   5.123  16.177  0.00  0.00    +0.000 A 
ATOM     12  C   UNL     1       7.340   5.481  15.093  0.00  0.00    +0.000 A 
ATOM     13  C   UNL     1       7.112   4.923  13.833  0.00  0.00    +0.000 A 
ATOM     14 CL   UNL     1       8.141   5.417  12.536  0.00  0.00    +0.000 Cl
ATOM     15  C   UNL     1       6.073   4.002  13.661  0.00  0.00    +0.000 A 
ATOM     16 CL   UNL     1       5.727   3.274  12.132  0.00  0.00    +0.000 Cl
ATOM     17  C   UNL     1       5.269   3.644  14.750  0.00  0.00    +0.000 A 
ENDBRANCH   6  10
BRANCH   1  18
ATOM     18  N   UNL     1       0.675   2.883  21.277  0.00  0.00    +0.000 N 
ATOM     19  H   UNL     1       0.679   3.591  22.004  0.00  0.00    +0.000 HD
ATOM     20  H   UNL     1       0.388   1.974  21.629  0.00  0.00    +0.000 HD
ENDBRANCH   1  18
TORSDOF 2
ENDMDL
