MODEL 1
REMARK VINA RESULT:      -8.7      0.000      0.000
REMARK  Name = 
REMARK  6 active torsions:
REMARK  status: ('A' for Active; 'I' for Inactive)
REMARK    1  A    between atoms: C_1  and  C_2
REMARK    2  A    between atoms: C_2  and  C_3
REMARK    3  A    between atoms: C_6  and  C_8
REMARK    4  A    between atoms: C_11  and  N_12
REMARK    5  A    between atoms: C_15  and  C_16
REMARK    6  A    between atoms: C_21  and  C_22
REMARK                            x       y       z     vdW  Elec       q    Type
REMARK                         _______ _______ _______ _____ _____    ______ ____
ROOT
ATOM      1  N   UNL     1       0.462   9.587  20.982  0.00  0.00    +0.000 N 
ATOM      2  C   UNL     1      -0.379  10.547  20.438  0.00  0.00    +0.000 A 
ATOM      3  N   UNL     1      -0.997  10.361  19.291  0.00  0.00    +0.000 NA
ATOM      4  C   UNL     1      -1.745  11.366  18.711  0.00  0.00    +0.000 A 
ATOM      5  C   UNL     1      -1.950  12.546  19.314  0.00  0.00    +0.000 A 
ATOM      6  N   UNL     1      -1.366  12.768  20.547  0.00  0.00    +0.000 N 
ATOM      7  C   UNL     1      -1.337  13.858  21.378  0.00  0.00    +0.000 A 
ATOM      8  C   UNL     1      -0.474  13.505  22.395  0.00  0.00    +0.000 A 
ATOM      9  N   UNL     1      -0.012  12.216  22.242  0.00  0.00    +0.000 NA
ATOM     10  C   UNL     1      -0.572  11.812  21.123  0.00  0.00    +0.000 A 
ATOM     11  H   UNL     1       0.936   9.921  21.818  0.00  0.00    +0.000 HD
ENDROOT
BRANCH   1  15
ATOM     12  C   UNL     1       2.596   6.826  18.554  0.00  0.00    +0.000 A 
ATOM     13  C   UNL     1       2.177   8.080  18.078  0.00  0.00    +0.000 A 
ATOM     14  C   UNL     1       1.577   9.019  18.919  0.00  0.00    +0.000 A 
ATOM     15  C   UNL     1       1.215   8.672  20.217  0.00  0.00    +0.000 A 
ATOM     16  C   UNL     1       1.606   7.407  20.681  0.00  0.00    +0.000 A 
ATOM     17  C   UNL     1       2.294   6.491  19.874  0.00  0.00    +0.000 A 
ATOM     18 CL   UNL     1       2.731   4.995  20.630  0.00  0.00    +0.000 Cl
BRANCH  12  24
ATOM     19  C   UNL     1       6.615   4.370  17.837  0.00  0.00    +0.000 C 
ATOM     20  C   UNL     1       6.563   5.112  16.486  0.00  0.00    +0.000 C 
ATOM     21  C   UNL     1       7.290   4.271  15.429  0.00  0.00    +0.000 C 
ATOM     22  C   UNL     1       5.082   5.318  16.047  0.00  0.00    +0.000 C 
ATOM     23  N   UNL     1       4.410   6.294  16.913  0.00  0.00    +0.000 N 
ATOM     24  C   UNL     1       3.294   5.875  17.641  0.00  0.00    +0.000 C 
ATOM     25  O   UNL     1       2.848   4.738  17.536  0.00  0.00    +0.000 OA
ATOM     26  C   UNL     1       5.134   7.569  17.007  0.00  0.00    +0.000 C 
ATOM     27  C   UNL     1       6.599   7.380  17.399  0.00  0.00    +0.000 C 
ATOM     28  N   UNL     1       7.296   6.403  16.564  0.00  0.00    +0.000 NA
ATOM     29  H   UNL     1       8.229   6.246  16.944  0.00  0.00    +0.000 HD
ENDBRANCH  12  24
ENDBRANCH   1  15
BRANCH   7  30
ATOM     30  C   UNL     1      -2.050  15.134  21.182  0.00  0.00    +0.000 A 
ATOM     31  C   UNL     1      -1.697  16.245  20.391  0.00  0.00    +0.000 A 
ATOM     32  N   UNL     1      -2.566  17.252  20.512  0.00  0.00    +0.000 NA
ATOM     33  N   UNL     1      -3.479  16.775  21.375  0.00  0.00    +0.000 N 
ATOM     34  C   UNL     1      -3.231  15.496  21.785  0.00  0.00    +0.000 A 
ATOM     35  H   UNL     1      -4.243  17.385  21.647  0.00  0.00    +0.000 HD
ENDBRANCH   7  30
BRANCH   4  36
ATOM     36  C   UNL     1      -2.326  10.998  17.408  0.00  0.00    +0.000 C 
ATOM     37  C   UNL     1      -2.044   9.670  16.752  0.00  0.00    +0.000 C 
ATOM     38  C   UNL     1      -3.382   9.917  17.381  0.00  0.00    +0.000 C 
ENDBRANCH   4  36
TORSDOF 4
ENDMDL
MODEL 2
REMARK VINA RESULT:      -8.3      3.107      4.186
REMARK  Name = 
REMARK  6 active torsions:
REMARK  status: ('A' for Active; 'I' for Inactive)
REMARK    1  A    between atoms: C_1  and  C_2
REMARK    2  A    between atoms: C_2  and  C_3
REMARK    3  A    between atoms: C_6  and  C_8
REMARK    4  A    between atoms: C_11  and  N_12
REMARK    5  A    between atoms: C_15  and  C_16
REMARK    6  A    between atoms: C_21  and  C_22
REMARK                            x       y       z     vdW  Elec       q    Type
REMARK                         _______ _______ _______ _____ _____    ______ ____
ROOT
ATOM      1  N   UNL     1      -0.412  10.548  20.883  0.00  0.00    +0.000 N 
ATOM      2  C   UNL     1       0.079  11.838  21.020  0.00  0.00    +0.000 A 
ATOM      3  N   UNL     1       1.103  12.271  20.315  0.00  0.00    +0.000 NA
ATOM      4  C   UNL     1       1.648  13.520  20.537  0.00  0.00    +0.000 A 
ATOM      5  C   UNL     1       1.121  14.385  21.417  0.00  0.00    +0.000 A 
ATOM      6  N   UNL     1       0.011  13.995  22.143  0.00  0.00    +0.000 N 
ATOM      7  C   UNL     1      -0.713  14.608  23.133  0.00  0.00    +0.000 A 
ATOM      8  C   UNL     1      -1.617  13.654  23.552  0.00  0.00    +0.000 A 
ATOM      9  N   UNL     1      -1.505  12.493  22.818  0.00  0.00    +0.000 NA
ATOM     10  C   UNL     1      -0.519  12.742  21.985  0.00  0.00    +0.000 A 
ATOM     11  H   UNL     1      -1.138  10.340  21.563  0.00  0.00    +0.000 HD
ENDROOT
BRANCH   1  15
ATOM     12  C   UNL     1       2.075   7.235  19.928  0.00  0.00    +0.000 A 
ATOM     13  C   UNL     1       1.447   7.370  21.177  0.00  0.00    +0.000 A 
ATOM     14  C   UNL     1       0.546   8.404  21.437  0.00  0.00    +0.000 A 
ATOM     15  C   UNL     1       0.377   9.436  20.520  0.00  0.00    +0.000 A 
ATOM     16  C   UNL     1       1.030   9.318  19.284  0.00  0.00    +0.000 A 
ATOM     17  C   UNL     1       1.864   8.234  18.977  0.00  0.00    +0.000 A 
ATOM     18 CL   UNL     1       2.552   8.235  17.388  0.00  0.00    +0.000 Cl
BRANCH  12  24
ATOM     19  C   UNL     1       2.749   3.356  17.246  0.00  0.00    +0.000 C 
ATOM     20  C   UNL     1       2.837   2.686  18.632  0.00  0.00    +0.000 C 
ATOM     21  C   UNL     1       3.714   1.433  18.524  0.00  0.00    +0.000 C 
ATOM     22  C   UNL     1       3.473   3.670  19.661  0.00  0.00    +0.000 C 
ATOM     23  N   UNL     1       2.560   4.779  19.958  0.00  0.00    +0.000 N 
ATOM     24  C   UNL     1       2.981   6.080  19.666  0.00  0.00    +0.000 C 
ATOM     25  O   UNL     1       4.099   6.308  19.216  0.00  0.00    +0.000 OA
ATOM     26  C   UNL     1       1.231   4.327  20.387  0.00  0.00    +0.000 C 
ATOM     27  C   UNL     1       0.609   3.332  19.408  0.00  0.00    +0.000 C 
ATOM     28  N   UNL     1       1.499   2.218  19.078  0.00  0.00    +0.000 NA
ATOM     29  H   UNL     1       1.070   1.655  18.345  0.00  0.00    +0.000 HD
ENDBRANCH  12  24
ENDBRANCH   1  15
BRANCH   7  30
ATOM     30  C   UNL     1      -0.519  15.977  23.648  0.00  0.00    +0.000 A 
ATOM     31  C   UNL     1      -0.189  16.406  24.947  0.00  0.00    +0.000 A 
ATOM     32  N   UNL     1      -0.158  17.737  25.051  0.00  0.00    +0.000 NA
ATOM     33  N   UNL     1      -0.460  18.154  23.810  0.00  0.00    +0.000 N 
ATOM     34  C   UNL     1      -0.657  17.135  22.921  0.00  0.00    +0.000 A 
ATOM     35  H   UNL     1      -0.523  19.152  23.644  0.00  0.00    +0.000 HD
ENDBRANCH   7  30
BRANCH   4  36
ATOM     36  C   UNL     1       2.815  13.819  19.690  0.00  0.00    +0.000 C 
ATOM     37  C   UNL     1       2.927  13.313  18.274  0.00  0.00    +0.000 C 
ATOM     38  C   UNL     1       2.624  14.761  18.524  0.00  0.00    +0.000 C 
ENDBRANCH   4  36
TORSDOF 4
ENDMDL
MODEL 3
REMARK VINA RESULT:      -8.3      2.681     10.479
REMARK  Name = 
REMARK  6 active torsions:
REMARK  status: ('A' for Active; 'I' for Inactive)
REMARK    1  A    between atoms: C_1  and  C_2
REMARK    2  A    between atoms: C_2  and  C_3
REMARK    3  A    between atoms: C_6  and  C_8
REMARK    4  A    between atoms: C_11  and  N_12
REMARK    5  A    between atoms: C_15  and  C_16
REMARK    6  A    between atoms: C_21  and  C_22
REMARK                            x       y       z     vdW  Elec       q    Type
REMARK                         _______ _______ _______ _____ _____    ______ ____
ROOT
ATOM      1  N   UNL     1       1.401   8.866  18.590  0.00  0.00    +0.000 N 
ATOM      2  C   UNL     1       2.156   7.717  18.777  0.00  0.00    +0.000 A 
ATOM      3  N   UNL     1       1.854   6.828  19.700  0.00  0.00    +0.000 NA
ATOM      4  C   UNL     1       2.674   5.745  19.945  0.00  0.00    +0.000 A 
ATOM      5  C   UNL     1       3.769   5.495  19.212  0.00  0.00    +0.000 A 
ATOM      6  N   UNL     1       4.098   6.371  18.195  0.00  0.00    +0.000 N 
ATOM      7  C   UNL     1       5.154   6.427  17.323  0.00  0.00    +0.000 A 
ATOM      8  C   UNL     1       4.987   7.616  16.641  0.00  0.00    +0.000 A 
ATOM      9  N   UNL     1       3.838   8.266  17.032  0.00  0.00    +0.000 NA
ATOM     10  C   UNL     1       3.335   7.485  17.963  0.00  0.00    +0.000 A 
ATOM     11  H   UNL     1       1.819   9.493  17.908  0.00  0.00    +0.000 HD
ENDROOT
BRANCH   1  15
ATOM     12  C   UNL     1      -0.666  10.990  21.638  0.00  0.00    +0.000 A 
ATOM     13  C   UNL     1      -0.780  11.323  20.278  0.00  0.00    +0.000 A 
ATOM     14  C   UNL     1      -0.185  10.548  19.281  0.00  0.00    +0.000 A 
ATOM     15  C   UNL     1       0.689   9.519  19.618  0.00  0.00    +0.000 A 
ATOM     16  C   UNL     1       0.828   9.207  20.978  0.00  0.00    +0.000 A 
ATOM     17  C   UNL     1       0.159   9.920  21.984  0.00  0.00    +0.000 A 
ATOM     18 CL   UNL     1       0.419   9.367  23.604  0.00  0.00    +0.000 Cl
BRANCH  12  24
ATOM     19  C   UNL     1      -3.548  14.717  22.341  0.00  0.00    +0.000 C 
ATOM     20  C   UNL     1      -2.392  15.153  23.263  0.00  0.00    +0.000 C 
ATOM     21  C   UNL     1      -2.952  16.051  24.373  0.00  0.00    +0.000 C 
ATOM     22  C   UNL     1      -1.721  13.901  23.906  0.00  0.00    +0.000 C 
ATOM     23  N   UNL     1      -0.984  13.128  22.901  0.00  0.00    +0.000 N 
ATOM     24  C   UNL     1      -1.371  11.805  22.669  0.00  0.00    +0.000 C 
ATOM     25  O   UNL     1      -2.270  11.276  23.312  0.00  0.00    +0.000 OA
ATOM     26  C   UNL     1      -0.017  13.939  22.151  0.00  0.00    +0.000 C 
ATOM     27  C   UNL     1      -0.651  15.191  21.546  0.00  0.00    +0.000 C 
ATOM     28  N   UNL     1      -1.406  15.980  22.519  0.00  0.00    +0.000 NA
ATOM     29  H   UNL     1      -1.889  16.735  22.032  0.00  0.00    +0.000 HD
ENDBRANCH  12  24
ENDBRANCH   1  15
BRANCH   7  30
ATOM     30  C   UNL     1       6.240   5.439  17.190  0.00  0.00    +0.000 A 
ATOM     31  C   UNL     1       7.252   5.093  18.106  0.00  0.00    +0.000 A 
ATOM     32  N   UNL     1       8.102   4.191  17.609  0.00  0.00    +0.000 NA
ATOM     33  N   UNL     1       7.622   3.955  16.377  0.00  0.00    +0.000 N 
ATOM     34  C   UNL     1       6.487   4.658  16.086  0.00  0.00    +0.000 A 
ATOM     35  H   UNL     1       8.127   3.306  15.784  0.00  0.00    +0.000 HD
ENDBRANCH   7  30
BRANCH   4  36
ATOM     36  C   UNL     1       2.205   4.881  21.042  0.00  0.00    +0.000 C 
ATOM     37  C   UNL     1       1.146   3.828  20.834  0.00  0.00    +0.000 C 
ATOM     38  C   UNL     1       2.578   3.417  21.002  0.00  0.00    +0.000 C 
ENDBRANCH   4  36
TORSDOF 4
ENDMDL
MODEL 4
REMARK VINA RESULT:      -8.2      2.368      3.138
REMARK  Name = 
REMARK  6 active torsions:
REMARK  status: ('A' for Active; 'I' for Inactive)
REMARK    1  A    between atoms: C_1  and  C_2
REMARK    2  A    between atoms: C_2  and  C_3
REMARK    3  A    between atoms: C_6  and  C_8
REMARK    4  A    between atoms: C_11  and  N_12
REMARK    5  A    between atoms: C_15  and  C_16
REMARK    6  A    between atoms: C_21  and  C_22
REMARK                            x       y       z     vdW  Elec       q    Type
REMARK                         _______ _______ _______ _____ _____    ______ ____
ROOT
ATOM      1  N   UNL     1       0.119  10.185  21.273  0.00  0.00    +0.000 N 
ATOM      2  C   UNL     1      -0.552  11.106  20.482  0.00  0.00    +0.000 A 
ATOM      3  N   UNL     1      -1.070  10.776  19.318  0.00  0.00    +0.000 NA
ATOM      4  C   UNL     1      -1.642  11.726  18.494  0.00  0.00    +0.000 A 
ATOM      5  C   UNL     1      -1.774  13.009  18.863  0.00  0.00    +0.000 A 
ATOM      6  N   UNL     1      -1.293  13.392  20.102  0.00  0.00    +0.000 N 
ATOM      7  C   UNL     1      -1.225  14.605  20.736  0.00  0.00    +0.000 A 
ATOM      8  C   UNL     1      -0.512  14.361  21.892  0.00  0.00    +0.000 A 
ATOM      9  N   UNL     1      -0.183  13.029  22.011  0.00  0.00    +0.000 NA
ATOM     10  C   UNL     1      -0.671  12.485  20.918  0.00  0.00    +0.000 A 
ATOM     11  H   UNL     1       0.542  10.617  22.090  0.00  0.00    +0.000 HD
ENDROOT
BRANCH   1  15
ATOM     12  C   UNL     1       2.404   6.884  19.875  0.00  0.00    +0.000 A 
ATOM     13  C   UNL     1       1.866   6.932  21.172  0.00  0.00    +0.000 A 
ATOM     14  C   UNL     1       1.026   7.970  21.578  0.00  0.00    +0.000 A 
ATOM     15  C   UNL     1       0.838   9.082  20.764  0.00  0.00    +0.000 A 
ATOM     16  C   UNL     1       1.402   9.049  19.480  0.00  0.00    +0.000 A 
ATOM     17  C   UNL     1       2.170   7.967  19.027  0.00  0.00    +0.000 A 
ATOM     18 CL   UNL     1       2.752   8.080  17.400  0.00  0.00    +0.000 Cl
BRANCH  12  24
ATOM     19  C   UNL     1       2.601   3.043  17.064  0.00  0.00    +0.000 C 
ATOM     20  C   UNL     1       2.900   2.350  18.408  0.00  0.00    +0.000 C 
ATOM     21  C   UNL     1       3.735   1.091  18.144  0.00  0.00    +0.000 C 
ATOM     22  C   UNL     1       3.702   3.311  19.337  0.00  0.00    +0.000 C 
ATOM     23  N   UNL     1       2.860   4.423  19.792  0.00  0.00    +0.000 N 
ATOM     24  C   UNL     1       3.245   5.725  19.456  0.00  0.00    +0.000 C 
ATOM     25  O   UNL     1       4.279   5.950  18.838  0.00  0.00    +0.000 OA
ATOM     26  C   UNL     1       1.610   3.976  20.419  0.00  0.00    +0.000 C 
ATOM     27  C   UNL     1       0.830   3.002  19.536  0.00  0.00    +0.000 C 
ATOM     28  N   UNL     1       1.644   1.886  19.054  0.00  0.00    +0.000 NA
ATOM     29  H   UNL     1       1.098   1.339  18.389  0.00  0.00    +0.000 HD
ENDBRANCH  12  24
ENDBRANCH   1  15
BRANCH   7  30
ATOM     30  C   UNL     1      -1.770  15.886  20.248  0.00  0.00    +0.000 A 
ATOM     31  C   UNL     1      -2.968  16.540  20.596  0.00  0.00    +0.000 A 
ATOM     32  N   UNL     1      -3.156  17.662  19.896  0.00  0.00    +0.000 NA
ATOM     33  N   UNL     1      -2.070  17.725  19.108  0.00  0.00    +0.000 N 
ATOM     34  C   UNL     1      -1.191  16.698  19.302  0.00  0.00    +0.000 A 
ATOM     35  H   UNL     1      -2.000  18.497  18.454  0.00  0.00    +0.000 HD
ENDBRANCH   7  30
BRANCH   4  36
ATOM     36  C   UNL     1      -2.129  11.187  17.213  0.00  0.00    +0.000 C 
ATOM     37  C   UNL     1      -2.347   9.710  16.996  0.00  0.00    +0.000 C 
ATOM     38  C   UNL     1      -3.528  10.619  17.166  0.00  0.00    +0.000 C 
ENDBRANCH   4  36
TORSDOF 4
ENDMDL
MODEL 5
REMARK VINA RESULT:      -8.2      5.744      9.892
REMARK  Name = 
REMARK  6 active torsions:
REMARK  status: ('A' for Active; 'I' for Inactive)
REMARK    1  A    between atoms: C_1  and  C_2
REMARK    2  A    between atoms: C_2  and  C_3
REMARK    3  A    between atoms: C_6  and  C_8
REMARK    4  A    between atoms: C_11  and  N_12
REMARK    5  A    between atoms: C_15  and  C_16
REMARK    6  A    between atoms: C_21  and  C_22
REMARK                            x       y       z     vdW  Elec       q    Type
REMARK                         _______ _______ _______ _____ _____    ______ ____
ROOT
ATOM      1  N   UNL     1       7.165   7.321  17.406  0.00  0.00    +0.000 N 
ATOM      2  C   UNL     1       5.818   7.040  17.585  0.00  0.00    +0.000 A 
ATOM      3  N   UNL     1       4.905   7.988  17.596  0.00  0.00    +0.000 NA
ATOM      4  C   UNL     1       3.584   7.705  17.881  0.00  0.00    +0.000 A 
ATOM      5  C   UNL     1       3.146   6.453  18.080  0.00  0.00    +0.000 A 
ATOM      6  N   UNL     1       4.060   5.417  18.025  0.00  0.00    +0.000 N 
ATOM      7  C   UNL     1       3.947   4.067  18.233  0.00  0.00    +0.000 A 
ATOM      8  C   UNL     1       5.239   3.589  18.168  0.00  0.00    +0.000 A 
ATOM      9  N   UNL     1       6.136   4.594  17.878  0.00  0.00    +0.000 NA
ATOM     10  C   UNL     1       5.387   5.671  17.800  0.00  0.00    +0.000 A 
ATOM     11  H   UNL     1       7.748   6.497  17.520  0.00  0.00    +0.000 HD
ENDROOT
BRANCH   1  15
ATOM     12  C   UNL     1       8.956  10.922  18.786  0.00  0.00    +0.000 A 
ATOM     13  C   UNL     1       9.248   9.670  19.353  0.00  0.00    +0.000 A 
ATOM     14  C   UNL     1       8.738   8.486  18.817  0.00  0.00    +0.000 A 
ATOM     15  C   UNL     1       7.781   8.526  17.808  0.00  0.00    +0.000 A 
ATOM     16  C   UNL     1       7.466   9.779  17.263  0.00  0.00    +0.000 A 
ATOM     17  C   UNL     1       8.044  10.967  17.731  0.00  0.00    +0.000 A 
ATOM     18 CL   UNL     1       7.566  12.416  16.911  0.00  0.00    +0.000 Cl
BRANCH  12  24
ATOM     19  C   UNL     1       9.885  15.519  17.953  0.00  0.00    +0.000 C 
ATOM     20  C   UNL     1      11.321  15.056  18.272  0.00  0.00    +0.000 C 
ATOM     21  C   UNL     1      12.115  16.246  18.826  0.00  0.00    +0.000 C 
ATOM     22  C   UNL     1      11.290  13.919  19.337  0.00  0.00    +0.000 C 
ATOM     23  N   UNL     1      10.732  12.686  18.771  0.00  0.00    +0.000 N 
ATOM     24  C   UNL     1       9.573  12.159  19.346  0.00  0.00    +0.000 C 
ATOM     25  O   UNL     1       9.050  12.676  20.327  0.00  0.00    +0.000 OA
ATOM     26  C   UNL     1      11.413  12.262  17.541  0.00  0.00    +0.000 C 
ATOM     27  C   UNL     1      11.485  13.379  16.500  0.00  0.00    +0.000 C 
ATOM     28  N   UNL     1      12.025  14.629  17.034  0.00  0.00    +0.000 NA
ATOM     29  H   UNL     1      11.945  15.356  16.325  0.00  0.00    +0.000 HD
ENDBRANCH  12  24
ENDBRANCH   1  15
BRANCH   7  30
ATOM     30  C   UNL     1       2.705   3.319  18.505  0.00  0.00    +0.000 A 
ATOM     31  C   UNL     1       1.747   3.514  19.518  0.00  0.00    +0.000 A 
ATOM     32  N   UNL     1       0.778   2.595  19.485  0.00  0.00    +0.000 NA
ATOM     33  N   UNL     1       1.117   1.820  18.442  0.00  0.00    +0.000 N 
ATOM     34  C   UNL     1       2.252   2.229  17.800  0.00  0.00    +0.000 A 
ATOM     35  H   UNL     1       0.530   1.020  18.231  0.00  0.00    +0.000 HD
ENDBRANCH   7  30
BRANCH   4  36
ATOM     36  C   UNL     1       2.711   8.892  17.894  0.00  0.00    +0.000 C 
ATOM     37  C   UNL     1       1.225   8.795  17.654  0.00  0.00    +0.000 C 
ATOM     38  C   UNL     1       1.739   9.046  19.041  0.00  0.00    +0.000 C 
ENDBRANCH   4  36
TORSDOF 4
ENDMDL
MODEL 6
REMARK VINA RESULT:      -8.1      2.306      2.807
REMARK  Name = 
REMARK  6 active torsions:
REMARK  status: ('A' for Active; 'I' for Inactive)
REMARK    1  A    between atoms: C_1  and  C_2
REMARK    2  A    between atoms: C_2  and  C_3
REMARK    3  A    between atoms: C_6  and  C_8
REMARK    4  A    between atoms: C_11  and  N_12
REMARK    5  A    between atoms: C_15  and  C_16
REMARK    6  A    between atoms: C_21  and  C_22
REMARK                            x       y       z     vdW  Elec       q    Type
REMARK                         _______ _______ _______ _____ _____    ______ ____
ROOT
ATOM      1  N   UNL     1       1.328  10.509  20.327  0.00  0.00    +0.000 N 
ATOM      2  C   UNL     1       0.521  11.445  19.698  0.00  0.00    +0.000 A 
ATOM      3  N   UNL     1      -0.488  11.091  18.930  0.00  0.00    +0.000 NA
ATOM      4  C   UNL     1      -1.215  12.030  18.226  0.00  0.00    +0.000 A 
ATOM      5  C   UNL     1      -0.990  13.347  18.344  0.00  0.00    +0.000 A 
ATOM      6  N   UNL     1       0.025  13.771  19.182  0.00  0.00    +0.000 N 
ATOM      7  C   UNL     1       0.532  15.011  19.472  0.00  0.00    +0.000 A 
ATOM      8  C   UNL     1       1.629  14.767  20.273  0.00  0.00    +0.000 A 
ATOM      9  N   UNL     1       1.783  13.420  20.522  0.00  0.00    +0.000 NA
ATOM     10  C   UNL     1       0.801  12.861  19.851  0.00  0.00    +0.000 A 
ATOM     11  H   UNL     1       2.117  10.939  20.802  0.00  0.00    +0.000 HD
ENDROOT
BRANCH   1  15
ATOM     12  C   UNL     1       1.985   6.651  18.667  0.00  0.00    +0.000 A 
ATOM     13  C   UNL     1       1.995   7.818  17.886  0.00  0.00    +0.000 A 
ATOM     14  C   UNL     1       1.890   9.086  18.461  0.00  0.00    +0.000 A 
ATOM     15  C   UNL     1       1.592   9.221  19.814  0.00  0.00    +0.000 A 
ATOM     16  C   UNL     1       1.549   8.053  20.588  0.00  0.00    +0.000 A 
ATOM     17  C   UNL     1       1.749   6.779  20.036  0.00  0.00    +0.000 A 
ATOM     18 CL   UNL     1       1.701   5.455  21.151  0.00  0.00    +0.000 Cl
BRANCH  12  24
ATOM     19  C   UNL     1       2.612   1.998  19.476  0.00  0.00    +0.000 C 
ATOM     20  C   UNL     1       3.838   2.234  18.572  0.00  0.00    +0.000 C 
ATOM     21  C   UNL     1       4.189   0.922  17.859  0.00  0.00    +0.000 C 
ATOM     22  C   UNL     1       3.514   3.326  17.508  0.00  0.00    +0.000 C 
ATOM     23  N   UNL     1       3.387   4.646  18.135  0.00  0.00    +0.000 N 
ATOM     24  C   UNL     1       2.167   5.318  18.023  0.00  0.00    +0.000 C 
ATOM     25  O   UNL     1       1.232   4.849  17.383  0.00  0.00    +0.000 OA
ATOM     26  C   UNL     1       4.555   5.008  18.949  0.00  0.00    +0.000 C 
ATOM     27  C   UNL     1       4.908   3.929  19.972  0.00  0.00    +0.000 C 
ATOM     28  N   UNL     1       5.030   2.596  19.383  0.00  0.00    +0.000 NA
ATOM     29  H   UNL     1       5.159   1.913  20.129  0.00  0.00    +0.000 HD
ENDBRANCH  12  24
ENDBRANCH   1  15
BRANCH   7  30
ATOM     30  C   UNL     1       0.020  16.307  18.989  0.00  0.00    +0.000 A 
ATOM     31  C   UNL     1      -1.237  16.906  19.195  0.00  0.00    +0.000 A 
ATOM     32  N   UNL     1      -1.361  18.066  18.545  0.00  0.00    +0.000 NA
ATOM     33  N   UNL     1      -0.174  18.209  17.932  0.00  0.00    +0.000 N 
ATOM     34  C   UNL     1       0.703  17.194  18.190  0.00  0.00    +0.000 A 
ATOM     35  H   UNL     1      -0.035  19.024  17.345  0.00  0.00    +0.000 HD
ENDBRANCH   7  30
BRANCH   4  36
ATOM     36  C   UNL     1      -2.276  11.451  17.384  0.00  0.00    +0.000 C 
ATOM     37  C   UNL     1      -2.792  10.050  17.596  0.00  0.00    +0.000 C 
ATOM     38  C   UNL     1      -3.633  11.222  18.008  0.00  0.00    +0.000 C 
ENDBRANCH   4  36
TORSDOF 4
ENDMDL
MODEL 7
REMARK VINA RESULT:      -8.0      6.535      8.820
REMARK  Name = 
REMARK  6 active torsions:
REMARK  status: ('A' for Active; 'I' for Inactive)
REMARK    1  A    between atoms: C_1  and  C_2
REMARK    2  A    between atoms: C_2  and  C_3
REMARK    3  A    between atoms: C_6  and  C_8
REMARK    4  A    between atoms: C_11  and  N_12
REMARK    5  A    between atoms: C_15  and  C_16
REMARK    6  A    between atoms: C_21  and  C_22
REMARK                            x       y       z     vdW  Elec       q    Type
REMARK                         _______ _______ _______ _____ _____    ______ ____
ROOT
ATOM      1  N   UNL     1       9.107  10.019  18.093  0.00  0.00    +0.000 N 
ATOM      2  C   UNL     1       9.087  11.011  19.062  0.00  0.00    +0.000 A 
ATOM      3  N   UNL     1       8.895  10.736  20.335  0.00  0.00    +0.000 NA
ATOM      4  C   UNL     1       8.773  11.742  21.273  0.00  0.00    +0.000 A 
ATOM      5  C   UNL     1       8.921  13.038  20.958  0.00  0.00    +0.000 A 
ATOM      6  N   UNL     1       9.179  13.372  19.642  0.00  0.00    +0.000 N 
ATOM      7  C   UNL     1       9.324  14.575  19.001  0.00  0.00    +0.000 A 
ATOM      8  C   UNL     1       9.427  14.253  17.663  0.00  0.00    +0.000 A 
ATOM      9  N   UNL     1       9.399  12.890  17.467  0.00  0.00    +0.000 NA
ATOM     10  C   UNL     1       9.250  12.401  18.678  0.00  0.00    +0.000 A 
ATOM     11  H   UNL     1       9.168  10.401  17.154  0.00  0.00    +0.000 HD
ENDROOT
BRANCH   1  15
ATOM     12  C   UNL     1       7.063   6.298  18.327  0.00  0.00    +0.000 A 
ATOM     13  C   UNL     1       8.153   6.611  19.155  0.00  0.00    +0.000 A 
ATOM     14  C   UNL     1       8.742   7.877  19.144  0.00  0.00    +0.000 A 
ATOM     15  C   UNL     1       8.377   8.814  18.182  0.00  0.00    +0.000 A 
ATOM     16  C   UNL     1       7.310   8.488  17.333  0.00  0.00    +0.000 A 
ATOM     17  C   UNL     1       6.648   7.254  17.399  0.00  0.00    +0.000 A 
ATOM     18 CL   UNL     1       5.326   7.043  16.300  0.00  0.00    +0.000 Cl
BRANCH  12  24
ATOM     19  C   UNL     1       3.405   3.640  16.826  0.00  0.00    +0.000 C 
ATOM     20  C   UNL     1       3.192   3.476  18.344  0.00  0.00    +0.000 C 
ATOM     21  C   UNL     1       2.485   2.139  18.605  0.00  0.00    +0.000 C 
ATOM     22  C   UNL     1       4.566   3.481  19.080  0.00  0.00    +0.000 C 
ATOM     23  N   UNL     1       5.176   4.814  19.039  0.00  0.00    +0.000 N 
ATOM     24  C   UNL     1       6.418   4.955  18.414  0.00  0.00    +0.000 C 
ATOM     25  O   UNL     1       7.016   3.992  17.947  0.00  0.00    +0.000 OA
ATOM     26  C   UNL     1       4.284   5.867  19.542  0.00  0.00    +0.000 C 
ATOM     27  C   UNL     1       2.918   5.851  18.857  0.00  0.00    +0.000 C 
ATOM     28  N   UNL     1       2.286   4.532  18.867  0.00  0.00    +0.000 NA
ATOM     29  H   UNL     1       1.436   4.566  18.305  0.00  0.00    +0.000 HD
ENDBRANCH  12  24
ENDBRANCH   1  15
BRANCH   7  30
ATOM     30  C   UNL     1       9.325  15.911  19.626  0.00  0.00    +0.000 A 
ATOM     31  C   UNL     1       8.314  16.891  19.645  0.00  0.00    +0.000 A 
ATOM     32  N   UNL     1       8.702  18.010  20.262  0.00  0.00    +0.000 NA
ATOM     33  N   UNL     1       9.961  17.736  20.643  0.00  0.00    +0.000 N 
ATOM     34  C   UNL     1      10.374  16.477  20.311  0.00  0.00    +0.000 A 
ATOM     35  H   UNL     1      10.483  18.463  21.121  0.00  0.00    +0.000 HD
ENDBRANCH   7  30
BRANCH   4  36
ATOM     36  C   UNL     1       8.515  11.254  22.639  0.00  0.00    +0.000 C 
ATOM     37  C   UNL     1       8.560  12.168  23.838  0.00  0.00    +0.000 C 
ATOM     38  C   UNL     1       7.237  11.686  23.319  0.00  0.00    +0.000 C 
ENDBRANCH   4  36
TORSDOF 4
ENDMDL
MODEL 8
REMARK VINA RESULT:      -7.6      2.853      4.377
REMARK  Name = 
REMARK  6 active torsions:
REMARK  status: ('A' for Active; 'I' for Inactive)
REMARK    1  A    between atoms: C_1  and  C_2
REMARK    2  A    between atoms: C_2  and  C_3
REMARK    3  A    between atoms: C_6  and  C_8
REMARK    4  A    between atoms: C_11  and  N_12
REMARK    5  A    between atoms: C_15  and  C_16
REMARK    6  A    between atoms: C_21  and  C_22
REMARK                            x       y       z     vdW  Elec       q    Type
REMARK                         _______ _______ _______ _____ _____    ______ ____
ROOT
ATOM      1  N   UNL     1      -0.437  10.436  17.858  0.00  0.00    +0.000 N 
ATOM      2  C   UNL     1      -1.292  11.112  18.716  0.00  0.00    +0.000 A 
ATOM      3  N   UNL     1      -0.954  11.392  19.957  0.00  0.00    +0.000 NA
ATOM      4  C   UNL     1      -1.853  11.970  20.830  0.00  0.00    +0.000 A 
ATOM      5  C   UNL     1      -3.083  12.348  20.448  0.00  0.00    +0.000 A 
ATOM      6  N   UNL     1      -3.465  12.123  19.138  0.00  0.00    +0.000 N 
ATOM      7  C   UNL     1      -4.639  12.335  18.464  0.00  0.00    +0.000 A 
ATOM      8  C   UNL     1      -4.440  11.776  17.219  0.00  0.00    +0.000 A 
ATOM      9  N   UNL     1      -3.164  11.271  17.090  0.00  0.00    +0.000 NA
ATOM     10  C   UNL     1      -2.615  11.501  18.262  0.00  0.00    +0.000 A 
ATOM     11  H   UNL     1      -0.881  10.212  16.971  0.00  0.00    +0.000 HD
ENDROOT
BRANCH   1  15
ATOM     12  C   UNL     1       2.365   7.462  19.033  0.00  0.00    +0.000 A 
ATOM     13  C   UNL     1       2.130   7.786  17.686  0.00  0.00    +0.000 A 
ATOM     14  C   UNL     1       1.292   8.840  17.321  0.00  0.00    +0.000 A 
ATOM     15  C   UNL     1       0.521   9.491  18.280  0.00  0.00    +0.000 A 
ATOM     16  C   UNL     1       0.732   9.145  19.623  0.00  0.00    +0.000 A 
ATOM     17  C   UNL     1       1.643   8.152  20.008  0.00  0.00    +0.000 A 
ATOM     18 CL   UNL     1       1.801   7.888  21.712  0.00  0.00    +0.000 Cl
BRANCH  12  24
ATOM     19  C   UNL     1       3.946   3.139  17.809  0.00  0.00    +0.000 C 
ATOM     20  C   UNL     1       3.570   2.832  19.272  0.00  0.00    +0.000 C 
ATOM     21  C   UNL     1       4.447   1.680  19.780  0.00  0.00    +0.000 C 
ATOM     22  C   UNL     1       3.812   4.090  20.160  0.00  0.00    +0.000 C 
ATOM     23  N   UNL     1       2.840   5.144  19.850  0.00  0.00    +0.000 N 
ATOM     24  C   UNL     1       3.319   6.372  19.385  0.00  0.00    +0.000 C 
ATOM     25  O   UNL     1       4.520   6.593  19.277  0.00  0.00    +0.000 OA
ATOM     26  C   UNL     1       1.448   4.680  19.929  0.00  0.00    +0.000 C 
ATOM     27  C   UNL     1       1.204   3.424  19.093  0.00  0.00    +0.000 C 
ATOM     28  N   UNL     1       2.165   2.356  19.367  0.00  0.00    +0.000 NA
ATOM     29  H   UNL     1       2.015   1.595  18.706  0.00  0.00    +0.000 HD
ENDBRANCH  12  24
ENDBRANCH   1  15
BRANCH   7  30
ATOM     30  C   UNL     1      -5.852  12.987  18.993  0.00  0.00    +0.000 A 
ATOM     31  C   UNL     1      -5.984  14.205  19.686  0.00  0.00    +0.000 A 
ATOM     32  N   UNL     1      -7.243  14.443  20.063  0.00  0.00    +0.000 NA
ATOM     33  N   UNL     1      -7.914  13.376  19.600  0.00  0.00    +0.000 N 
ATOM     34  C   UNL     1      -7.130  12.485  18.923  0.00  0.00    +0.000 A 
ATOM     35  H   UNL     1      -8.909  13.319  19.790  0.00  0.00    +0.000 HD
ENDBRANCH   7  30
BRANCH   4  36
ATOM     36  C   UNL     1      -1.319  12.170  22.188  0.00  0.00    +0.000 C 
ATOM     37  C   UNL     1      -2.174  11.997  23.419  0.00  0.00    +0.000 C 
ATOM     38  C   UNL     1      -1.151  10.957  23.072  0.00  0.00    +0.000 C 
ENDBRANCH   4  36
TORSDOF 4
ENDMDL
MODEL 9
REMARK VINA RESULT:      -7.5      4.175      9.920
REMARK  Name = 
REMARK  6 active torsions:
REMARK  status: ('A' for Active; 'I' for Inactive)
REMARK    1  A    between atoms: C_1  and  C_2
REMARK    2  A    between atoms: C_2  and  C_3
REMARK    3  A    between atoms: C_6  and  C_8
REMARK    4  A    between atoms: C_11  and  N_12
REMARK    5  A    between atoms: C_15  and  C_16
REMARK    6  A    between atoms: C_21  and  C_22
REMARK                            x       y       z     vdW  Elec       q    Type
REMARK                         _______ _______ _______ _____ _____    ______ ____
ROOT
ATOM      1  N   UNL     1       2.009  10.006  17.463  0.00  0.00    +0.000 N 
ATOM      2  C   UNL     1       2.062   8.879  18.271  0.00  0.00    +0.000 A 
ATOM      3  N   UNL     1       1.450   8.827  19.435  0.00  0.00    +0.000 NA
ATOM      4  C   UNL     1       1.598   7.741  20.274  0.00  0.00    +0.000 A 
ATOM      5  C   UNL     1       2.302   6.654  19.921  0.00  0.00    +0.000 A 
ATOM      6  N   UNL     1       2.919   6.639  18.684  0.00  0.00    +0.000 N 
ATOM      7  C   UNL     1       3.734   5.728  18.064  0.00  0.00    +0.000 A 
ATOM      8  C   UNL     1       4.138   6.349  16.900  0.00  0.00    +0.000 A 
ATOM      9  N   UNL     1       3.559   7.592  16.762  0.00  0.00    +0.000 NA
ATOM     10  C   UNL     1       2.836   7.725  17.852  0.00  0.00    +0.000 A 
ATOM     11  H   UNL     1       2.610   9.923  16.648  0.00  0.00    +0.000 HD
ENDROOT
BRANCH   1  15
ATOM     12  C   UNL     1       1.748  13.942  19.050  0.00  0.00    +0.000 A 
ATOM     13  C   UNL     1       2.916  13.450  18.443  0.00  0.00    +0.000 A 
ATOM     14  C   UNL     1       2.951  12.197  17.828  0.00  0.00    +0.000 A 
ATOM     15  C   UNL     1       1.876  11.323  17.953  0.00  0.00    +0.000 A 
ATOM     16  C   UNL     1       0.721  11.802  18.587  0.00  0.00    +0.000 A 
ATOM     17  C   UNL     1       0.642  13.095  19.125  0.00  0.00    +0.000 A 
ATOM     18 CL   UNL     1      -0.877  13.528  19.835  0.00  0.00    +0.000 Cl
BRANCH  12  24
ATOM     19  C   UNL     1       4.455  17.475  20.747  0.00  0.00    +0.000 C 
ATOM     20  C   UNL     1       3.531  17.297  21.968  0.00  0.00    +0.000 C 
ATOM     21  C   UNL     1       3.440  18.630  22.722  0.00  0.00    +0.000 C 
ATOM     22  C   UNL     1       2.105  16.875  21.500  0.00  0.00    +0.000 C 
ATOM     23  N   UNL     1       2.111  15.507  20.969  0.00  0.00    +0.000 N 
ATOM     24  C   UNL     1       1.731  15.312  19.638  0.00  0.00    +0.000 C 
ATOM     25  O   UNL     1       1.355  16.243  18.934  0.00  0.00    +0.000 OA
ATOM     26  C   UNL     1       2.689  14.533  21.904  0.00  0.00    +0.000 C 
ATOM     27  C   UNL     1       4.072  14.952  22.402  0.00  0.00    +0.000 C 
ATOM     28  N   UNL     1       4.105  16.317  22.927  0.00  0.00    +0.000 NA
ATOM     29  H   UNL     1       5.069  16.568  23.140  0.00  0.00    +0.000 HD
ENDBRANCH  12  24
ENDBRANCH   1  15
BRANCH   7  30
ATOM     30  C   UNL     1       4.112   4.396  18.572  0.00  0.00    +0.000 A 
ATOM     31  C   UNL     1       3.421   3.173  18.477  0.00  0.00    +0.000 A 
ATOM     32  N   UNL     1       4.051   2.182  19.115  0.00  0.00    +0.000 NA
ATOM     33  N   UNL     1       5.149   2.777  19.609  0.00  0.00    +0.000 N 
ATOM     34  C   UNL     1       5.249   4.101  19.287  0.00  0.00    +0.000 A 
ATOM     35  H   UNL     1       5.785   2.217  20.167  0.00  0.00    +0.000 HD
ENDBRANCH   7  30
BRANCH   4  36
ATOM     36  C   UNL     1       0.879   7.874  21.552  0.00  0.00    +0.000 C 
ATOM     37  C   UNL     1       0.898   9.152  22.352  0.00  0.00    +0.000 C 
ATOM     38  C   UNL     1      -0.338   8.769  21.593  0.00  0.00    +0.000 C 
ENDBRANCH   4  36
TORSDOF 4
ENDMDL
