MODEL 1
REMARK VINA RESULT:      -8.8      0.000      0.000
REMARK  Name = 
REMARK  2 active torsions:
REMARK  status: ('A' for Active; 'I' for Inactive)
REMARK    1  A    between atoms: C_8  and  C_9
REMARK    2  A    between atoms: C_22  and  O_23
REMARK                            x       y       z     vdW  Elec       q    Type
REMARK                         _______ _______ _______ _____ _____    ______ ____
ROOT
ATOM      1  O   UNL     1       5.048   3.218  18.634  0.00  0.00    +0.000 OA
ATOM      2  C   UNL     1       4.212   4.046  18.969  0.00  0.00    +0.000 C 
ATOM      3  N   UNL     1       3.395   3.845  20.047  0.00  0.00    +0.000 N 
ATOM      4  C   UNL     1       2.606   4.894  20.420  0.00  0.00    +0.000 C 
ATOM      5  O   UNL     1       1.899   4.857  21.415  0.00  0.00    +0.000 OA
ATOM      6  C   UNL     1       2.877   5.868  19.412  0.00  0.00    +0.000 A 
ATOM      7  C   UNL     1       3.835   5.354  18.478  0.00  0.00    +0.000 A 
ATOM      8  C   UNL     1       4.295   6.042  17.332  0.00  0.00    +0.000 A 
ATOM      9  C   UNL     1       3.786   7.349  17.157  0.00  0.00    +0.000 A 
ATOM     10  C   UNL     1       2.889   7.866  18.086  0.00  0.00    +0.000 A 
ATOM     11  N   UNL     1       2.261   9.087  18.171  0.00  0.00    +0.000 N 
ATOM     12  C   UNL     1       1.431   9.142  19.280  0.00  0.00    +0.000 A 
ATOM     13  C   UNL     1       0.622  10.196  19.724  0.00  0.00    +0.000 A 
ATOM     14  C   UNL     1      -0.132  10.003  20.882  0.00  0.00    +0.000 A 
ATOM     15  C   UNL     1      -0.065   8.794  21.562  0.00  0.00    +0.000 A 
ATOM     16  C   UNL     1       0.746   7.743  21.121  0.00  0.00    +0.000 A 
ATOM     17  C   UNL     1       1.517   7.908  19.954  0.00  0.00    +0.000 A 
ATOM     18  C   UNL     1       2.422   7.184  19.173  0.00  0.00    +0.000 A 
ATOM     19  H   UNL     1       3.450   3.008  20.602  0.00  0.00    +0.000 HD
ATOM     20  H   UNL     1       2.386   9.846  17.518  0.00  0.00    +0.000 HD
ENDROOT
BRANCH   8  21
ATOM     21  C   UNL     1       5.237   5.466  16.347  0.00  0.00    +0.000 A 
ATOM     22  C   UNL     1       6.631   5.598  16.536  0.00  0.00    +0.000 A 
ATOM     23  C   UNL     1       7.557   5.142  15.591  0.00  0.00    +0.000 A 
ATOM     24  C   UNL     1       7.114   4.504  14.441  0.00  0.00    +0.000 A 
ATOM     25  C   UNL     1       5.748   4.350  14.232  0.00  0.00    +0.000 A 
ATOM     26 CL   UNL     1       5.191   3.544  12.816  0.00  0.00    +0.000 Cl
ATOM     27  C   UNL     1       4.822   4.851  15.154  0.00  0.00    +0.000 A 
ENDBRANCH   8  21
BRANCH  15  28
ATOM     28  O   UNL     1      -0.801   8.586  22.694  0.00  0.00    +0.000 OA
ATOM     29  H   UNL     1      -0.932   9.438  23.143  0.00  0.00    +0.000 HD
ENDBRANCH  15  28
TORSDOF 2
ENDMDL
MODEL 2
REMARK VINA RESULT:      -7.6      2.225      3.533
REMARK  Name = 
REMARK  2 active torsions:
REMARK  status: ('A' for Active; 'I' for Inactive)
REMARK    1  A    between atoms: C_8  and  C_9
REMARK    2  A    between atoms: C_22  and  O_23
REMARK                            x       y       z     vdW  Elec       q    Type
REMARK                         _______ _______ _______ _____ _____    ______ ____
ROOT
ATOM      1  O   UNL     1       2.356   5.222  20.794  0.00  0.00    +0.000 OA
ATOM      2  C   UNL     1       1.904   6.350  20.650  0.00  0.00    +0.000 C 
ATOM      3  N   UNL     1       1.093   6.922  21.590  0.00  0.00    +0.000 N 
ATOM      4  C   UNL     1       0.769   8.234  21.401  0.00  0.00    +0.000 C 
ATOM      5  O   UNL     1       0.119   8.871  22.217  0.00  0.00    +0.000 OA
ATOM      6  C   UNL     1       1.371   8.530  20.141  0.00  0.00    +0.000 A 
ATOM      7  C   UNL     1       2.044   7.371  19.635  0.00  0.00    +0.000 A 
ATOM      8  C   UNL     1       2.709   7.303  18.389  0.00  0.00    +0.000 A 
ATOM      9  C   UNL     1       2.733   8.501  17.641  0.00  0.00    +0.000 A 
ATOM     10  C   UNL     1       2.117   9.640  18.151  0.00  0.00    +0.000 A 
ATOM     11  N   UNL     1       2.002  10.918  17.655  0.00  0.00    +0.000 N 
ATOM     12  C   UNL     1       1.277  11.722  18.520  0.00  0.00    +0.000 A 
ATOM     13  C   UNL     1       0.937  13.076  18.389  0.00  0.00    +0.000 A 
ATOM     14  C   UNL     1       0.188  13.667  19.407  0.00  0.00    +0.000 A 
ATOM     15  C   UNL     1      -0.197  12.918  20.511  0.00  0.00    +0.000 A 
ATOM     16  C   UNL     1       0.146  11.567  20.644  0.00  0.00    +0.000 A 
ATOM     17  C   UNL     1       0.899  10.944  19.631  0.00  0.00    +0.000 A 
ATOM     18  C   UNL     1       1.447   9.691  19.338  0.00  0.00    +0.000 A 
ATOM     19  H   UNL     1       0.835   6.437  22.432  0.00  0.00    +0.000 HD
ATOM     20  H   UNL     1       2.395  11.235  16.781  0.00  0.00    +0.000 HD
ENDROOT
BRANCH   8  21
ATOM     21  C   UNL     1       3.343   6.075  17.859  0.00  0.00    +0.000 A 
ATOM     22  C   UNL     1       2.565   4.920  17.620  0.00  0.00    +0.000 A 
ATOM     23  C   UNL     1       3.133   3.714  17.197  0.00  0.00    +0.000 A 
ATOM     24  C   UNL     1       4.500   3.637  16.963  0.00  0.00    +0.000 A 
ATOM     25  C   UNL     1       5.290   4.760  17.180  0.00  0.00    +0.000 A 
ATOM     26 CL   UNL     1       6.983   4.679  16.875  0.00  0.00    +0.000 Cl
ATOM     27  C   UNL     1       4.727   5.952  17.651  0.00  0.00    +0.000 A 
ENDBRANCH   8  21
BRANCH  15  28
ATOM     28  O   UNL     1      -0.935  13.478  21.515  0.00  0.00    +0.000 OA
ATOM     29  H   UNL     1      -1.682  13.959  21.123  0.00  0.00    +0.000 HD
ENDBRANCH  15  28
TORSDOF 2
ENDMDL
MODEL 3
REMARK VINA RESULT:      -7.6      3.449      4.973
REMARK  Name = 
REMARK  2 active torsions:
REMARK  status: ('A' for Active; 'I' for Inactive)
REMARK    1  A    between atoms: C_8  and  C_9
REMARK    2  A    between atoms: C_22  and  O_23
REMARK                            x       y       z     vdW  Elec       q    Type
REMARK                         _______ _______ _______ _____ _____    ______ ____
ROOT
ATOM      1  O   UNL     1       2.923   7.988  16.980  0.00  0.00    +0.000 OA
ATOM      2  C   UNL     1       2.381   8.717  17.800  0.00  0.00    +0.000 C 
ATOM      3  N   UNL     1       2.165  10.044  17.548  0.00  0.00    +0.000 N 
ATOM      4  C   UNL     1       1.422  10.727  18.466  0.00  0.00    +0.000 C 
ATOM      5  O   UNL     1       1.097  11.894  18.305  0.00  0.00    +0.000 OA
ATOM      6  C   UNL     1       1.199   9.750  19.483  0.00  0.00    +0.000 A 
ATOM      7  C   UNL     1       1.817   8.511  19.116  0.00  0.00    +0.000 A 
ATOM      8  C   UNL     1       1.826   7.345  19.916  0.00  0.00    +0.000 A 
ATOM      9  C   UNL     1       1.121   7.435  21.137  0.00  0.00    +0.000 A 
ATOM     10  C   UNL     1       0.483   8.625  21.475  0.00  0.00    +0.000 A 
ATOM     11  N   UNL     1      -0.271   8.980  22.569  0.00  0.00    +0.000 N 
ATOM     12  C   UNL     1      -0.692  10.297  22.475  0.00  0.00    +0.000 A 
ATOM     13  C   UNL     1      -1.473  11.039  23.371  0.00  0.00    +0.000 A 
ATOM     14  C   UNL     1      -1.763  12.365  23.048  0.00  0.00    +0.000 A 
ATOM     15  C   UNL     1      -1.283  12.914  21.866  0.00  0.00    +0.000 A 
ATOM     16  C   UNL     1      -0.506  12.172  20.970  0.00  0.00    +0.000 A 
ATOM     17  C   UNL     1      -0.196  10.831  21.270  0.00  0.00    +0.000 A 
ATOM     18  C   UNL     1       0.507   9.757  20.715  0.00  0.00    +0.000 A 
ATOM     19  H   UNL     1       2.446  10.469  16.681  0.00  0.00    +0.000 HD
ATOM     20  H   UNL     1      -0.495   8.367  23.339  0.00  0.00    +0.000 HD
ENDROOT
BRANCH   8  21
ATOM     21  C   UNL     1       2.525   6.095  19.544  0.00  0.00    +0.000 A 
ATOM     22  C   UNL     1       3.937   6.034  19.579  0.00  0.00    +0.000 A 
ATOM     23  C   UNL     1       4.643   4.902  19.159  0.00  0.00    +0.000 A 
ATOM     24  C   UNL     1       3.953   3.778  18.724  0.00  0.00    +0.000 A 
ATOM     25  C   UNL     1       2.564   3.805  18.688  0.00  0.00    +0.000 A 
ATOM     26 CL   UNL     1       1.701   2.409  18.167  0.00  0.00    +0.000 Cl
ATOM     27  C   UNL     1       1.860   4.956  19.061  0.00  0.00    +0.000 A 
ENDBRANCH   8  21
BRANCH  15  28
ATOM     28  O   UNL     1      -1.552  14.212  21.536  0.00  0.00    +0.000 OA
ATOM     29  H   UNL     1      -0.822  14.555  20.995  0.00  0.00    +0.000 HD
ENDBRANCH  15  28
TORSDOF 2
ENDMDL
MODEL 4
REMARK VINA RESULT:      -7.5      3.490      5.198
REMARK  Name = 
REMARK  2 active torsions:
REMARK  status: ('A' for Active; 'I' for Inactive)
REMARK    1  A    between atoms: C_8  and  C_9
REMARK    2  A    between atoms: C_22  and  O_23
REMARK                            x       y       z     vdW  Elec       q    Type
REMARK                         _______ _______ _______ _____ _____    ______ ____
ROOT
ATOM      1  O   UNL     1       2.844   8.054  17.085  0.00  0.00    +0.000 OA
ATOM      2  C   UNL     1       2.288   8.796  17.885  0.00  0.00    +0.000 C 
ATOM      3  N   UNL     1       2.044  10.109  17.595  0.00  0.00    +0.000 N 
ATOM      4  C   UNL     1       1.288  10.803  18.494  0.00  0.00    +0.000 C 
ATOM      5  O   UNL     1       0.938  11.958  18.299  0.00  0.00    +0.000 OA
ATOM      6  C   UNL     1       1.085   9.851  19.539  0.00  0.00    +0.000 A 
ATOM      7  C   UNL     1       1.729   8.615  19.207  0.00  0.00    +0.000 A 
ATOM      8  C   UNL     1       1.763   7.474  20.040  0.00  0.00    +0.000 A 
ATOM      9  C   UNL     1       1.057   7.584  21.259  0.00  0.00    +0.000 A 
ATOM     10  C   UNL     1       0.395   8.769  21.564  0.00  0.00    +0.000 A 
ATOM     11  N   UNL     1      -0.366   9.140  22.648  0.00  0.00    +0.000 N 
ATOM     12  C   UNL     1      -0.814  10.445  22.516  0.00  0.00    +0.000 A 
ATOM     13  C   UNL     1      -1.610  11.196  23.391  0.00  0.00    +0.000 A 
ATOM     14  C   UNL     1      -1.928  12.506  23.030  0.00  0.00    +0.000 A 
ATOM     15  C   UNL     1      -1.460  13.030  21.833  0.00  0.00    +0.000 A 
ATOM     16  C   UNL     1      -0.668  12.279  20.957  0.00  0.00    +0.000 A 
ATOM     17  C   UNL     1      -0.331  10.954  21.296  0.00  0.00    +0.000 A 
ATOM     18  C   UNL     1       0.394   9.880  20.771  0.00  0.00    +0.000 A 
ATOM     19  H   UNL     1       2.315  10.516  16.716  0.00  0.00    +0.000 HD
ATOM     20  H   UNL     1      -0.576   8.545  23.435  0.00  0.00    +0.000 HD
ENDROOT
BRANCH   8  21
ATOM     21  C   UNL     1       2.488   6.228  19.704  0.00  0.00    +0.000 A 
ATOM     22  C   UNL     1       1.798   4.996  19.655  0.00  0.00    +0.000 A 
ATOM     23  C   UNL     1       2.456   3.783  19.422  0.00  0.00    +0.000 A 
ATOM     24  C   UNL     1       3.826   3.772  19.193  0.00  0.00    +0.000 A 
ATOM     25  C   UNL     1       4.530   4.970  19.225  0.00  0.00    +0.000 A 
ATOM     26 CL   UNL     1       6.226   4.967  18.925  0.00  0.00    +0.000 Cl
ATOM     27  C   UNL     1       3.878   6.176  19.508  0.00  0.00    +0.000 A 
ENDBRANCH   8  21
BRANCH  15  28
ATOM     28  O   UNL     1      -1.756  14.313  21.466  0.00  0.00    +0.000 OA
ATOM     29  H   UNL     1      -2.386  14.289  20.727  0.00  0.00    +0.000 HD
ENDBRANCH  15  28
TORSDOF 2
ENDMDL
MODEL 5
REMARK VINA RESULT:      -7.4      2.415      3.827
REMARK  Name = 
REMARK  2 active torsions:
REMARK  status: ('A' for Active; 'I' for Inactive)
REMARK    1  A    between atoms: C_8  and  C_9
REMARK    2  A    between atoms: C_22  and  O_23
REMARK                            x       y       z     vdW  Elec       q    Type
REMARK                         _______ _______ _______ _____ _____    ______ ____
ROOT
ATOM      1  O   UNL     1       2.035   5.611  20.869  0.00  0.00    +0.000 OA
ATOM      2  C   UNL     1       1.588   6.742  20.724  0.00  0.00    +0.000 C 
ATOM      3  N   UNL     1       0.743   7.302  21.641  0.00  0.00    +0.000 N 
ATOM      4  C   UNL     1       0.427   8.616  21.457  0.00  0.00    +0.000 C 
ATOM      5  O   UNL     1      -0.252   9.243  22.257  0.00  0.00    +0.000 OA
ATOM      6  C   UNL     1       1.074   8.929  20.223  0.00  0.00    +0.000 A 
ATOM      7  C   UNL     1       1.764   7.775  19.727  0.00  0.00    +0.000 A 
ATOM      8  C   UNL     1       2.475   7.723  18.506  0.00  0.00    +0.000 A 
ATOM      9  C   UNL     1       2.525   8.931  17.774  0.00  0.00    +0.000 A 
ATOM     10  C   UNL     1       1.891  10.064  18.276  0.00  0.00    +0.000 A 
ATOM     11  N   UNL     1       1.795  11.348  17.793  0.00  0.00    +0.000 N 
ATOM     12  C   UNL     1       1.039  12.141  18.642  0.00  0.00    +0.000 A 
ATOM     13  C   UNL     1       0.704  13.496  18.517  0.00  0.00    +0.000 A 
ATOM     14  C   UNL     1      -0.081  14.075  19.515  0.00  0.00    +0.000 A 
ATOM     15  C   UNL     1      -0.506  13.311  20.594  0.00  0.00    +0.000 A 
ATOM     16  C   UNL     1      -0.169  11.959  20.721  0.00  0.00    +0.000 A 
ATOM     17  C   UNL     1       0.621  11.349  19.728  0.00  0.00    +0.000 A 
ATOM     18  C   UNL     1       1.179  10.100  19.439  0.00  0.00    +0.000 A 
ATOM     19  H   UNL     1       0.455   6.806  22.466  0.00  0.00    +0.000 HD
ATOM     20  H   UNL     1       2.219  11.676  16.938  0.00  0.00    +0.000 HD
ENDROOT
BRANCH   8  21
ATOM     21  C   UNL     1       3.127   6.502  17.982  0.00  0.00    +0.000 A 
ATOM     22  C   UNL     1       4.412   6.578  17.398  0.00  0.00    +0.000 A 
ATOM     23  C   UNL     1       5.032   5.467  16.817  0.00  0.00    +0.000 A 
ATOM     24  C   UNL     1       4.398   4.232  16.836  0.00  0.00    +0.000 A 
ATOM     25  C   UNL     1       3.138   4.124  17.413  0.00  0.00    +0.000 A 
ATOM     26 CL   UNL     1       2.352   2.592  17.456  0.00  0.00    +0.000 Cl
ATOM     27  C   UNL     1       2.497   5.247  17.949  0.00  0.00    +0.000 A 
ENDBRANCH   8  21
BRANCH  15  28
ATOM     28  O   UNL     1      -1.280  13.860  21.578  0.00  0.00    +0.000 OA
ATOM     29  H   UNL     1      -2.214  13.683  21.376  0.00  0.00    +0.000 HD
ENDBRANCH  15  28
TORSDOF 2
ENDMDL
MODEL 6
REMARK VINA RESULT:      -7.4      3.727      7.980
REMARK  Name = 
REMARK  2 active torsions:
REMARK  status: ('A' for Active; 'I' for Inactive)
REMARK    1  A    between atoms: C_8  and  C_9
REMARK    2  A    between atoms: C_22  and  O_23
REMARK                            x       y       z     vdW  Elec       q    Type
REMARK                         _______ _______ _______ _____ _____    ______ ____
ROOT
ATOM      1  O   UNL     1       1.220  11.298  18.631  0.00  0.00    +0.000 OA
ATOM      2  C   UNL     1       1.575  10.130  18.547  0.00  0.00    +0.000 C 
ATOM      3  N   UNL     1       2.265   9.666  17.461  0.00  0.00    +0.000 N 
ATOM      4  C   UNL     1       2.740   8.390  17.539  0.00  0.00    +0.000 C 
ATOM      5  O   UNL     1       3.440   7.899  16.665  0.00  0.00    +0.000 OA
ATOM      6  C   UNL     1       2.225   7.935  18.790  0.00  0.00    +0.000 A 
ATOM      7  C   UNL     1       1.465   8.977  19.414  0.00  0.00    +0.000 A 
ATOM      8  C   UNL     1       0.780   8.851  20.645  0.00  0.00    +0.000 A 
ATOM      9  C   UNL     1       0.920   7.606  21.299  0.00  0.00    +0.000 A 
ATOM     10  C   UNL     1       1.692   6.607  20.714  0.00  0.00    +0.000 A 
ATOM     11  N   UNL     1       2.007   5.333  21.128  0.00  0.00    +0.000 N 
ATOM     12  C   UNL     1       2.807   4.693  20.194  0.00  0.00    +0.000 A 
ATOM     13  C   UNL     1       3.342   3.398  20.233  0.00  0.00    +0.000 A 
ATOM     14  C   UNL     1       4.124   2.978  19.157  0.00  0.00    +0.000 A 
ATOM     15  C   UNL     1       4.355   3.835  18.089  0.00  0.00    +0.000 A 
ATOM     16  C   UNL     1       3.824   5.129  18.052  0.00  0.00    +0.000 A 
ATOM     17  C   UNL     1       3.030   5.580  19.124  0.00  0.00    +0.000 A 
ATOM     18  C   UNL     1       2.324   6.723  19.510  0.00  0.00    +0.000 A 
ATOM     19  H   UNL     1       2.504  10.267  16.691  0.00  0.00    +0.000 HD
ATOM     20  H   UNL     1       1.702   4.917  21.995  0.00  0.00    +0.000 HD
ENDROOT
BRANCH   8  21
ATOM     21  C   UNL     1      -0.051   9.921  21.240  0.00  0.00    +0.000 A 
ATOM     22  C   UNL     1      -0.204  10.004  22.642  0.00  0.00    +0.000 A 
ATOM     23  C   UNL     1      -1.044  10.947  23.245  0.00  0.00    +0.000 A 
ATOM     24  C   UNL     1      -1.731  11.864  22.460  0.00  0.00    +0.000 A 
ATOM     25  C   UNL     1      -1.592  11.812  21.077  0.00  0.00    +0.000 A 
ATOM     26 CL   UNL     1      -2.427  12.957  20.098  0.00  0.00    +0.000 Cl
ATOM     27  C   UNL     1      -0.791  10.837  20.473  0.00  0.00    +0.000 A 
ENDBRANCH   8  21
BRANCH  15  28
ATOM     28  O   UNL     1       5.114   3.438  17.024  0.00  0.00    +0.000 OA
ATOM     29  H   UNL     1       5.445   2.541  17.194  0.00  0.00    +0.000 HD
ENDBRANCH  15  28
TORSDOF 2
ENDMDL
MODEL 7
REMARK VINA RESULT:      -7.3      3.199      7.208
REMARK  Name = 
REMARK  2 active torsions:
REMARK  status: ('A' for Active; 'I' for Inactive)
REMARK    1  A    between atoms: C_8  and  C_9
REMARK    2  A    between atoms: C_22  and  O_23
REMARK                            x       y       z     vdW  Elec       q    Type
REMARK                         _______ _______ _______ _____ _____    ______ ____
ROOT
ATOM      1  O   UNL     1      -0.366   9.354  21.326  0.00  0.00    +0.000 OA
ATOM      2  C   UNL     1       0.504   8.607  20.898  0.00  0.00    +0.000 C 
ATOM      3  N   UNL     1       0.848   7.457  21.554  0.00  0.00    +0.000 N 
ATOM      4  C   UNL     1       1.720   6.626  20.914  0.00  0.00    +0.000 C 
ATOM      5  O   UNL     1       2.034   5.536  21.366  0.00  0.00    +0.000 OA
ATOM      6  C   UNL     1       2.053   7.362  19.736  0.00  0.00    +0.000 A 
ATOM      7  C   UNL     1       1.348   8.610  19.723  0.00  0.00    +0.000 A 
ATOM      8  C   UNL     1       1.478   9.600  18.722  0.00  0.00    +0.000 A 
ATOM      9  C   UNL     1       2.339   9.277  17.649  0.00  0.00    +0.000 A 
ATOM     10  C   UNL     1       2.992   8.048  17.640  0.00  0.00    +0.000 A 
ATOM     11  N   UNL     1       3.856   7.478  16.733  0.00  0.00    +0.000 N 
ATOM     12  C   UNL     1       4.268   6.226  17.162  0.00  0.00    +0.000 A 
ATOM     13  C   UNL     1       5.138   5.323  16.537  0.00  0.00    +0.000 A 
ATOM     14  C   UNL     1       5.401   4.112  17.179  0.00  0.00    +0.000 A 
ATOM     15  C   UNL     1       4.805   3.829  18.400  0.00  0.00    +0.000 A 
ATOM     16  C   UNL     1       3.933   4.729  19.023  0.00  0.00    +0.000 A 
ATOM     17  C   UNL     1       3.651   5.960  18.399  0.00  0.00    +0.000 A 
ATOM     18  C   UNL     1       2.889   7.110  18.625  0.00  0.00    +0.000 A 
ATOM     19  H   UNL     1       0.401   7.185  22.412  0.00  0.00    +0.000 HD
ATOM     20  H   UNL     1       4.150   7.907  15.869  0.00  0.00    +0.000 HD
ENDROOT
BRANCH   8  21
ATOM     21  C   UNL     1       0.787  10.908  18.761  0.00  0.00    +0.000 A 
ATOM     22  C   UNL     1      -0.571  11.005  18.382  0.00  0.00    +0.000 A 
ATOM     23  C   UNL     1      -1.242  12.232  18.325  0.00  0.00    +0.000 A 
ATOM     24  C   UNL     1      -0.581  13.399  18.683  0.00  0.00    +0.000 A 
ATOM     25  C   UNL     1       0.753  13.333  19.069  0.00  0.00    +0.000 A 
ATOM     26 CL   UNL     1       1.575  14.775  19.531  0.00  0.00    +0.000 Cl
ATOM     27  C   UNL     1       1.437  12.112  19.078  0.00  0.00    +0.000 A 
ENDBRANCH   8  21
BRANCH  15  28
ATOM     28  O   UNL     1       5.056   2.651  19.046  0.00  0.00    +0.000 OA
ATOM     29  H   UNL     1       4.220   2.303  19.397  0.00  0.00    +0.000 HD
ENDBRANCH  15  28
TORSDOF 2
ENDMDL
MODEL 8
REMARK VINA RESULT:      -7.3      4.917      9.593
REMARK  Name = 
REMARK  2 active torsions:
REMARK  status: ('A' for Active; 'I' for Inactive)
REMARK    1  A    between atoms: C_8  and  C_9
REMARK    2  A    between atoms: C_22  and  O_23
REMARK                            x       y       z     vdW  Elec       q    Type
REMARK                         _______ _______ _______ _____ _____    ______ ____
ROOT
ATOM      1  O   UNL     1      -2.599  12.185  23.459  0.00  0.00    +0.000 OA
ATOM      2  C   UNL     1      -1.756  11.543  22.847  0.00  0.00    +0.000 C 
ATOM      3  N   UNL     1      -1.051  10.535  23.444  0.00  0.00    +0.000 N 
ATOM      4  C   UNL     1      -0.247   9.789  22.632  0.00  0.00    +0.000 C 
ATOM      5  O   UNL     1       0.366   8.813  23.038  0.00  0.00    +0.000 OA
ATOM      6  C   UNL     1      -0.378  10.442  21.369  0.00  0.00    +0.000 A 
ATOM      7  C   UNL     1      -1.272  11.555  21.484  0.00  0.00    +0.000 A 
ATOM      8  C   UNL     1      -1.593  12.445  20.433  0.00  0.00    +0.000 A 
ATOM      9  C   UNL     1      -1.007  12.151  19.181  0.00  0.00    +0.000 A 
ATOM     10  C   UNL     1      -0.172  11.045  19.058  0.00  0.00    +0.000 A 
ATOM     11  N   UNL     1       0.506  10.525  17.979  0.00  0.00    +0.000 N 
ATOM     12  C   UNL     1       1.234   9.404  18.345  0.00  0.00    +0.000 A 
ATOM     13  C   UNL     1       2.052   8.588  17.552  0.00  0.00    +0.000 A 
ATOM     14  C   UNL     1       2.689   7.506  18.161  0.00  0.00    +0.000 A 
ATOM     15  C   UNL     1       2.502   7.262  19.515  0.00  0.00    +0.000 A 
ATOM     16  C   UNL     1       1.682   8.074  20.305  0.00  0.00    +0.000 A 
ATOM     17  C   UNL     1       1.028   9.174  19.718  0.00  0.00    +0.000 A 
ATOM     18  C   UNL     1       0.161  10.209  20.084  0.00  0.00    +0.000 A 
ATOM     19  H   UNL     1      -1.196  10.287  24.407  0.00  0.00    +0.000 HD
ATOM     20  H   UNL     1       0.477  10.904  17.044  0.00  0.00    +0.000 HD
ENDROOT
BRANCH   8  21
ATOM     21  C   UNL     1      -2.471  13.626  20.591  0.00  0.00    +0.000 A 
ATOM     22  C   UNL     1      -1.919  14.878  20.946  0.00  0.00    +0.000 A 
ATOM     23  C   UNL     1      -2.718  16.001  21.186  0.00  0.00    +0.000 A 
ATOM     24  C   UNL     1      -4.096  15.915  21.041  0.00  0.00    +0.000 A 
ATOM     25  C   UNL     1      -4.666  14.698  20.683  0.00  0.00    +0.000 A 
ATOM     26 CL   UNL     1      -6.373  14.588  20.484  0.00  0.00    +0.000 Cl
ATOM     27  C   UNL     1      -3.871  13.563  20.492  0.00  0.00    +0.000 A 
ENDBRANCH   8  21
BRANCH  15  28
ATOM     28  O   UNL     1       3.122   6.210  20.129  0.00  0.00    +0.000 OA
ATOM     29  H   UNL     1       4.078   6.378  20.147  0.00  0.00    +0.000 HD
ENDBRANCH  15  28
TORSDOF 2
ENDMDL
MODEL 9
REMARK VINA RESULT:      -7.3      1.425      1.816
REMARK  Name = 
REMARK  2 active torsions:
REMARK  status: ('A' for Active; 'I' for Inactive)
REMARK    1  A    between atoms: C_8  and  C_9
REMARK    2  A    between atoms: C_22  and  O_23
REMARK                            x       y       z     vdW  Elec       q    Type
REMARK                         _______ _______ _______ _____ _____    ______ ____
ROOT
ATOM      1  O   UNL     1       3.969   4.391  19.887  0.00  0.00    +0.000 OA
ATOM      2  C   UNL     1       3.222   5.361  19.861  0.00  0.00    +0.000 C 
ATOM      3  N   UNL     1       2.205   5.507  20.764  0.00  0.00    +0.000 N 
ATOM      4  C   UNL     1       1.531   6.692  20.738  0.00  0.00    +0.000 C 
ATOM      5  O   UNL     1       0.660   6.966  21.551  0.00  0.00    +0.000 OA
ATOM      6  C   UNL     1       2.122   7.369  19.629  0.00  0.00    +0.000 A 
ATOM      7  C   UNL     1       3.141   6.550  19.042  0.00  0.00    +0.000 A 
ATOM      8  C   UNL     1       3.896   6.898  17.899  0.00  0.00    +0.000 A 
ATOM      9  C   UNL     1       3.631   8.174  17.354  0.00  0.00    +0.000 A 
ATOM     10  C   UNL     1       2.672   8.988  17.948  0.00  0.00    +0.000 A 
ATOM     11  N   UNL     1       2.232  10.256  17.645  0.00  0.00    +0.000 N 
ATOM     12  C   UNL     1       1.236  10.657  18.522  0.00  0.00    +0.000 A 
ATOM     13  C   UNL     1       0.530  11.867  18.558  0.00  0.00    +0.000 A 
ATOM     14  C   UNL     1      -0.439  12.033  19.549  0.00  0.00    +0.000 A 
ATOM     15  C   UNL     1      -0.678  11.017  20.464  0.00  0.00    +0.000 A 
ATOM     16  C   UNL     1       0.030   9.811  20.430  0.00  0.00    +0.000 A 
ATOM     17  C   UNL     1       1.012   9.614  19.440  0.00  0.00    +0.000 A 
ATOM     18  C   UNL     1       1.921   8.634  19.031  0.00  0.00    +0.000 A 
ATOM     19  H   UNL     1       2.032   4.822  21.480  0.00  0.00    +0.000 HD
ATOM     20  H   UNL     1       2.585  10.823  16.889  0.00  0.00    +0.000 HD
ENDROOT
BRANCH   8  21
ATOM     21  C   UNL     1       4.900   6.009  17.272  0.00  0.00    +0.000 A 
ATOM     22  C   UNL     1       6.125   5.748  17.928  0.00  0.00    +0.000 A 
ATOM     23  C   UNL     1       7.136   4.981  17.338  0.00  0.00    +0.000 A 
ATOM     24  C   UNL     1       6.936   4.420  16.084  0.00  0.00    +0.000 A 
ATOM     25  C   UNL     1       5.737   4.651  15.419  0.00  0.00    +0.000 A 
ATOM     26 CL   UNL     1       5.475   3.944  13.871  0.00  0.00    +0.000 Cl
ATOM     27  C   UNL     1       4.747   5.459  15.989  0.00  0.00    +0.000 A 
ENDBRANCH   8  21
BRANCH  15  28
ATOM     28  O   UNL     1      -1.627  11.160  21.437  0.00  0.00    +0.000 OA
ATOM     29  H   UNL     1      -2.184  11.926  21.221  0.00  0.00    +0.000 HD
ENDBRANCH  15  28
TORSDOF 2
ENDMDL
