MODEL 1
REMARK VINA RESULT:      -8.2      0.000      0.000
REMARK  Name = 
REMARK  5 active torsions:
REMARK  status: ('A' for Active; 'I' for Inactive)
REMARK    1  A    between atoms: C_1  and  C_2
REMARK    2  A    between atoms: C_4  and  C_5
REMARK    3  A    between atoms: N_7  and  C_8
REMARK    4  A    between atoms: C_10  and  C_11
REMARK    5  A    between atoms: C_17  and  C_18
REMARK                            x       y       z     vdW  Elec       q    Type
REMARK                         _______ _______ _______ _____ _____    ______ ____
ROOT
ATOM      1  C   UNL     1       5.284   4.695  17.601  0.00  0.00    +0.000 A 
ATOM      2  O   UNL     1       5.169   4.572  16.235  0.00  0.00    +0.000 OA
ATOM      3  C   UNL     1       6.452   4.699  15.747  0.00  0.00    +0.000 A 
ATOM      4  N   UNL     1       7.357   4.884  16.691  0.00  0.00    +0.000 NA
ATOM      5  C   UNL     1       6.627   4.910  17.849  0.00  0.00    +0.000 A 
ENDROOT
BRANCH   1  12
ATOM      6  C   UNL     1       2.169   6.926  18.769  0.00  0.00    +0.000 C 
ATOM      7  C   UNL     1       2.603   5.890  19.810  0.00  0.00    +0.000 C 
ATOM      8  C   UNL     1       1.672   4.671  19.830  0.00  0.00    +0.000 C 
ATOM      9  C   UNL     1       1.855   3.779  18.592  0.00  0.00    +0.000 C 
ATOM     10  C   UNL     1       0.977   2.536  18.709  0.00  0.00    +0.000 C 
ATOM     11  C   UNL     1       3.337   3.405  18.383  0.00  0.00    +0.000 C 
ATOM     12  N   UNL     1       4.154   4.626  18.366  0.00  0.00    +0.000 N 
ATOM     13  C   UNL     1       4.051   5.439  19.587  0.00  0.00    +0.000 C 
ENDBRANCH   1  12
BRANCH   3  14
ATOM     14  C   UNL     1       6.814   4.680  14.356  0.00  0.00    +0.000 A 
ATOM     15  C   UNL     1       6.306   3.840  13.373  0.00  0.00    +0.000 A 
ATOM     16  C   UNL     1       6.990   4.130  12.172  0.00  0.00    +0.000 A 
ATOM     17  C   UNL     1       7.866   5.143  12.475  0.00  0.00    +0.000 A 
ATOM     18  O   UNL     1       7.766   5.489  13.786  0.00  0.00    +0.000 OA
ENDBRANCH   3  14
BRANCH   5  19
ATOM     19  C   UNL     1       7.268   5.194  19.089  0.00  0.00    +0.000 C 
ATOM     20  N   UNL     1       7.787   5.429  20.103  0.00  0.00    +0.000 NA
ENDBRANCH   5  19
TORSDOF 3
ENDMDL
MODEL 2
REMARK VINA RESULT:      -8.1      0.805      1.954
REMARK  Name = 
REMARK  5 active torsions:
REMARK  status: ('A' for Active; 'I' for Inactive)
REMARK    1  A    between atoms: C_1  and  C_2
REMARK    2  A    between atoms: C_4  and  C_5
REMARK    3  A    between atoms: N_7  and  C_8
REMARK    4  A    between atoms: C_10  and  C_11
REMARK    5  A    between atoms: C_17  and  C_18
REMARK                            x       y       z     vdW  Elec       q    Type
REMARK                         _______ _______ _______ _____ _____    ______ ____
ROOT
ATOM      1  C   UNL     1       4.922   4.570  17.227  0.00  0.00    +0.000 A 
ATOM      2  O   UNL     1       4.958   4.470  15.854  0.00  0.00    +0.000 OA
ATOM      3  C   UNL     1       6.276   4.676  15.506  0.00  0.00    +0.000 A 
ATOM      4  N   UNL     1       7.066   4.890  16.543  0.00  0.00    +0.000 NA
ATOM      5  C   UNL     1       6.217   4.853  17.618  0.00  0.00    +0.000 A 
ENDROOT
BRANCH   1  12
ATOM      6  C   UNL     1       2.726   1.824  19.145  0.00  0.00    +0.000 C 
ATOM      7  C   UNL     1       1.886   2.866  18.399  0.00  0.00    +0.000 C 
ATOM      8  C   UNL     1       1.304   3.921  19.350  0.00  0.00    +0.000 C 
ATOM      9  C   UNL     1       2.378   4.887  19.874  0.00  0.00    +0.000 C 
ATOM     10  C   UNL     1       1.733   5.970  20.735  0.00  0.00    +0.000 C 
ATOM     11  C   UNL     1       3.196   5.499  18.718  0.00  0.00    +0.000 C 
ATOM     12  N   UNL     1       3.724   4.424  17.866  0.00  0.00    +0.000 N 
ATOM     13  C   UNL     1       2.693   3.550  17.289  0.00  0.00    +0.000 C 
ENDBRANCH   1  12
BRANCH   3  14
ATOM     14  C   UNL     1       6.782   4.706  14.162  0.00  0.00    +0.000 A 
ATOM     15  C   UNL     1       6.401   3.883  13.109  0.00  0.00    +0.000 A 
ATOM     16  C   UNL     1       7.200   4.223  11.994  0.00  0.00    +0.000 A 
ATOM     17  C   UNL     1       8.013   5.246  12.415  0.00  0.00    +0.000 A 
ATOM     18  O   UNL     1       7.768   5.552  13.717  0.00  0.00    +0.000 OA
ENDBRANCH   3  14
BRANCH   5  19
ATOM     19  C   UNL     1       6.708   5.146  18.923  0.00  0.00    +0.000 C 
ATOM     20  N   UNL     1       7.114   5.380  19.988  0.00  0.00    +0.000 NA
ENDBRANCH   5  19
TORSDOF 3
ENDMDL
MODEL 3
REMARK VINA RESULT:      -8.0      1.029      1.255
REMARK  Name = 
REMARK  5 active torsions:
REMARK  status: ('A' for Active; 'I' for Inactive)
REMARK    1  A    between atoms: C_1  and  C_2
REMARK    2  A    between atoms: C_4  and  C_5
REMARK    3  A    between atoms: N_7  and  C_8
REMARK    4  A    between atoms: C_10  and  C_11
REMARK    5  A    between atoms: C_17  and  C_18
REMARK                            x       y       z     vdW  Elec       q    Type
REMARK                         _______ _______ _______ _____ _____    ______ ____
ROOT
ATOM      1  C   UNL     1       5.416   4.602  17.527  0.00  0.00    +0.000 A 
ATOM      2  O   UNL     1       5.200   4.415  16.180  0.00  0.00    +0.000 OA
ATOM      3  C   UNL     1       6.437   4.556  15.587  0.00  0.00    +0.000 A 
ATOM      4  N   UNL     1       7.406   4.808  16.448  0.00  0.00    +0.000 NA
ATOM      5  C   UNL     1       6.767   4.866  17.658  0.00  0.00    +0.000 A 
ENDROOT
BRANCH   1  12
ATOM      6  C   UNL     1       1.417   4.381  17.511  0.00  0.00    +0.000 C 
ATOM      7  C   UNL     1       1.983   5.138  18.717  0.00  0.00    +0.000 C 
ATOM      8  C   UNL     1       1.975   4.280  19.990  0.00  0.00    +0.000 C 
ATOM      9  C   UNL     1       3.038   3.171  19.950  0.00  0.00    +0.000 C 
ATOM     10  C   UNL     1       3.051   2.411  21.274  0.00  0.00    +0.000 C 
ATOM     11  C   UNL     1       4.431   3.740  19.613  0.00  0.00    +0.000 C 
ATOM     12  N   UNL     1       4.352   4.536  18.380  0.00  0.00    +0.000 N 
ATOM     13  C   UNL     1       3.400   5.655  18.444  0.00  0.00    +0.000 C 
ENDBRANCH   1  12
BRANCH   3  14
ATOM     14  C   UNL     1       6.690   4.485  14.175  0.00  0.00    +0.000 A 
ATOM     15  C   UNL     1       6.142   3.580  13.274  0.00  0.00    +0.000 A 
ATOM     16  C   UNL     1       6.718   3.838  12.009  0.00  0.00    +0.000 A 
ATOM     17  C   UNL     1       7.572   4.896  12.197  0.00  0.00    +0.000 A 
ATOM     18  O   UNL     1       7.560   5.301  13.495  0.00  0.00    +0.000 OA
ENDBRANCH   3  14
BRANCH   5  19
ATOM     19  C   UNL     1       7.494   5.224  18.830  0.00  0.00    +0.000 C 
ATOM     20  N   UNL     1       8.082   5.520  19.789  0.00  0.00    +0.000 NA
ENDBRANCH   5  19
TORSDOF 3
ENDMDL
MODEL 4
REMARK VINA RESULT:      -7.6      1.084      2.136
REMARK  Name = 
REMARK  5 active torsions:
REMARK  status: ('A' for Active; 'I' for Inactive)
REMARK    1  A    between atoms: C_1  and  C_2
REMARK    2  A    between atoms: C_4  and  C_5
REMARK    3  A    between atoms: N_7  and  C_8
REMARK    4  A    between atoms: C_10  and  C_11
REMARK    5  A    between atoms: C_17  and  C_18
REMARK                            x       y       z     vdW  Elec       q    Type
REMARK                         _______ _______ _______ _____ _____    ______ ____
ROOT
ATOM      1  C   UNL     1       4.859   4.596  17.440  0.00  0.00    +0.000 A 
ATOM      2  O   UNL     1       4.752   4.354  16.088  0.00  0.00    +0.000 OA
ATOM      3  C   UNL     1       6.043   4.392  15.606  0.00  0.00    +0.000 A 
ATOM      4  N   UNL     1       6.946   4.630  16.540  0.00  0.00    +0.000 NA
ATOM      5  C   UNL     1       6.207   4.786  17.682  0.00  0.00    +0.000 A 
ENDROOT
BRANCH   1  12
ATOM      6  C   UNL     1       3.054   2.686  20.462  0.00  0.00    +0.000 C 
ATOM      7  C   UNL     1       2.076   3.297  19.454  0.00  0.00    +0.000 C 
ATOM      8  C   UNL     1       1.454   4.600  19.973  0.00  0.00    +0.000 C 
ATOM      9  C   UNL     1       2.461   5.761  19.983  0.00  0.00    +0.000 C 
ATOM     10  C   UNL     1       1.768   7.051  20.416  0.00  0.00    +0.000 C 
ATOM     11  C   UNL     1       3.146   5.922  18.610  0.00  0.00    +0.000 C 
ATOM     12  N   UNL     1       3.721   4.636  18.194  0.00  0.00    +0.000 N 
ATOM     13  C   UNL     1       2.745   3.541  18.096  0.00  0.00    +0.000 C 
ENDBRANCH   1  12
BRANCH   3  14
ATOM     14  C   UNL     1       6.416   4.235  14.227  0.00  0.00    +0.000 A 
ATOM     15  C   UNL     1       7.364   4.973  13.530  0.00  0.00    +0.000 A 
ATOM     16  C   UNL     1       7.356   4.520  12.192  0.00  0.00    +0.000 A 
ATOM     17  C   UNL     1       6.419   3.518  12.143  0.00  0.00    +0.000 A 
ATOM     18  O   UNL     1       5.849   3.330  13.364  0.00  0.00    +0.000 OA
ENDBRANCH   3  14
BRANCH   5  19
ATOM     19  C   UNL     1       6.847   5.159  18.899  0.00  0.00    +0.000 C 
ATOM     20  N   UNL     1       7.368   5.469  19.892  0.00  0.00    +0.000 NA
ENDBRANCH   5  19
TORSDOF 3
ENDMDL
MODEL 5
REMARK VINA RESULT:      -7.1      1.127      2.135
REMARK  Name = 
REMARK  5 active torsions:
REMARK  status: ('A' for Active; 'I' for Inactive)
REMARK    1  A    between atoms: C_1  and  C_2
REMARK    2  A    between atoms: C_4  and  C_5
REMARK    3  A    between atoms: N_7  and  C_8
REMARK    4  A    between atoms: C_10  and  C_11
REMARK    5  A    between atoms: C_17  and  C_18
REMARK                            x       y       z     vdW  Elec       q    Type
REMARK                         _______ _______ _______ _____ _____    ______ ____
ROOT
ATOM      1  C   UNL     1       4.866   4.354  17.314  0.00  0.00    +0.000 A 
ATOM      2  O   UNL     1       4.836   4.156  15.952  0.00  0.00    +0.000 OA
ATOM      3  C   UNL     1       6.130   4.361  15.523  0.00  0.00    +0.000 A 
ATOM      4  N   UNL     1       6.966   4.664  16.500  0.00  0.00    +0.000 NA
ATOM      5  C   UNL     1       6.173   4.688  17.617  0.00  0.00    +0.000 A 
ENDROOT
BRANCH   1  12
ATOM      6  C   UNL     1       2.128   1.628  18.369  0.00  0.00    +0.000 C 
ATOM      7  C   UNL     1       1.554   3.038  18.202  0.00  0.00    +0.000 C 
ATOM      8  C   UNL     1       1.315   3.726  19.553  0.00  0.00    +0.000 C 
ATOM      9  C   UNL     1       2.630   4.139  20.234  0.00  0.00    +0.000 C 
ATOM     10  C   UNL     1       2.333   4.901  21.524  0.00  0.00    +0.000 C 
ATOM     11  C   UNL     1       3.520   4.965  19.284  0.00  0.00    +0.000 C 
ATOM     12  N   UNL     1       3.705   4.233  18.023  0.00  0.00    +0.000 N 
ATOM     13  C   UNL     1       2.454   3.913  17.321  0.00  0.00    +0.000 C 
ENDBRANCH   1  12
BRANCH   3  14
ATOM     14  C   UNL     1       6.567   4.303  14.156  0.00  0.00    +0.000 A 
ATOM     15  C   UNL     1       7.455   5.166  13.526  0.00  0.00    +0.000 A 
ATOM     16  C   UNL     1       7.544   4.771  12.173  0.00  0.00    +0.000 A 
ATOM     17  C   UNL     1       6.723   3.679  12.047  0.00  0.00    +0.000 A 
ATOM     18  O   UNL     1       6.132   3.381  13.236  0.00  0.00    +0.000 OA
ENDBRANCH   3  14
BRANCH   5  19
ATOM     19  C   UNL     1       6.723   5.083  18.871  0.00  0.00    +0.000 C 
ATOM     20  N   UNL     1       7.165   5.405  19.897  0.00  0.00    +0.000 NA
ENDBRANCH   5  19
TORSDOF 3
ENDMDL
MODEL 6
REMARK VINA RESULT:      -7.0      1.846      2.208
REMARK  Name = 
REMARK  5 active torsions:
REMARK  status: ('A' for Active; 'I' for Inactive)
REMARK    1  A    between atoms: C_1  and  C_2
REMARK    2  A    between atoms: C_4  and  C_5
REMARK    3  A    between atoms: N_7  and  C_8
REMARK    4  A    between atoms: C_10  and  C_11
REMARK    5  A    between atoms: C_17  and  C_18
REMARK                            x       y       z     vdW  Elec       q    Type
REMARK                         _______ _______ _______ _____ _____    ______ ____
ROOT
ATOM      1  C   UNL     1       4.025   5.129  17.459  0.00  0.00    +0.000 A 
ATOM      2  O   UNL     1       4.770   4.380  16.575  0.00  0.00    +0.000 OA
ATOM      3  C   UNL     1       5.302   5.287  15.684  0.00  0.00    +0.000 A 
ATOM      4  N   UNL     1       4.961   6.537  15.939  0.00  0.00    +0.000 NA
ATOM      5  C   UNL     1       4.139   6.439  17.030  0.00  0.00    +0.000 A 
ENDROOT
BRANCH   1  12
ATOM      6  C   UNL     1       1.704   5.889  20.633  0.00  0.00    +0.000 C 
ATOM      7  C   UNL     1       2.579   4.643  20.800  0.00  0.00    +0.000 C 
ATOM      8  C   UNL     1       1.781   3.349  20.590  0.00  0.00    +0.000 C 
ATOM      9  C   UNL     1       1.415   3.124  19.115  0.00  0.00    +0.000 C 
ATOM     10  C   UNL     1       0.709   1.781  18.949  0.00  0.00    +0.000 C 
ATOM     11  C   UNL     1       2.658   3.223  18.206  0.00  0.00    +0.000 C 
ATOM     12  N   UNL     1       3.355   4.491  18.462  0.00  0.00    +0.000 N 
ATOM     13  C   UNL     1       3.787   4.671  19.856  0.00  0.00    +0.000 C 
ENDBRANCH   1  12
BRANCH   3  14
ATOM     14  C   UNL     1       6.120   4.950  14.551  0.00  0.00    +0.000 A 
ATOM     15  C   UNL     1       5.841   4.004  13.573  0.00  0.00    +0.000 A 
ATOM     16  C   UNL     1       6.946   3.965  12.693  0.00  0.00    +0.000 A 
ATOM     17  C   UNL     1       7.834   4.899  13.166  0.00  0.00    +0.000 A 
ATOM     18  O   UNL     1       7.346   5.506  14.281  0.00  0.00    +0.000 OA
ENDBRANCH   3  14
BRANCH   5  19
ATOM     19  C   UNL     1       3.489   7.601  17.538  0.00  0.00    +0.000 C 
ATOM     20  N   UNL     1       2.955   8.550  17.947  0.00  0.00    +0.000 NA
ENDBRANCH   5  19
TORSDOF 3
ENDMDL
MODEL 7
REMARK VINA RESULT:      -6.9      1.591      1.908
REMARK  Name = 
REMARK  5 active torsions:
REMARK  status: ('A' for Active; 'I' for Inactive)
REMARK    1  A    between atoms: C_1  and  C_2
REMARK    2  A    between atoms: C_4  and  C_5
REMARK    3  A    between atoms: N_7  and  C_8
REMARK    4  A    between atoms: C_10  and  C_11
REMARK    5  A    between atoms: C_17  and  C_18
REMARK                            x       y       z     vdW  Elec       q    Type
REMARK                         _______ _______ _______ _____ _____    ______ ____
ROOT
ATOM      1  C   UNL     1       5.338   4.793  16.801  0.00  0.00    +0.000 A 
ATOM      2  O   UNL     1       5.031   4.046  15.686  0.00  0.00    +0.000 OA
ATOM      3  C   UNL     1       5.998   4.361  14.756  0.00  0.00    +0.000 A 
ATOM      4  N   UNL     1       6.886   5.235  15.196  0.00  0.00    +0.000 NA
ATOM      5  C   UNL     1       6.460   5.529  16.464  0.00  0.00    +0.000 A 
ENDROOT
BRANCH   1  12
ATOM      6  C   UNL     1       1.468   4.712  17.828  0.00  0.00    +0.000 C 
ATOM      7  C   UNL     1       2.368   5.357  18.887  0.00  0.00    +0.000 C 
ATOM      8  C   UNL     1       2.646   4.408  20.060  0.00  0.00    +0.000 C 
ATOM      9  C   UNL     1       3.602   3.269  19.671  0.00  0.00    +0.000 C 
ATOM     10  C   UNL     1       3.920   2.412  20.895  0.00  0.00    +0.000 C 
ATOM     11  C   UNL     1       4.888   3.813  19.015  0.00  0.00    +0.000 C 
ATOM     12  N   UNL     1       4.532   4.701  17.899  0.00  0.00    +0.000 N 
ATOM     13  C   UNL     1       3.690   5.844  18.282  0.00  0.00    +0.000 C 
ENDBRANCH   1  12
BRANCH   3  14
ATOM     14  C   UNL     1       6.054   3.848  13.415  0.00  0.00    +0.000 A 
ATOM     15  C   UNL     1       4.988   3.387  12.653  0.00  0.00    +0.000 A 
ATOM     16  C   UNL     1       5.512   2.921  11.427  0.00  0.00    +0.000 A 
ATOM     17  C   UNL     1       6.866   3.136  11.493  0.00  0.00    +0.000 A 
ATOM     18  O   UNL     1       7.206   3.701  12.683  0.00  0.00    +0.000 OA
ENDBRANCH   3  14
BRANCH   5  19
ATOM     19  C   UNL     1       7.130   6.529  17.226  0.00  0.00    +0.000 C 
ATOM     20  N   UNL     1       7.674   7.343  17.854  0.00  0.00    +0.000 NA
ENDBRANCH   5  19
TORSDOF 3
ENDMDL
MODEL 8
REMARK VINA RESULT:      -6.9      1.982      2.683
REMARK  Name = 
REMARK  5 active torsions:
REMARK  status: ('A' for Active; 'I' for Inactive)
REMARK    1  A    between atoms: C_1  and  C_2
REMARK    2  A    between atoms: C_4  and  C_5
REMARK    3  A    between atoms: N_7  and  C_8
REMARK    4  A    between atoms: C_10  and  C_11
REMARK    5  A    between atoms: C_17  and  C_18
REMARK                            x       y       z     vdW  Elec       q    Type
REMARK                         _______ _______ _______ _____ _____    ______ ____
ROOT
ATOM      1  C   UNL     1       4.224   4.631  16.973  0.00  0.00    +0.000 A 
ATOM      2  O   UNL     1       4.917   3.984  15.975  0.00  0.00    +0.000 OA
ATOM      3  C   UNL     1       5.529   4.982  15.247  0.00  0.00    +0.000 A 
ATOM      4  N   UNL     1       5.283   6.195  15.707  0.00  0.00    +0.000 NA
ATOM      5  C   UNL     1       4.444   5.981  16.769  0.00  0.00    +0.000 A 
ENDROOT
BRANCH   1  12
ATOM      6  C   UNL     1       4.684   2.107  20.048  0.00  0.00    +0.000 C 
ATOM      7  C   UNL     1       3.436   1.824  19.206  0.00  0.00    +0.000 C 
ATOM      8  C   UNL     1       2.157   2.336  19.884  0.00  0.00    +0.000 C 
ATOM      9  C   UNL     1       2.059   3.869  19.855  0.00  0.00    +0.000 C 
ATOM     10  C   UNL     1       0.729   4.319  20.454  0.00  0.00    +0.000 C 
ATOM     11  C   UNL     1       2.247   4.418  18.425  0.00  0.00    +0.000 C 
ATOM     12  N   UNL     1       3.494   3.889  17.856  0.00  0.00    +0.000 N 
ATOM     13  C   UNL     1       3.557   2.421  17.799  0.00  0.00    +0.000 C 
ENDBRANCH   1  12
BRANCH   3  14
ATOM     14  C   UNL     1       6.331   4.776  14.072  0.00  0.00    +0.000 A 
ATOM     15  C   UNL     1       6.152   3.799  13.101  0.00  0.00    +0.000 A 
ATOM     16  C   UNL     1       7.204   3.930  12.167  0.00  0.00    +0.000 A 
ATOM     17  C   UNL     1       7.962   4.988  12.604  0.00  0.00    +0.000 A 
ATOM     18  O   UNL     1       7.443   5.512  13.748  0.00  0.00    +0.000 OA
ENDBRANCH   3  14
BRANCH   5  19
ATOM     19  C   UNL     1       3.880   7.089  17.464  0.00  0.00    +0.000 C 
ATOM     20  N   UNL     1       3.415   7.990  18.035  0.00  0.00    +0.000 NA
ENDBRANCH   5  19
TORSDOF 3
ENDMDL
MODEL 9
REMARK VINA RESULT:      -6.8      1.756      2.629
REMARK  Name = 
REMARK  5 active torsions:
REMARK  status: ('A' for Active; 'I' for Inactive)
REMARK    1  A    between atoms: C_1  and  C_2
REMARK    2  A    between atoms: C_4  and  C_5
REMARK    3  A    between atoms: N_7  and  C_8
REMARK    4  A    between atoms: C_10  and  C_11
REMARK    5  A    between atoms: C_17  and  C_18
REMARK                            x       y       z     vdW  Elec       q    Type
REMARK                         _______ _______ _______ _____ _____    ______ ____
ROOT
ATOM      1  C   UNL     1       4.420   4.991  17.393  0.00  0.00    +0.000 A 
ATOM      2  O   UNL     1       5.151   4.284  16.464  0.00  0.00    +0.000 OA
ATOM      3  C   UNL     1       5.513   5.205  15.505  0.00  0.00    +0.000 A 
ATOM      4  N   UNL     1       5.078   6.427  15.759  0.00  0.00    +0.000 NA
ATOM      5  C   UNL     1       4.370   6.290  16.923  0.00  0.00    +0.000 A 
ENDROOT
BRANCH   1  12
ATOM      6  C   UNL     1       1.210   2.870  18.505  0.00  0.00    +0.000 C 
ATOM      7  C   UNL     1       1.840   3.669  19.649  0.00  0.00    +0.000 C 
ATOM      8  C   UNL     1       2.684   2.781  20.574  0.00  0.00    +0.000 C 
ATOM      9  C   UNL     1       3.997   2.335  19.912  0.00  0.00    +0.000 C 
ATOM     10  C   UNL     1       4.838   1.537  20.906  0.00  0.00    +0.000 C 
ATOM     11  C   UNL     1       4.780   3.539  19.350  0.00  0.00    +0.000 C 
ATOM     12  N   UNL     1       3.906   4.327  18.470  0.00  0.00    +0.000 N 
ATOM     13  C   UNL     1       2.690   4.832  19.123  0.00  0.00    +0.000 C 
ENDBRANCH   1  12
BRANCH   3  14
ATOM     14  C   UNL     1       6.255   4.908  14.311  0.00  0.00    +0.000 A 
ATOM     15  C   UNL     1       5.981   3.907  13.387  0.00  0.00    +0.000 A 
ATOM     16  C   UNL     1       7.002   3.941  12.410  0.00  0.00    +0.000 A 
ATOM     17  C   UNL     1       7.835   4.969  12.775  0.00  0.00    +0.000 A 
ATOM     18  O   UNL     1       7.394   5.565  13.916  0.00  0.00    +0.000 OA
ENDBRANCH   3  14
BRANCH   5  19
ATOM     19  C   UNL     1       3.660   7.403  17.459  0.00  0.00    +0.000 C 
ATOM     20  N   UNL     1       3.075   8.308  17.898  0.00  0.00    +0.000 NA
ENDBRANCH   5  19
TORSDOF 3
ENDMDL
