MODEL 1
REMARK VINA RESULT:      -7.0      0.000      0.000
REMARK  Name = 
REMARK  7 active torsions:
REMARK  status: ('A' for Active; 'I' for Inactive)
REMARK    1  A    between atoms: C_1  and  O_2
REMARK    2  A    between atoms: O_2  and  C_3
REMARK    3  A    between atoms: C_8  and  C_9
REMARK    4  A    between atoms: C_9  and  C_11
REMARK    5  A    between atoms: C_12  and  C_13
REMARK    6  A    between atoms: N_15  and  C_16
REMARK    7  A    between atoms: C_17  and  N_18
REMARK                            x       y       z     vdW  Elec       q    Type
REMARK                         _______ _______ _______ _____ _____    ______ ____
ROOT
ATOM      1  C   UNL     1       5.715   5.034  18.979  0.00  0.00    +0.000 C 
ATOM      2  O   UNL     1       6.531   5.047  19.906  0.00  0.00    +0.000 OA
ENDROOT
BRANCH   1   3
ATOM      3  C   UNL     1       6.165   5.183  17.601  0.00  0.00    +0.000 A 
ATOM      4  C   UNL     1       7.013   6.221  17.093  0.00  0.00    +0.000 A 
ATOM      5  C   UNL     1       7.614   7.381  17.799  0.00  0.00    +0.000 C 
ATOM      6  N   UNL     1       7.313   6.035  15.801  0.00  0.00    +0.000 NA
ATOM      7  N   UNL     1       6.658   4.914  15.474  0.00  0.00    +0.000 N 
ATOM      8  C   UNL     1       6.917   4.303  14.194  0.00  0.00    +0.000 C 
ATOM      9  C   UNL     1       5.865   4.416  16.480  0.00  0.00    +0.000 A 
BRANCH   9  10
ATOM     10  N   UNL     1       5.032   3.366  16.286  0.00  0.00    +0.000 N 
ATOM     11  H   UNL     1       4.754   2.762  17.054  0.00  0.00    +0.000 HD
ATOM     12  H   UNL     1       4.307   3.421  15.570  0.00  0.00    +0.000 HD
ENDBRANCH   9  10
ENDBRANCH   1   3
BRANCH   1  18
ATOM     13  C   UNL     1       3.622   3.611  19.504  0.00  0.00    +0.000 A 
ATOM     14  C   UNL     1       2.260   3.596  19.846  0.00  0.00    +0.000 A 
ATOM     15  C   UNL     1       1.572   4.779  20.117  0.00  0.00    +0.000 A 
ATOM     16  C   UNL     1       2.230   5.998  20.039  0.00  0.00    +0.000 A 
ATOM     17  C   UNL     1       3.567   6.035  19.649  0.00  0.00    +0.000 A 
ATOM     18  C   UNL     1       4.275   4.851  19.352  0.00  0.00    +0.000 A 
BRANCH  13  20
ATOM     19  C   UNL     1       3.717   1.342  18.744  0.00  0.00    +0.000 C 
ATOM     20  O   UNL     1       4.353   2.469  19.329  0.00  0.00    +0.000 OA
ENDBRANCH  13  20
ENDBRANCH   1  18
TORSDOF 4
ENDMDL
MODEL 2
REMARK VINA RESULT:      -6.8      1.413      1.492
REMARK  Name = 
REMARK  7 active torsions:
REMARK  status: ('A' for Active; 'I' for Inactive)
REMARK    1  A    between atoms: C_1  and  O_2
REMARK    2  A    between atoms: O_2  and  C_3
REMARK    3  A    between atoms: C_8  and  C_9
REMARK    4  A    between atoms: C_9  and  C_11
REMARK    5  A    between atoms: C_12  and  C_13
REMARK    6  A    between atoms: N_15  and  C_16
REMARK    7  A    between atoms: C_17  and  N_18
REMARK                            x       y       z     vdW  Elec       q    Type
REMARK                         _______ _______ _______ _____ _____    ______ ____
ROOT
ATOM      1  C   UNL     1       4.799   4.518  18.533  0.00  0.00    +0.000 C 
ATOM      2  O   UNL     1       5.724   4.339  19.332  0.00  0.00    +0.000 OA
ENDROOT
BRANCH   1   3
ATOM      3  C   UNL     1       5.078   4.947  17.168  0.00  0.00    +0.000 A 
ATOM      4  C   UNL     1       4.866   6.258  16.631  0.00  0.00    +0.000 A 
ATOM      5  C   UNL     1       4.309   7.469  17.285  0.00  0.00    +0.000 C 
ATOM      6  N   UNL     1       5.298   6.357  15.367  0.00  0.00    +0.000 NA
ATOM      7  N   UNL     1       5.762   5.133  15.085  0.00  0.00    +0.000 N 
ATOM      8  C   UNL     1       6.492   4.928  13.859  0.00  0.00    +0.000 C 
ATOM      9  C   UNL     1       5.558   4.214  16.088  0.00  0.00    +0.000 A 
BRANCH   9  10
ATOM     10  N   UNL     1       5.843   2.900  15.927  0.00  0.00    +0.000 N 
ATOM     11  H   UNL     1       6.800   2.561  15.937  0.00  0.00    +0.000 HD
ATOM     12  H   UNL     1       5.191   2.195  16.271  0.00  0.00    +0.000 HD
ENDBRANCH   9  10
ENDBRANCH   1   3
BRANCH   1  18
ATOM     13  C   UNL     1       2.604   3.164  18.692  0.00  0.00    +0.000 A 
ATOM     14  C   UNL     1       1.314   3.065  19.241  0.00  0.00    +0.000 A 
ATOM     15  C   UNL     1       0.859   3.988  20.183  0.00  0.00    +0.000 A 
ATOM     16  C   UNL     1       1.680   5.032  20.584  0.00  0.00    +0.000 A 
ATOM     17  C   UNL     1       2.941   5.176  20.010  0.00  0.00    +0.000 A 
ATOM     18  C   UNL     1       3.412   4.265  19.041  0.00  0.00    +0.000 A 
BRANCH  13  20
ATOM     19  C   UNL     1       3.810   1.116  18.400  0.00  0.00    +0.000 C 
ATOM     20  O   UNL     1       3.119   2.225  17.843  0.00  0.00    +0.000 OA
ENDBRANCH  13  20
ENDBRANCH   1  18
TORSDOF 4
ENDMDL
MODEL 3
REMARK VINA RESULT:      -6.7      1.074      2.175
REMARK  Name = 
REMARK  7 active torsions:
REMARK  status: ('A' for Active; 'I' for Inactive)
REMARK    1  A    between atoms: C_1  and  O_2
REMARK    2  A    between atoms: O_2  and  C_3
REMARK    3  A    between atoms: C_8  and  C_9
REMARK    4  A    between atoms: C_9  and  C_11
REMARK    5  A    between atoms: C_12  and  C_13
REMARK    6  A    between atoms: N_15  and  C_16
REMARK    7  A    between atoms: C_17  and  N_18
REMARK                            x       y       z     vdW  Elec       q    Type
REMARK                         _______ _______ _______ _____ _____    ______ ____
ROOT
ATOM      1  C   UNL     1       5.870   4.955  18.994  0.00  0.00    +0.000 C 
ATOM      2  O   UNL     1       6.709   5.096  19.889  0.00  0.00    +0.000 OA
ENDROOT
BRANCH   1   3
ATOM      3  C   UNL     1       6.252   5.113  17.596  0.00  0.00    +0.000 A 
ATOM      4  C   UNL     1       7.041   6.176  17.048  0.00  0.00    +0.000 A 
ATOM      5  C   UNL     1       7.633   7.359  17.723  0.00  0.00    +0.000 C 
ATOM      6  N   UNL     1       7.288   5.996  15.744  0.00  0.00    +0.000 NA
ATOM      7  N   UNL     1       6.657   4.851  15.449  0.00  0.00    +0.000 N 
ATOM      8  C   UNL     1       6.878   4.244  14.161  0.00  0.00    +0.000 C 
ATOM      9  C   UNL     1       5.927   4.331  16.492  0.00  0.00    +0.000 A 
BRANCH   9  10
ATOM     10  N   UNL     1       5.123   3.254  16.339  0.00  0.00    +0.000 N 
ATOM     11  H   UNL     1       4.577   2.886  17.113  0.00  0.00    +0.000 HD
ATOM     12  H   UNL     1       4.663   3.089  15.443  0.00  0.00    +0.000 HD
ENDBRANCH   9  10
ENDBRANCH   1   3
BRANCH   1  18
ATOM     13  C   UNL     1       3.364   5.473  19.357  0.00  0.00    +0.000 A 
ATOM     14  C   UNL     1       2.116   5.013  19.811  0.00  0.00    +0.000 A 
ATOM     15  C   UNL     1       1.948   3.697  20.244  0.00  0.00    +0.000 A 
ATOM     16  C   UNL     1       3.025   2.823  20.243  0.00  0.00    +0.000 A 
ATOM     17  C   UNL     1       4.281   3.278  19.847  0.00  0.00    +0.000 A 
ATOM     18  C   UNL     1       4.477   4.610  19.425  0.00  0.00    +0.000 A 
BRANCH  13  20
ATOM     19  C   UNL     1       2.402   7.538  18.619  0.00  0.00    +0.000 C 
ATOM     20  O   UNL     1       3.545   6.722  18.834  0.00  0.00    +0.000 OA
ENDBRANCH  13  20
ENDBRANCH   1  18
TORSDOF 4
ENDMDL
MODEL 4
REMARK VINA RESULT:      -6.6      1.661      2.606
REMARK  Name = 
REMARK  7 active torsions:
REMARK  status: ('A' for Active; 'I' for Inactive)
REMARK    1  A    between atoms: C_1  and  O_2
REMARK    2  A    between atoms: O_2  and  C_3
REMARK    3  A    between atoms: C_8  and  C_9
REMARK    4  A    between atoms: C_9  and  C_11
REMARK    5  A    between atoms: C_12  and  C_13
REMARK    6  A    between atoms: N_15  and  C_16
REMARK    7  A    between atoms: C_17  and  N_18
REMARK                            x       y       z     vdW  Elec       q    Type
REMARK                         _______ _______ _______ _____ _____    ______ ____
ROOT
ATOM      1  C   UNL     1       4.709   4.236  18.430  0.00  0.00    +0.000 C 
ATOM      2  O   UNL     1       5.587   4.100  19.288  0.00  0.00    +0.000 OA
ENDROOT
BRANCH   1   3
ATOM      3  C   UNL     1       5.042   4.764  17.113  0.00  0.00    +0.000 A 
ATOM      4  C   UNL     1       4.822   6.104  16.656  0.00  0.00    +0.000 A 
ATOM      5  C   UNL     1       4.202   7.255  17.363  0.00  0.00    +0.000 C 
ATOM      6  N   UNL     1       5.311   6.301  15.425  0.00  0.00    +0.000 NA
ATOM      7  N   UNL     1       5.820   5.110  15.084  0.00  0.00    +0.000 N 
ATOM      8  C   UNL     1       6.614   5.007  13.885  0.00  0.00    +0.000 C 
ATOM      9  C   UNL     1       5.593   4.119  16.010  0.00  0.00    +0.000 A 
BRANCH   9  10
ATOM     10  N   UNL     1       5.919   2.826  15.775  0.00  0.00    +0.000 N 
ATOM     11  H   UNL     1       5.251   2.177  15.369  0.00  0.00    +0.000 HD
ATOM     12  H   UNL     1       6.878   2.584  15.525  0.00  0.00    +0.000 HD
ENDBRANCH   9  10
ENDBRANCH   1   3
BRANCH   1  18
ATOM     13  C   UNL     1       2.444   4.574  19.629  0.00  0.00    +0.000 A 
ATOM     14  C   UNL     1       1.171   4.054  19.918  0.00  0.00    +0.000 A 
ATOM     15  C   UNL     1       0.736   2.857  19.348  0.00  0.00    +0.000 A 
ATOM     16  C   UNL     1       1.569   2.154  18.490  0.00  0.00    +0.000 A 
ATOM     17  C   UNL     1       2.854   2.628  18.235  0.00  0.00    +0.000 A 
ATOM     18  C   UNL     1       3.321   3.826  18.817  0.00  0.00    +0.000 A 
BRANCH  13  20
ATOM     19  C   UNL     1       1.891   6.774  20.397  0.00  0.00    +0.000 C 
ATOM     20  O   UNL     1       2.867   5.790  20.089  0.00  0.00    +0.000 OA
ENDBRANCH  13  20
ENDBRANCH   1  18
TORSDOF 4
ENDMDL
MODEL 5
REMARK VINA RESULT:      -6.6      1.549      2.936
REMARK  Name = 
REMARK  7 active torsions:
REMARK  status: ('A' for Active; 'I' for Inactive)
REMARK    1  A    between atoms: C_1  and  O_2
REMARK    2  A    between atoms: O_2  and  C_3
REMARK    3  A    between atoms: C_8  and  C_9
REMARK    4  A    between atoms: C_9  and  C_11
REMARK    5  A    between atoms: C_12  and  C_13
REMARK    6  A    between atoms: N_15  and  C_16
REMARK    7  A    between atoms: C_17  and  N_18
REMARK                            x       y       z     vdW  Elec       q    Type
REMARK                         _______ _______ _______ _____ _____    ______ ____
ROOT
ATOM      1  C   UNL     1       5.138   4.497  19.138  0.00  0.00    +0.000 C 
ATOM      2  O   UNL     1       6.066   4.778  19.903  0.00  0.00    +0.000 OA
ENDROOT
BRANCH   1   3
ATOM      3  C   UNL     1       5.380   4.365  17.706  0.00  0.00    +0.000 A 
ATOM      4  C   UNL     1       4.414   3.997  16.714  0.00  0.00    +0.000 A 
ATOM      5  C   UNL     1       2.980   3.644  16.875  0.00  0.00    +0.000 C 
ATOM      6  N   UNL     1       4.924   4.044  15.477  0.00  0.00    +0.000 NA
ATOM      7  N   UNL     1       6.197   4.415  15.664  0.00  0.00    +0.000 N 
ATOM      8  C   UNL     1       6.999   4.761  14.518  0.00  0.00    +0.000 C 
ATOM      9  C   UNL     1       6.560   4.517  16.987  0.00  0.00    +0.000 A 
BRANCH   9  10
ATOM     10  N   UNL     1       7.839   4.753  17.364  0.00  0.00    +0.000 N 
ATOM     11  H   UNL     1       8.409   5.449  16.894  0.00  0.00    +0.000 HD
ATOM     12  H   UNL     1       8.105   4.648  18.344  0.00  0.00    +0.000 HD
ENDBRANCH   9  10
ENDBRANCH   1   3
BRANCH   1  18
ATOM     13  C   UNL     1       2.815   5.298  19.937  0.00  0.00    +0.000 A 
ATOM     14  C   UNL     1       1.595   4.962  20.549  0.00  0.00    +0.000 A 
ATOM     15  C   UNL     1       1.306   3.644  20.903  0.00  0.00    +0.000 A 
ATOM     16  C   UNL     1       2.235   2.641  20.663  0.00  0.00    +0.000 A 
ATOM     17  C   UNL     1       3.470   2.966  20.106  0.00  0.00    +0.000 A 
ATOM     18  C   UNL     1       3.790   4.295  19.759  0.00  0.00    +0.000 A 
BRANCH  13  20
ATOM     19  C   UNL     1       2.495   6.991  18.274  0.00  0.00    +0.000 C 
ATOM     20  O   UNL     1       3.092   6.558  19.488  0.00  0.00    +0.000 OA
ENDBRANCH  13  20
ENDBRANCH   1  18
TORSDOF 4
ENDMDL
MODEL 6
REMARK VINA RESULT:      -6.6      1.822      2.812
REMARK  Name = 
REMARK  7 active torsions:
REMARK  status: ('A' for Active; 'I' for Inactive)
REMARK    1  A    between atoms: C_1  and  O_2
REMARK    2  A    between atoms: O_2  and  C_3
REMARK    3  A    between atoms: C_8  and  C_9
REMARK    4  A    between atoms: C_9  and  C_11
REMARK    5  A    between atoms: C_12  and  C_13
REMARK    6  A    between atoms: N_15  and  C_16
REMARK    7  A    between atoms: C_17  and  N_18
REMARK                            x       y       z     vdW  Elec       q    Type
REMARK                         _______ _______ _______ _____ _____    ______ ____
ROOT
ATOM      1  C   UNL     1       3.387   3.902  17.749  0.00  0.00    +0.000 C 
ATOM      2  O   UNL     1       3.085   3.189  16.787  0.00  0.00    +0.000 OA
ENDROOT
BRANCH   1   3
ATOM      3  C   UNL     1       4.308   5.019  17.577  0.00  0.00    +0.000 A 
ATOM      4  C   UNL     1       3.980   6.410  17.668  0.00  0.00    +0.000 A 
ATOM      5  C   UNL     1       2.669   7.059  17.925  0.00  0.00    +0.000 C 
ATOM      6  N   UNL     1       5.063   7.190  17.543  0.00  0.00    +0.000 NA
ATOM      7  N   UNL     1       6.067   6.323  17.356  0.00  0.00    +0.000 N 
ATOM      8  C   UNL     1       7.423   6.810  17.382  0.00  0.00    +0.000 C 
ATOM      9  C   UNL     1       5.662   5.012  17.258  0.00  0.00    +0.000 A 
BRANCH   9  10
ATOM     10  N   UNL     1       6.523   4.017  16.939  0.00  0.00    +0.000 N 
ATOM     11  H   UNL     1       6.253   3.265  16.312  0.00  0.00    +0.000 HD
ATOM     12  H   UNL     1       7.523   4.210  16.886  0.00  0.00    +0.000 HD
ENDBRANCH   9  10
ENDBRANCH   1   3
BRANCH   1  18
ATOM     13  C   UNL     1       3.394   2.896  20.130  0.00  0.00    +0.000 A 
ATOM     14  C   UNL     1       2.668   2.634  21.303  0.00  0.00    +0.000 A 
ATOM     15  C   UNL     1       1.360   3.093  21.459  0.00  0.00    +0.000 A 
ATOM     16  C   UNL     1       0.751   3.813  20.441  0.00  0.00    +0.000 A 
ATOM     17  C   UNL     1       1.439   4.036  19.249  0.00  0.00    +0.000 A 
ATOM     18  C   UNL     1       2.755   3.562  19.064  0.00  0.00    +0.000 A 
BRANCH  13  20
ATOM     19  C   UNL     1       5.202   1.439  20.717  0.00  0.00    +0.000 C 
ATOM     20  O   UNL     1       4.707   2.548  19.981  0.00  0.00    +0.000 OA
ENDBRANCH  13  20
ENDBRANCH   1  18
TORSDOF 4
ENDMDL
MODEL 7
REMARK VINA RESULT:      -6.6      1.220      2.022
REMARK  Name = 
REMARK  7 active torsions:
REMARK  status: ('A' for Active; 'I' for Inactive)
REMARK    1  A    between atoms: C_1  and  O_2
REMARK    2  A    between atoms: O_2  and  C_3
REMARK    3  A    between atoms: C_8  and  C_9
REMARK    4  A    between atoms: C_9  and  C_11
REMARK    5  A    between atoms: C_12  and  C_13
REMARK    6  A    between atoms: N_15  and  C_16
REMARK    7  A    between atoms: C_17  and  N_18
REMARK                            x       y       z     vdW  Elec       q    Type
REMARK                         _______ _______ _______ _____ _____    ______ ____
ROOT
ATOM      1  C   UNL     1       5.246   4.555  19.026  0.00  0.00    +0.000 C 
ATOM      2  O   UNL     1       6.159   4.902  19.781  0.00  0.00    +0.000 OA
ENDROOT
BRANCH   1   3
ATOM      3  C   UNL     1       5.485   4.421  17.594  0.00  0.00    +0.000 A 
ATOM      4  C   UNL     1       4.495   4.163  16.590  0.00  0.00    +0.000 A 
ATOM      5  C   UNL     1       3.033   3.950  16.736  0.00  0.00    +0.000 C 
ATOM      6  N   UNL     1       5.018   4.178  15.357  0.00  0.00    +0.000 NA
ATOM      7  N   UNL     1       6.319   4.421  15.559  0.00  0.00    +0.000 N 
ATOM      8  C   UNL     1       7.160   4.703  14.423  0.00  0.00    +0.000 C 
ATOM      9  C   UNL     1       6.680   4.468  16.885  0.00  0.00    +0.000 A 
BRANCH   9  10
ATOM     10  N   UNL     1       7.972   4.572  17.275  0.00  0.00    +0.000 N 
ATOM     11  H   UNL     1       8.222   4.701  18.251  0.00  0.00    +0.000 HD
ATOM     12  H   UNL     1       8.697   4.066  16.765  0.00  0.00    +0.000 HD
ENDBRANCH   9  10
ENDBRANCH   1   3
BRANCH   1  18
ATOM     13  C   UNL     1       3.433   3.004  20.022  0.00  0.00    +0.000 A 
ATOM     14  C   UNL     1       2.157   2.897  20.599  0.00  0.00    +0.000 A 
ATOM     15  C   UNL     1       1.403   4.033  20.895  0.00  0.00    +0.000 A 
ATOM     16  C   UNL     1       1.906   5.294  20.607  0.00  0.00    +0.000 A 
ATOM     17  C   UNL     1       3.147   5.415  19.985  0.00  0.00    +0.000 A 
ATOM     18  C   UNL     1       3.917   4.278  19.660  0.00  0.00    +0.000 A 
BRANCH  13  20
ATOM     19  C   UNL     1       3.954   1.068  18.711  0.00  0.00    +0.000 C 
ATOM     20  O   UNL     1       4.240   1.921  19.810  0.00  0.00    +0.000 OA
ENDBRANCH  13  20
ENDBRANCH   1  18
TORSDOF 4
ENDMDL
MODEL 8
REMARK VINA RESULT:      -6.5      2.895      5.581
REMARK  Name = 
REMARK  7 active torsions:
REMARK  status: ('A' for Active; 'I' for Inactive)
REMARK    1  A    between atoms: C_1  and  O_2
REMARK    2  A    between atoms: O_2  and  C_3
REMARK    3  A    between atoms: C_8  and  C_9
REMARK    4  A    between atoms: C_9  and  C_11
REMARK    5  A    between atoms: C_12  and  C_13
REMARK    6  A    between atoms: N_15  and  C_16
REMARK    7  A    between atoms: C_17  and  N_18
REMARK                            x       y       z     vdW  Elec       q    Type
REMARK                         _______ _______ _______ _____ _____    ______ ____
ROOT
ATOM      1  C   UNL     1       3.769   5.348  18.012  0.00  0.00    +0.000 C 
ATOM      2  O   UNL     1       3.283   6.477  17.890  0.00  0.00    +0.000 OA
ENDROOT
BRANCH   1   3
ATOM      3  C   UNL     1       3.157   4.377  18.911  0.00  0.00    +0.000 A 
ATOM      4  C   UNL     1       2.997   2.975  18.662  0.00  0.00    +0.000 A 
ATOM      5  C   UNL     1       3.371   2.178  17.466  0.00  0.00    +0.000 C 
ATOM      6  N   UNL     1       2.472   2.336  19.716  0.00  0.00    +0.000 NA
ATOM      7  N   UNL     1       2.280   3.305  20.620  0.00  0.00    +0.000 N 
ATOM      8  C   UNL     1       1.908   2.941  21.964  0.00  0.00    +0.000 C 
ATOM      9  C   UNL     1       2.570   4.567  20.157  0.00  0.00    +0.000 A 
BRANCH   9  10
ATOM     10  N   UNL     1       2.311   5.677  20.888  0.00  0.00    +0.000 N 
ATOM     11  H   UNL     1       2.591   5.747  21.862  0.00  0.00    +0.000 HD
ATOM     12  H   UNL     1       2.301   6.591  20.434  0.00  0.00    +0.000 HD
ENDBRANCH   9  10
ENDBRANCH   1   3
BRANCH   1  18
ATOM     13  C   UNL     1       6.278   4.811  17.705  0.00  0.00    +0.000 A 
ATOM     14  C   UNL     1       7.330   4.552  16.810  0.00  0.00    +0.000 A 
ATOM     15  C   UNL     1       7.098   4.442  15.439  0.00  0.00    +0.000 A 
ATOM     16  C   UNL     1       5.814   4.601  14.937  0.00  0.00    +0.000 A 
ATOM     17  C   UNL     1       4.769   4.911  15.805  0.00  0.00    +0.000 A 
ATOM     18  C   UNL     1       4.986   5.047  17.192  0.00  0.00    +0.000 A 
BRANCH  13  20
ATOM     19  C   UNL     1       7.486   5.635  19.602  0.00  0.00    +0.000 C 
ATOM     20  O   UNL     1       6.450   4.828  19.061  0.00  0.00    +0.000 OA
ENDBRANCH  13  20
ENDBRANCH   1  18
TORSDOF 4
ENDMDL
MODEL 9
REMARK VINA RESULT:      -6.5      1.493      2.391
REMARK  Name = 
REMARK  7 active torsions:
REMARK  status: ('A' for Active; 'I' for Inactive)
REMARK    1  A    between atoms: C_1  and  O_2
REMARK    2  A    between atoms: O_2  and  C_3
REMARK    3  A    between atoms: C_8  and  C_9
REMARK    4  A    between atoms: C_9  and  C_11
REMARK    5  A    between atoms: C_12  and  C_13
REMARK    6  A    between atoms: N_15  and  C_16
REMARK    7  A    between atoms: C_17  and  N_18
REMARK                            x       y       z     vdW  Elec       q    Type
REMARK                         _______ _______ _______ _____ _____    ______ ____
ROOT
ATOM      1  C   UNL     1       5.385   4.445  18.421  0.00  0.00    +0.000 C 
ATOM      2  O   UNL     1       5.973   4.433  19.507  0.00  0.00    +0.000 OA
ENDROOT
BRANCH   1   3
ATOM      3  C   UNL     1       6.070   4.904  17.218  0.00  0.00    +0.000 A 
ATOM      4  C   UNL     1       7.086   5.912  17.153  0.00  0.00    +0.000 A 
ATOM      5  C   UNL     1       7.671   6.737  18.241  0.00  0.00    +0.000 C 
ATOM      6  N   UNL     1       7.576   6.050  15.914  0.00  0.00    +0.000 NA
ATOM      7  N   UNL     1       6.880   5.165  15.189  0.00  0.00    +0.000 N 
ATOM      8  C   UNL     1       7.287   4.900  13.832  0.00  0.00    +0.000 C 
ATOM      9  C   UNL     1       5.886   4.525  15.893  0.00  0.00    +0.000 A 
BRANCH   9  10
ATOM     10  N   UNL     1       5.000   3.696  15.292  0.00  0.00    +0.000 N 
ATOM     11  H   UNL     1       5.268   2.766  14.987  0.00  0.00    +0.000 HD
ATOM     12  H   UNL     1       4.014   3.737  15.549  0.00  0.00    +0.000 HD
ENDBRANCH   9  10
ENDBRANCH   1   3
BRANCH   1  18
ATOM     13  C   UNL     1       2.836   4.752  18.129  0.00  0.00    +0.000 A 
ATOM     14  C   UNL     1       1.562   4.162  18.177  0.00  0.00    +0.000 A 
ATOM     15  C   UNL     1       1.409   2.797  18.421  0.00  0.00    +0.000 A 
ATOM     16  C   UNL     1       2.526   2.001  18.634  0.00  0.00    +0.000 A 
ATOM     17  C   UNL     1       3.793   2.580  18.643  0.00  0.00    +0.000 A 
ATOM     18  C   UNL     1       3.967   3.962  18.418  0.00  0.00    +0.000 A 
BRANCH  13  20
ATOM     19  C   UNL     1       2.643   7.063  18.727  0.00  0.00    +0.000 C 
ATOM     20  O   UNL     1       3.030   6.063  17.796  0.00  0.00    +0.000 OA
ENDBRANCH  13  20
ENDBRANCH   1  18
TORSDOF 4
ENDMDL
