MODEL 1
REMARK VINA RESULT:      -6.7      0.000      0.000
REMARK  Name = 
REMARK  9 active torsions:
REMARK  status: ('A' for Active; 'I' for Inactive)
REMARK    1  A    between atoms: C_1  and  C_2
REMARK    2  A    between atoms: C_2  and  C_3
REMARK    3  A    between atoms: C_4  and  C_5
REMARK    4  A    between atoms: C_5  and  C_6
REMARK    5  A    between atoms: C_7  and  O_8
REMARK    6  A    between atoms: C_11  and  C_12
REMARK    7  A    between atoms: C_12  and  C_13
REMARK    8  A    between atoms: C_13  and  O_15
REMARK    9  A    between atoms: O_15  and  C_16
REMARK                            x       y       z     vdW  Elec       q    Type
REMARK                         _______ _______ _______ _____ _____    ______ ____
ROOT
ATOM      1  C   UNL     1       4.417   4.452  17.632  0.00  0.00    +0.000 C 
ATOM      2  C   UNL     1       4.963   4.378  19.067  0.00  0.00    +0.000 C 
ATOM      3  C   UNL     1       6.282   5.129  18.962  0.00  0.00    +0.000 C 
ATOM      4  C   UNL     1       6.851   4.721  17.604  0.00  0.00    +0.000 C 
ATOM      5  C   UNL     1       5.661   4.282  16.728  0.00  0.00    +0.000 C 
ENDROOT
BRANCH   2   6
ATOM      6  O   UNL     1       5.204   3.061  19.535  0.00  0.00    +0.000 OA
ATOM      7  H   UNL     1       5.995   3.071  20.102  0.00  0.00    +0.000 HD
ENDBRANCH   2   6
BRANCH   1   8
ATOM      8  C   UNL     1       3.239   3.518  17.308  0.00  0.00    +0.000 C 
BRANCH   8  10
ATOM      9  C   UNL     1       1.124   3.522  18.694  0.00  0.00    +0.000 C 
ATOM     10  C   UNL     1       1.856   3.985  17.667  0.00  0.00    +0.000 C 
BRANCH   9  12
ATOM     11  C   UNL     1       1.403   3.013  21.125  0.00  0.00    +0.000 C 
ATOM     12  C   UNL     1       1.566   2.504  19.703  0.00  0.00    +0.000 C 
ENDBRANCH   9  12
ENDBRANCH   8  10
ENDBRANCH   1   8
BRANCH   5  13
ATOM     13  C   UNL     1       5.559   5.086  15.422  0.00  0.00    +0.000 C 
BRANCH  13  14
ATOM     14  C   UNL     1       6.687   4.772  14.460  0.00  0.00    +0.000 C 
ATOM     15  O   UNL     1       7.628   5.514  14.211  0.00  0.00    +0.000 OA
BRANCH  14  16
ATOM     16  O   UNL     1       6.497   3.539  13.913  0.00  0.00    +0.000 OA
ATOM     17  C   UNL     1       5.991   3.559  12.577  0.00  0.00    +0.000 C 
ENDBRANCH  14  16
ENDBRANCH  13  14
ENDBRANCH   5  13
TORSDOF 7
ENDMDL
MODEL 2
REMARK VINA RESULT:      -6.6      1.757      2.005
REMARK  Name = 
REMARK  9 active torsions:
REMARK  status: ('A' for Active; 'I' for Inactive)
REMARK    1  A    between atoms: C_1  and  C_2
REMARK    2  A    between atoms: C_2  and  C_3
REMARK    3  A    between atoms: C_4  and  C_5
REMARK    4  A    between atoms: C_5  and  C_6
REMARK    5  A    between atoms: C_7  and  O_8
REMARK    6  A    between atoms: C_11  and  C_12
REMARK    7  A    between atoms: C_12  and  C_13
REMARK    8  A    between atoms: C_13  and  O_15
REMARK    9  A    between atoms: O_15  and  C_16
REMARK                            x       y       z     vdW  Elec       q    Type
REMARK                         _______ _______ _______ _____ _____    ______ ____
ROOT
ATOM      1  C   UNL     1       3.602   4.667  17.723  0.00  0.00    +0.000 C 
ATOM      2  C   UNL     1       3.008   5.902  18.419  0.00  0.00    +0.000 C 
ATOM      3  C   UNL     1       3.676   7.054  17.684  0.00  0.00    +0.000 C 
ATOM      4  C   UNL     1       5.107   6.578  17.441  0.00  0.00    +0.000 C 
ATOM      5  C   UNL     1       5.081   5.037  17.460  0.00  0.00    +0.000 C 
ENDROOT
BRANCH   2   6
ATOM      6  O   UNL     1       3.299   5.991  19.804  0.00  0.00    +0.000 OA
ATOM      7  H   UNL     1       4.262   5.920  19.926  0.00  0.00    +0.000 HD
ENDBRANCH   2   6
BRANCH   1   8
ATOM      8  C   UNL     1       3.379   3.319  18.429  0.00  0.00    +0.000 C 
BRANCH   8  10
ATOM      9  C   UNL     1       1.013   2.661  19.031  0.00  0.00    +0.000 C 
ATOM     10  C   UNL     1       2.070   2.618  18.202  0.00  0.00    +0.000 C 
BRANCH   9  12
ATOM     11  C   UNL     1       1.475   2.697  21.487  0.00  0.00    +0.000 C 
ATOM     12  C   UNL     1       0.919   3.460  20.296  0.00  0.00    +0.000 C 
ENDBRANCH   9  12
ENDBRANCH   8  10
ENDBRANCH   1   8
BRANCH   5  13
ATOM     13  C   UNL     1       5.625   4.419  16.162  0.00  0.00    +0.000 C 
BRANCH  13  14
ATOM     14  C   UNL     1       7.128   4.563  16.038  0.00  0.00    +0.000 C 
ATOM     15  O   UNL     1       7.929   4.411  16.952  0.00  0.00    +0.000 OA
BRANCH  14  16
ATOM     16  O   UNL     1       7.456   4.890  14.757  0.00  0.00    +0.000 OA
ATOM     17  C   UNL     1       6.580   4.345  13.768  0.00  0.00    +0.000 C 
ENDBRANCH  14  16
ENDBRANCH  13  14
ENDBRANCH   5  13
TORSDOF 7
ENDMDL
MODEL 3
REMARK VINA RESULT:      -6.5      1.817      5.771
REMARK  Name = 
REMARK  9 active torsions:
REMARK  status: ('A' for Active; 'I' for Inactive)
REMARK    1  A    between atoms: C_1  and  C_2
REMARK    2  A    between atoms: C_2  and  C_3
REMARK    3  A    between atoms: C_4  and  C_5
REMARK    4  A    between atoms: C_5  and  C_6
REMARK    5  A    between atoms: C_7  and  O_8
REMARK    6  A    between atoms: C_11  and  C_12
REMARK    7  A    between atoms: C_12  and  C_13
REMARK    8  A    between atoms: C_13  and  O_15
REMARK    9  A    between atoms: O_15  and  C_16
REMARK                            x       y       z     vdW  Elec       q    Type
REMARK                         _______ _______ _______ _____ _____    ______ ____
ROOT
ATOM      1  C   UNL     1       5.967   4.058  15.828  0.00  0.00    +0.000 C 
ATOM      2  C   UNL     1       7.311   4.695  16.216  0.00  0.00    +0.000 C 
ATOM      3  C   UNL     1       7.318   4.562  17.732  0.00  0.00    +0.000 C 
ATOM      4  C   UNL     1       5.874   4.833  18.150  0.00  0.00    +0.000 C 
ATOM      5  C   UNL     1       4.983   4.510  16.933  0.00  0.00    +0.000 C 
ENDROOT
BRANCH   2   6
ATOM      6  O   UNL     1       7.437   6.062  15.860  0.00  0.00    +0.000 OA
ATOM      7  H   UNL     1       6.549   6.426  15.701  0.00  0.00    +0.000 HD
ENDBRANCH   2   6
BRANCH   1   8
ATOM      8  C   UNL     1       5.492   4.306  14.386  0.00  0.00    +0.000 C 
BRANCH   8  10
ATOM      9  C   UNL     1       6.402   3.426  12.197  0.00  0.00    +0.000 C 
ATOM     10  C   UNL     1       6.511   4.206  13.286  0.00  0.00    +0.000 C 
BRANCH   9  12
ATOM     11  C   UNL     1       4.136   3.355  11.144  0.00  0.00    +0.000 C 
ATOM     12  C   UNL     1       5.226   2.564  11.846  0.00  0.00    +0.000 C 
ENDBRANCH   9  12
ENDBRANCH   8  10
ENDBRANCH   1   8
BRANCH   5  13
ATOM     13  C   UNL     1       3.915   3.450  17.246  0.00  0.00    +0.000 C 
BRANCH  13  14
ATOM     14  C   UNL     1       2.575   4.065  17.595  0.00  0.00    +0.000 C 
ATOM     15  O   UNL     1       2.383   5.252  17.826  0.00  0.00    +0.000 OA
BRANCH  14  16
ATOM     16  O   UNL     1       1.615   3.098  17.616  0.00  0.00    +0.000 OA
ATOM     17  C   UNL     1       1.632   2.278  18.786  0.00  0.00    +0.000 C 
ENDBRANCH  14  16
ENDBRANCH  13  14
ENDBRANCH   5  13
TORSDOF 7
ENDMDL
MODEL 4
REMARK VINA RESULT:      -6.1      1.533      5.928
REMARK  Name = 
REMARK  9 active torsions:
REMARK  status: ('A' for Active; 'I' for Inactive)
REMARK    1  A    between atoms: C_1  and  C_2
REMARK    2  A    between atoms: C_2  and  C_3
REMARK    3  A    between atoms: C_4  and  C_5
REMARK    4  A    between atoms: C_5  and  C_6
REMARK    5  A    between atoms: C_7  and  O_8
REMARK    6  A    between atoms: C_11  and  C_12
REMARK    7  A    between atoms: C_12  and  C_13
REMARK    8  A    between atoms: C_13  and  O_15
REMARK    9  A    between atoms: O_15  and  C_16
REMARK                            x       y       z     vdW  Elec       q    Type
REMARK                         _______ _______ _______ _____ _____    ______ ____
ROOT
ATOM      1  C   UNL     1       6.012   4.009  15.935  0.00  0.00    +0.000 C 
ATOM      2  C   UNL     1       7.335   4.733  16.231  0.00  0.00    +0.000 C 
ATOM      3  C   UNL     1       7.421   4.665  17.748  0.00  0.00    +0.000 C 
ATOM      4  C   UNL     1       5.986   4.875  18.226  0.00  0.00    +0.000 C 
ATOM      5  C   UNL     1       5.058   4.454  17.069  0.00  0.00    +0.000 C 
ENDROOT
BRANCH   2   6
ATOM      6  O   UNL     1       7.368   6.088  15.814  0.00  0.00    +0.000 OA
ATOM      7  H   UNL     1       6.587   6.264  15.261  0.00  0.00    +0.000 HD
ENDBRANCH   2   6
BRANCH   1   8
ATOM      8  C   UNL     1       5.456   4.170  14.510  0.00  0.00    +0.000 C 
BRANCH   8  10
ATOM      9  C   UNL     1       6.360   3.492  12.248  0.00  0.00    +0.000 C 
ATOM     10  C   UNL     1       6.440   4.218  13.376  0.00  0.00    +0.000 C 
BRANCH   9  12
ATOM     11  C   UNL     1       4.096   3.275  11.209  0.00  0.00    +0.000 C 
ATOM     12  C   UNL     1       5.250   2.552  11.884  0.00  0.00    +0.000 C 
ENDBRANCH   9  12
ENDBRANCH   8  10
ENDBRANCH   1   8
BRANCH   5  13
ATOM     13  C   UNL     1       4.066   3.352  17.476  0.00  0.00    +0.000 C 
BRANCH  13  14
ATOM     14  C   UNL     1       4.016   3.145  18.976  0.00  0.00    +0.000 C 
ATOM     15  O   UNL     1       4.683   2.329  19.599  0.00  0.00    +0.000 OA
BRANCH  14  16
ATOM     16  O   UNL     1       3.114   4.004  19.530  0.00  0.00    +0.000 OA
ATOM     17  C   UNL     1       2.384   3.462  20.632  0.00  0.00    +0.000 C 
ENDBRANCH  14  16
ENDBRANCH  13  14
ENDBRANCH   5  13
TORSDOF 7
ENDMDL
MODEL 5
REMARK VINA RESULT:      -6.0      0.917      1.504
REMARK  Name = 
REMARK  9 active torsions:
REMARK  status: ('A' for Active; 'I' for Inactive)
REMARK    1  A    between atoms: C_1  and  C_2
REMARK    2  A    between atoms: C_2  and  C_3
REMARK    3  A    between atoms: C_4  and  C_5
REMARK    4  A    between atoms: C_5  and  C_6
REMARK    5  A    between atoms: C_7  and  O_8
REMARK    6  A    between atoms: C_11  and  C_12
REMARK    7  A    between atoms: C_12  and  C_13
REMARK    8  A    between atoms: C_13  and  O_15
REMARK    9  A    between atoms: O_15  and  C_16
REMARK                            x       y       z     vdW  Elec       q    Type
REMARK                         _______ _______ _______ _____ _____    ______ ____
ROOT
ATOM      1  C   UNL     1       5.063   5.377  17.771  0.00  0.00    +0.000 C 
ATOM      2  C   UNL     1       5.852   5.188  19.076  0.00  0.00    +0.000 C 
ATOM      3  C   UNL     1       7.293   5.380  18.625  0.00  0.00    +0.000 C 
ATOM      4  C   UNL     1       7.362   4.707  17.256  0.00  0.00    +0.000 C 
ATOM      5  C   UNL     1       5.930   4.698  16.684  0.00  0.00    +0.000 C 
ENDROOT
BRANCH   2   6
ATOM      6  O   UNL     1       5.708   3.908  19.668  0.00  0.00    +0.000 OA
ATOM      7  H   UNL     1       6.585   3.489  19.726  0.00  0.00    +0.000 HD
ENDBRANCH   2   6
BRANCH   1   8
ATOM      8  C   UNL     1       3.589   4.938  17.802  0.00  0.00    +0.000 C 
BRANCH   8  10
ATOM      9  C   UNL     1       2.192   2.836  17.652  0.00  0.00    +0.000 C 
ATOM     10  C   UNL     1       3.255   3.569  17.280  0.00  0.00    +0.000 C 
BRANCH   9  12
ATOM     11  C   UNL     1       1.360   2.739  20.008  0.00  0.00    +0.000 C 
ATOM     12  C   UNL     1       1.115   3.266  18.603  0.00  0.00    +0.000 C 
ENDBRANCH   9  12
ENDBRANCH   8  10
ENDBRANCH   1   8
BRANCH   5  13
ATOM     13  C   UNL     1       5.831   5.402  15.321  0.00  0.00    +0.000 C 
BRANCH  13  14
ATOM     14  C   UNL     1       6.701   4.746  14.268  0.00  0.00    +0.000 C 
ATOM     15  O   UNL     1       6.438   3.702  13.685  0.00  0.00    +0.000 OA
BRANCH  14  16
ATOM     16  O   UNL     1       7.823   5.493  14.066  0.00  0.00    +0.000 OA
ATOM     17  C   UNL     1       8.217   5.605  12.697  0.00  0.00    +0.000 C 
ENDBRANCH  14  16
ENDBRANCH  13  14
ENDBRANCH   5  13
TORSDOF 7
ENDMDL
MODEL 6
REMARK VINA RESULT:      -6.0      1.743      6.007
REMARK  Name = 
REMARK  9 active torsions:
REMARK  status: ('A' for Active; 'I' for Inactive)
REMARK    1  A    between atoms: C_1  and  C_2
REMARK    2  A    between atoms: C_2  and  C_3
REMARK    3  A    between atoms: C_4  and  C_5
REMARK    4  A    between atoms: C_5  and  C_6
REMARK    5  A    between atoms: C_7  and  O_8
REMARK    6  A    between atoms: C_11  and  C_12
REMARK    7  A    between atoms: C_12  and  C_13
REMARK    8  A    between atoms: C_13  and  O_15
REMARK    9  A    between atoms: O_15  and  C_16
REMARK                            x       y       z     vdW  Elec       q    Type
REMARK                         _______ _______ _______ _____ _____    ______ ____
ROOT
ATOM      1  C   UNL     1       5.960   4.068  15.830  0.00  0.00    +0.000 C 
ATOM      2  C   UNL     1       7.296   4.709  16.238  0.00  0.00    +0.000 C 
ATOM      3  C   UNL     1       7.263   4.613  17.757  0.00  0.00    +0.000 C 
ATOM      4  C   UNL     1       5.809   4.898  18.130  0.00  0.00    +0.000 C 
ATOM      5  C   UNL     1       4.949   4.549  16.898  0.00  0.00    +0.000 C 
ENDROOT
BRANCH   2   6
ATOM      6  O   UNL     1       7.437   6.066  15.853  0.00  0.00    +0.000 OA
ATOM      7  H   UNL     1       7.762   6.099  14.937  0.00  0.00    +0.000 HD
ENDBRANCH   2   6
BRANCH   1   8
ATOM      8  C   UNL     1       5.525   4.282  14.371  0.00  0.00    +0.000 C 
BRANCH   8  10
ATOM      9  C   UNL     1       6.575   3.538  12.195  0.00  0.00    +0.000 C 
ATOM     10  C   UNL     1       6.592   4.281  13.314  0.00  0.00    +0.000 C 
BRANCH   9  12
ATOM     11  C   UNL     1       6.003   1.298  11.244  0.00  0.00    +0.000 C 
ATOM     12  C   UNL     1       5.469   2.623  11.763  0.00  0.00    +0.000 C 
ENDBRANCH   9  12
ENDBRANCH   8  10
ENDBRANCH   1   8
BRANCH   5  13
ATOM     13  C   UNL     1       3.869   3.501  17.207  0.00  0.00    +0.000 C 
BRANCH  13  14
ATOM     14  C   UNL     1       3.174   3.759  18.529  0.00  0.00    +0.000 C 
ATOM     15  O   UNL     1       3.285   3.066  19.532  0.00  0.00    +0.000 OA
BRANCH  14  16
ATOM     16  O   UNL     1       2.406   4.881  18.433  0.00  0.00    +0.000 OA
ATOM     17  C   UNL     1       2.356   5.663  19.628  0.00  0.00    +0.000 C 
ENDBRANCH  14  16
ENDBRANCH  13  14
ENDBRANCH   5  13
TORSDOF 7
ENDMDL
MODEL 7
REMARK VINA RESULT:      -6.0      1.606      2.292
REMARK  Name = 
REMARK  9 active torsions:
REMARK  status: ('A' for Active; 'I' for Inactive)
REMARK    1  A    between atoms: C_1  and  C_2
REMARK    2  A    between atoms: C_2  and  C_3
REMARK    3  A    between atoms: C_4  and  C_5
REMARK    4  A    between atoms: C_5  and  C_6
REMARK    5  A    between atoms: C_7  and  O_8
REMARK    6  A    between atoms: C_11  and  C_12
REMARK    7  A    between atoms: C_12  and  C_13
REMARK    8  A    between atoms: C_13  and  O_15
REMARK    9  A    between atoms: O_15  and  C_16
REMARK                            x       y       z     vdW  Elec       q    Type
REMARK                         _______ _______ _______ _____ _____    ______ ____
ROOT
ATOM      1  C   UNL     1       4.854   4.881  17.564  0.00  0.00    +0.000 C 
ATOM      2  C   UNL     1       5.493   4.613  18.937  0.00  0.00    +0.000 C 
ATOM      3  C   UNL     1       6.933   5.061  18.728  0.00  0.00    +0.000 C 
ATOM      4  C   UNL     1       7.275   4.609  17.309  0.00  0.00    +0.000 C 
ATOM      5  C   UNL     1       5.945   4.489  16.539  0.00  0.00    +0.000 C 
ENDROOT
BRANCH   2   6
ATOM      6  O   UNL     1       5.473   3.253  19.337  0.00  0.00    +0.000 OA
ATOM      7  H   UNL     1       4.550   2.984  19.485  0.00  0.00    +0.000 HD
ENDBRANCH   2   6
BRANCH   1   8
ATOM      8  C   UNL     1       3.473   4.248  17.326  0.00  0.00    +0.000 C 
BRANCH   8  10
ATOM      9  C   UNL     1       2.094   6.172  18.215  0.00  0.00    +0.000 C 
ATOM     10  C   UNL     1       2.293   4.856  18.031  0.00  0.00    +0.000 C 
BRANCH   9  12
ATOM     11  C   UNL     1       2.328   8.640  17.891  0.00  0.00    +0.000 C 
ATOM     12  C   UNL     1       2.971   7.276  17.703  0.00  0.00    +0.000 C 
ENDBRANCH   9  12
ENDBRANCH   8  10
ENDBRANCH   1   8
BRANCH   5  13
ATOM     13  C   UNL     1       5.911   5.363  15.275  0.00  0.00    +0.000 C 
BRANCH  13  14
ATOM     14  C   UNL     1       6.878   4.881  14.213  0.00  0.00    +0.000 C 
ATOM     15  O   UNL     1       7.834   5.516  13.787  0.00  0.00    +0.000 OA
BRANCH  14  16
ATOM     16  O   UNL     1       6.523   3.631  13.801  0.00  0.00    +0.000 OA
ATOM     17  C   UNL     1       6.230   3.533  12.405  0.00  0.00    +0.000 C 
ENDBRANCH  14  16
ENDBRANCH  13  14
ENDBRANCH   5  13
TORSDOF 7
ENDMDL
MODEL 8
REMARK VINA RESULT:      -6.0      1.748      5.647
REMARK  Name = 
REMARK  9 active torsions:
REMARK  status: ('A' for Active; 'I' for Inactive)
REMARK    1  A    between atoms: C_1  and  C_2
REMARK    2  A    between atoms: C_2  and  C_3
REMARK    3  A    between atoms: C_4  and  C_5
REMARK    4  A    between atoms: C_5  and  C_6
REMARK    5  A    between atoms: C_7  and  O_8
REMARK    6  A    between atoms: C_11  and  C_12
REMARK    7  A    between atoms: C_12  and  C_13
REMARK    8  A    between atoms: C_13  and  O_15
REMARK    9  A    between atoms: O_15  and  C_16
REMARK                            x       y       z     vdW  Elec       q    Type
REMARK                         _______ _______ _______ _____ _____    ______ ____
ROOT
ATOM      1  C   UNL     1       5.727   4.204  15.988  0.00  0.00    +0.000 C 
ATOM      2  C   UNL     1       7.185   4.596  16.278  0.00  0.00    +0.000 C 
ATOM      3  C   UNL     1       7.175   4.830  17.782  0.00  0.00    +0.000 C 
ATOM      4  C   UNL     1       5.835   5.511  18.057  0.00  0.00    +0.000 C 
ATOM      5  C   UNL     1       4.883   5.117  16.910  0.00  0.00    +0.000 C 
ENDROOT
BRANCH   2   6
ATOM      6  O   UNL     1       7.618   5.774  15.618  0.00  0.00    +0.000 OA
ATOM      7  H   UNL     1       8.472   5.594  15.188  0.00  0.00    +0.000 HD
ENDBRANCH   2   6
BRANCH   1   8
ATOM      8  C   UNL     1       5.309   4.202  14.508  0.00  0.00    +0.000 C 
BRANCH   8  10
ATOM      9  C   UNL     1       6.408   3.488  12.345  0.00  0.00    +0.000 C 
ATOM     10  C   UNL     1       6.398   4.219  13.473  0.00  0.00    +0.000 C 
BRANCH   9  12
ATOM     11  C   UNL     1       4.172   3.337  11.237  0.00  0.00    +0.000 C 
ATOM     12  C   UNL     1       5.316   2.571  11.881  0.00  0.00    +0.000 C 
ENDBRANCH   9  12
ENDBRANCH   8  10
ENDBRANCH   1   8
BRANCH   5  13
ATOM     13  C   UNL     1       3.602   4.430  17.412  0.00  0.00    +0.000 C 
BRANCH  13  14
ATOM     14  C   UNL     1       3.722   3.964  18.848  0.00  0.00    +0.000 C 
ATOM     15  O   UNL     1       3.407   4.621  19.832  0.00  0.00    +0.000 OA
BRANCH  14  16
ATOM     16  O   UNL     1       4.234   2.701  18.881  0.00  0.00    +0.000 OA
ATOM     17  C   UNL     1       3.442   1.727  18.200  0.00  0.00    +0.000 C 
ENDBRANCH  14  16
ENDBRANCH  13  14
ENDBRANCH   5  13
TORSDOF 7
ENDMDL
MODEL 9
REMARK VINA RESULT:      -5.9      1.737      5.959
REMARK  Name = 
REMARK  9 active torsions:
REMARK  status: ('A' for Active; 'I' for Inactive)
REMARK    1  A    between atoms: C_1  and  C_2
REMARK    2  A    between atoms: C_2  and  C_3
REMARK    3  A    between atoms: C_4  and  C_5
REMARK    4  A    between atoms: C_5  and  C_6
REMARK    5  A    between atoms: C_7  and  O_8
REMARK    6  A    between atoms: C_11  and  C_12
REMARK    7  A    between atoms: C_12  and  C_13
REMARK    8  A    between atoms: C_13  and  O_15
REMARK    9  A    between atoms: O_15  and  C_16
REMARK                            x       y       z     vdW  Elec       q    Type
REMARK                         _______ _______ _______ _____ _____    ______ ____
ROOT
ATOM      1  C   UNL     1       5.914   4.120  16.156  0.00  0.00    +0.000 C 
ATOM      2  C   UNL     1       7.261   4.748  16.549  0.00  0.00    +0.000 C 
ATOM      3  C   UNL     1       7.198   4.747  18.069  0.00  0.00    +0.000 C 
ATOM      4  C   UNL     1       5.747   5.098  18.395  0.00  0.00    +0.000 C 
ATOM      5  C   UNL     1       4.899   4.697  17.172  0.00  0.00    +0.000 C 
ENDROOT
BRANCH   2   6
ATOM      6  O   UNL     1       7.448   6.073  16.082  0.00  0.00    +0.000 OA
ATOM      7  H   UNL     1       7.119   6.692  16.758  0.00  0.00    +0.000 HD
ENDBRANCH   2   6
BRANCH   1   8
ATOM      8  C   UNL     1       5.510   4.256  14.678  0.00  0.00    +0.000 C 
BRANCH   8  10
ATOM      9  C   UNL     1       6.542   3.645  12.452  0.00  0.00    +0.000 C 
ATOM     10  C   UNL     1       6.605   4.251  13.649  0.00  0.00    +0.000 C 
BRANCH   9  12
ATOM     11  C   UNL     1       5.750   1.586  11.275  0.00  0.00    +0.000 C 
ATOM     12  C   UNL     1       5.355   2.917  11.895  0.00  0.00    +0.000 C 
ENDBRANCH   9  12
ENDBRANCH   8  10
ENDBRANCH   1   8
BRANCH   5  13
ATOM     13  C   UNL     1       3.782   3.701  17.525  0.00  0.00    +0.000 C 
BRANCH  13  14
ATOM     14  C   UNL     1       2.610   4.369  18.214  0.00  0.00    +0.000 C 
ATOM     15  O   UNL     1       2.075   5.407  17.849  0.00  0.00    +0.000 OA
BRANCH  14  16
ATOM     16  O   UNL     1       2.241   3.639  19.304  0.00  0.00    +0.000 OA
ATOM     17  C   UNL     1       2.515   4.272  20.556  0.00  0.00    +0.000 C 
ENDBRANCH  14  16
ENDBRANCH  13  14
ENDBRANCH   5  13
TORSDOF 7
ENDMDL
