MODEL 1
REMARK VINA RESULT:      -7.8      0.000      0.000
REMARK  Name = 
REMARK  2 active torsions:
REMARK  status: ('A' for Active; 'I' for Inactive)
REMARK    1  A    between atoms: C_2  and  C_3
REMARK    2  A    between atoms: C_2  and  C_10
REMARK                            x       y       z     vdW  Elec       q    Type
REMARK                         _______ _______ _______ _____ _____    ______ ____
ROOT
ATOM      1  C   UNL     1       3.605   4.980  17.209  0.00  0.00    +0.000 C 
ATOM      2  C   UNL     1       2.601   3.809  17.205  0.00  0.00    +0.000 C 
ATOM      3  O   UNL     1       2.787   2.925  18.322  0.00  0.00    +0.000 OA
ATOM      4  C   UNL     1       2.903   3.626  19.570  0.00  0.00    +0.000 C 
ATOM      5  C   UNL     1       3.455   2.626  20.607  0.00  0.00    +0.000 C 
ATOM      6  C   UNL     1       2.433   2.573  21.736  0.00  0.00    +0.000 C 
ATOM      7  C   UNL     1       1.126   2.928  21.055  0.00  0.00    +0.000 C 
ATOM      8  C   UNL     1       1.533   4.056  20.119  0.00  0.00    +0.000 C 
ATOM      9  O   UNL     1       3.826   4.720  19.511  0.00  0.00    +0.000 OA
ATOM     10  O   UNL     1       3.366   5.637  18.467  0.00  0.00    +0.000 OA
ENDROOT
BRANCH   1  12
ATOM     11  C   UNL     1       5.483   3.540  16.306  0.00  0.00    +0.000 C 
ATOM     12  C   UNL     1       5.088   4.651  16.963  0.00  0.00    +0.000 C 
BRANCH  12  13
ATOM     13  C   UNL     1       6.140   5.596  17.453  0.00  0.00    +0.000 A 
ATOM     14  C   UNL     1       7.007   5.228  18.504  0.00  0.00    +0.000 A 
ATOM     15  C   UNL     1       7.961   6.116  19.014  0.00  0.00    +0.000 A 
ATOM     16  C   UNL     1       8.082   7.381  18.462  0.00  0.00    +0.000 A 
ATOM     17  F   UNL     1       8.987   8.236  18.953  0.00  0.00    +0.000 F 
ATOM     18  C   UNL     1       7.271   7.768  17.406  0.00  0.00    +0.000 A 
ATOM     19  C   UNL     1       6.309   6.881  16.907  0.00  0.00    +0.000 A 
ENDBRANCH  12  13
ENDBRANCH   1  12
TORSDOF 2
ENDMDL
MODEL 2
REMARK VINA RESULT:      -7.8      0.087      1.106
REMARK  Name = 
REMARK  2 active torsions:
REMARK  status: ('A' for Active; 'I' for Inactive)
REMARK    1  A    between atoms: C_2  and  C_3
REMARK    2  A    between atoms: C_2  and  C_10
REMARK                            x       y       z     vdW  Elec       q    Type
REMARK                         _______ _______ _______ _____ _____    ______ ____
ROOT
ATOM      1  C   UNL     1       3.558   4.902  17.154  0.00  0.00    +0.000 C 
ATOM      2  C   UNL     1       2.588   3.703  17.173  0.00  0.00    +0.000 C 
ATOM      3  O   UNL     1       2.777   2.865  18.324  0.00  0.00    +0.000 OA
ATOM      4  C   UNL     1       2.849   3.613  19.548  0.00  0.00    +0.000 C 
ATOM      5  C   UNL     1       3.409   2.666  20.630  0.00  0.00    +0.000 C 
ATOM      6  C   UNL     1       2.368   2.624  21.742  0.00  0.00    +0.000 C 
ATOM      7  C   UNL     1       1.065   2.915  21.024  0.00  0.00    +0.000 C 
ATOM      8  C   UNL     1       1.457   4.022  20.056  0.00  0.00    +0.000 C 
ATOM      9  O   UNL     1       3.741   4.730  19.468  0.00  0.00    +0.000 OA
ATOM     10  O   UNL     1       3.275   5.596  18.383  0.00  0.00    +0.000 OA
ENDROOT
BRANCH   1  12
ATOM     11  C   UNL     1       5.491   3.522  16.276  0.00  0.00    +0.000 C 
ATOM     12  C   UNL     1       5.053   4.609  16.947  0.00  0.00    +0.000 C 
BRANCH  12  13
ATOM     13  C   UNL     1       6.071   5.562  17.492  0.00  0.00    +0.000 A 
ATOM     14  C   UNL     1       6.185   6.869  16.973  0.00  0.00    +0.000 A 
ATOM     15  C   UNL     1       7.166   7.757  17.428  0.00  0.00    +0.000 A 
ATOM     16  C   UNL     1       8.034   7.361  18.432  0.00  0.00    +0.000 A 
ATOM     17  F   UNL     1       8.979   8.204  18.865  0.00  0.00    +0.000 F 
ATOM     18  C   UNL     1       7.932   6.095  18.990  0.00  0.00    +0.000 A 
ATOM     19  C   UNL     1       6.958   5.205  18.522  0.00  0.00    +0.000 A 
ENDBRANCH  12  13
ENDBRANCH   1  12
TORSDOF 2
ENDMDL
MODEL 3
REMARK VINA RESULT:      -7.4      1.336      2.293
REMARK  Name = 
REMARK  2 active torsions:
REMARK  status: ('A' for Active; 'I' for Inactive)
REMARK    1  A    between atoms: C_2  and  C_3
REMARK    2  A    between atoms: C_2  and  C_10
REMARK                            x       y       z     vdW  Elec       q    Type
REMARK                         _______ _______ _______ _____ _____    ______ ____
ROOT
ATOM      1  C   UNL     1       4.325   3.289  17.268  0.00  0.00    +0.000 C 
ATOM      2  C   UNL     1       4.528   3.268  18.797  0.00  0.00    +0.000 C 
ATOM      3  O   UNL     1       4.239   4.538  19.404  0.00  0.00    +0.000 OA
ATOM      4  C   UNL     1       2.991   5.093  18.960  0.00  0.00    +0.000 C 
ATOM      5  C   UNL     1       2.975   6.577  19.382  0.00  0.00    +0.000 C 
ATOM      6  C   UNL     1       1.740   6.759  20.256  0.00  0.00    +0.000 C 
ATOM      7  C   UNL     1       1.519   5.385  20.857  0.00  0.00    +0.000 C 
ATOM      8  C   UNL     1       1.790   4.459  19.679  0.00  0.00    +0.000 C 
ATOM      9  O   UNL     1       2.842   5.062  17.536  0.00  0.00    +0.000 OA
ATOM     10  O   UNL     1       2.946   3.666  17.106  0.00  0.00    +0.000 OA
ENDROOT
BRANCH   1  12
ATOM     11  C   UNL     1       5.374   4.030  15.086  0.00  0.00    +0.000 C 
ATOM     12  C   UNL     1       5.294   4.139  16.430  0.00  0.00    +0.000 C 
BRANCH  12  13
ATOM     13  C   UNL     1       6.176   5.137  17.113  0.00  0.00    +0.000 A 
ATOM     14  C   UNL     1       6.015   6.520  16.880  0.00  0.00    +0.000 A 
ATOM     15  C   UNL     1       6.864   7.466  17.464  0.00  0.00    +0.000 A 
ATOM     16  C   UNL     1       7.874   7.047  18.315  0.00  0.00    +0.000 A 
ATOM     17  F   UNL     1       8.694   7.949  18.868  0.00  0.00    +0.000 F 
ATOM     18  C   UNL     1       8.044   5.699  18.593  0.00  0.00    +0.000 A 
ATOM     19  C   UNL     1       7.200   4.754  17.996  0.00  0.00    +0.000 A 
ENDBRANCH  12  13
ENDBRANCH   1  12
TORSDOF 2
ENDMDL
MODEL 4
REMARK VINA RESULT:      -7.3      2.752      3.893
REMARK  Name = 
REMARK  2 active torsions:
REMARK  status: ('A' for Active; 'I' for Inactive)
REMARK    1  A    between atoms: C_2  and  C_3
REMARK    2  A    between atoms: C_2  and  C_10
REMARK                            x       y       z     vdW  Elec       q    Type
REMARK                         _______ _______ _______ _____ _____    ______ ____
ROOT
ATOM      1  C   UNL     1       5.619   4.553  17.994  0.00  0.00    +0.000 C 
ATOM      2  C   UNL     1       5.293   5.176  19.366  0.00  0.00    +0.000 C 
ATOM      3  O   UNL     1       3.880   5.341  19.570  0.00  0.00    +0.000 OA
ATOM      4  C   UNL     1       3.132   4.160  19.242  0.00  0.00    +0.000 C 
ATOM      5  C   UNL     1       1.647   4.571  19.148  0.00  0.00    +0.000 C 
ATOM      6  C   UNL     1       0.900   3.703  20.153  0.00  0.00    +0.000 C 
ATOM      7  C   UNL     1       1.946   3.385  21.202  0.00  0.00    +0.000 C 
ATOM      8  C   UNL     1       3.187   3.111  20.364  0.00  0.00    +0.000 C 
ATOM      9  O   UNL     1       3.493   3.607  17.971  0.00  0.00    +0.000 OA
ATOM     10  O   UNL     1       4.923   3.293  18.011  0.00  0.00    +0.000 OA
ENDROOT
BRANCH   1  12
ATOM     11  C   UNL     1       4.644   6.557  16.791  0.00  0.00    +0.000 C 
ATOM     12  C   UNL     1       5.330   5.395  16.739  0.00  0.00    +0.000 C 
BRANCH  12  13
ATOM     13  C   UNL     1       5.834   4.928  15.409  0.00  0.00    +0.000 A 
ATOM     14  C   UNL     1       7.112   5.312  14.948  0.00  0.00    +0.000 A 
ATOM     15  C   UNL     1       7.580   4.934  13.685  0.00  0.00    +0.000 A 
ATOM     16  C   UNL     1       6.787   4.141  12.871  0.00  0.00    +0.000 A 
ATOM     17  F   UNL     1       7.229   3.784  11.658  0.00  0.00    +0.000 F 
ATOM     18  C   UNL     1       5.540   3.717  13.303  0.00  0.00    +0.000 A 
ATOM     19  C   UNL     1       5.070   4.108  14.562  0.00  0.00    +0.000 A 
ENDBRANCH  12  13
ENDBRANCH   1  12
TORSDOF 2
ENDMDL
MODEL 5
REMARK VINA RESULT:      -7.3      1.386      2.083
REMARK  Name = 
REMARK  2 active torsions:
REMARK  status: ('A' for Active; 'I' for Inactive)
REMARK    1  A    between atoms: C_2  and  C_3
REMARK    2  A    between atoms: C_2  and  C_10
REMARK                            x       y       z     vdW  Elec       q    Type
REMARK                         _______ _______ _______ _____ _____    ______ ____
ROOT
ATOM      1  C   UNL     1       4.272   3.346  17.305  0.00  0.00    +0.000 C 
ATOM      2  C   UNL     1       4.518   3.391  18.827  0.00  0.00    +0.000 C 
ATOM      3  O   UNL     1       4.234   4.683  19.387  0.00  0.00    +0.000 OA
ATOM      4  C   UNL     1       2.969   5.208  18.957  0.00  0.00    +0.000 C 
ATOM      5  C   UNL     1       2.950   6.709  19.317  0.00  0.00    +0.000 C 
ATOM      6  C   UNL     1       1.739   6.917  20.218  0.00  0.00    +0.000 C 
ATOM      7  C   UNL     1       1.549   5.567  20.882  0.00  0.00    +0.000 C 
ATOM      8  C   UNL     1       1.795   4.595  19.737  0.00  0.00    +0.000 C 
ATOM      9  O   UNL     1       2.780   5.116  17.540  0.00  0.00    +0.000 OA
ATOM     10  O   UNL     1       2.884   3.704  17.167  0.00  0.00    +0.000 OA
ENDROOT
BRANCH   1  12
ATOM     11  C   UNL     1       5.212   4.042  15.059  0.00  0.00    +0.000 C 
ATOM     12  C   UNL     1       5.208   4.168  16.403  0.00  0.00    +0.000 C 
BRANCH  12  13
ATOM     13  C   UNL     1       6.144   5.157  17.024  0.00  0.00    +0.000 A 
ATOM     14  C   UNL     1       7.200   4.727  17.857  0.00  0.00    +0.000 A 
ATOM     15  C   UNL     1       8.051   5.638  18.492  0.00  0.00    +0.000 A 
ATOM     16  C   UNL     1       7.878   6.996  18.283  0.00  0.00    +0.000 A 
ATOM     17  F   UNL     1       8.685   7.871  18.896  0.00  0.00    +0.000 F 
ATOM     18  C   UNL     1       6.872   7.456  17.447  0.00  0.00    +0.000 A 
ATOM     19  C   UNL     1       6.014   6.542  16.823  0.00  0.00    +0.000 A 
ENDBRANCH  12  13
ENDBRANCH   1  12
TORSDOF 2
ENDMDL
MODEL 6
REMARK VINA RESULT:      -7.3      2.736      3.886
REMARK  Name = 
REMARK  2 active torsions:
REMARK  status: ('A' for Active; 'I' for Inactive)
REMARK    1  A    between atoms: C_2  and  C_3
REMARK    2  A    between atoms: C_2  and  C_10
REMARK                            x       y       z     vdW  Elec       q    Type
REMARK                         _______ _______ _______ _____ _____    ______ ____
ROOT
ATOM      1  C   UNL     1       5.594   4.570  18.030  0.00  0.00    +0.000 C 
ATOM      2  C   UNL     1       5.258   5.153  19.417  0.00  0.00    +0.000 C 
ATOM      3  O   UNL     1       3.843   5.291  19.624  0.00  0.00    +0.000 OA
ATOM      4  C   UNL     1       3.112   4.108  19.265  0.00  0.00    +0.000 C 
ATOM      5  C   UNL     1       1.622   4.499  19.181  0.00  0.00    +0.000 C 
ATOM      6  C   UNL     1       0.887   3.595  20.163  0.00  0.00    +0.000 C 
ATOM      7  C   UNL     1       1.938   3.266  21.205  0.00  0.00    +0.000 C 
ATOM      8  C   UNL     1       3.183   3.032  20.360  0.00  0.00    +0.000 C 
ATOM      9  O   UNL     1       3.482   3.593  17.981  0.00  0.00    +0.000 OA
ATOM     10  O   UNL     1       4.917   3.300  18.013  0.00  0.00    +0.000 OA
ENDROOT
BRANCH   1  12
ATOM     11  C   UNL     1       4.609   6.601  16.880  0.00  0.00    +0.000 C 
ATOM     12  C   UNL     1       5.293   5.439  16.797  0.00  0.00    +0.000 C 
BRANCH  12  13
ATOM     13  C   UNL     1       5.782   5.001  15.451  0.00  0.00    +0.000 A 
ATOM     14  C   UNL     1       4.957   4.237  14.599  0.00  0.00    +0.000 A 
ATOM     15  C   UNL     1       5.413   3.769  13.361  0.00  0.00    +0.000 A 
ATOM     16  C   UNL     1       6.696   4.082  12.943  0.00  0.00    +0.000 A 
ATOM     17  F   UNL     1       7.139   3.628  11.764  0.00  0.00    +0.000 F 
ATOM     18  C   UNL     1       7.525   4.857  13.739  0.00  0.00    +0.000 A 
ATOM     19  C   UNL     1       7.069   5.312  14.982  0.00  0.00    +0.000 A 
ENDBRANCH  12  13
ENDBRANCH   1  12
TORSDOF 2
ENDMDL
MODEL 7
REMARK VINA RESULT:      -7.2      3.427      6.311
REMARK  Name = 
REMARK  2 active torsions:
REMARK  status: ('A' for Active; 'I' for Inactive)
REMARK    1  A    between atoms: C_2  and  C_3
REMARK    2  A    between atoms: C_2  and  C_10
REMARK                            x       y       z     vdW  Elec       q    Type
REMARK                         _______ _______ _______ _____ _____    ______ ____
ROOT
ATOM      1  C   UNL     1       6.099   5.841  17.033  0.00  0.00    +0.000 C 
ATOM      2  C   UNL     1       6.705   4.449  16.765  0.00  0.00    +0.000 C 
ATOM      3  O   UNL     1       6.062   3.774  15.672  0.00  0.00    +0.000 OA
ATOM      4  C   UNL     1       5.916   4.611  14.514  0.00  0.00    +0.000 C 
ATOM      5  C   UNL     1       4.911   3.916  13.572  0.00  0.00    +0.000 C 
ATOM      6  C   UNL     1       5.638   3.709  12.248  0.00  0.00    +0.000 C 
ATOM      7  C   UNL     1       7.097   3.620  12.650  0.00  0.00    +0.000 C 
ATOM      8  C   UNL     1       7.220   4.709  13.706  0.00  0.00    +0.000 C 
ATOM      9  O   UNL     1       5.376   5.901  14.822  0.00  0.00    +0.000 OA
ATOM     10  O   UNL     1       6.272   6.541  15.787  0.00  0.00    +0.000 OA
ENDROOT
BRANCH   1  12
ATOM     11  C   UNL     1       3.962   7.057  17.639  0.00  0.00    +0.000 C 
ATOM     12  C   UNL     1       4.661   5.904  17.575  0.00  0.00    +0.000 C 
BRANCH  12  13
ATOM     13  C   UNL     1       3.995   4.646  18.038  0.00  0.00    +0.000 A 
ATOM     14  C   UNL     1       3.029   4.004  17.234  0.00  0.00    +0.000 A 
ATOM     15  C   UNL     1       2.354   2.859  17.671  0.00  0.00    +0.000 A 
ATOM     16  C   UNL     1       2.653   2.320  18.912  0.00  0.00    +0.000 A 
ATOM     17  F   UNL     1       2.003   1.230  19.337  0.00  0.00    +0.000 F 
ATOM     18  C   UNL     1       3.620   2.903  19.717  0.00  0.00    +0.000 A 
ATOM     19  C   UNL     1       4.284   4.057  19.281  0.00  0.00    +0.000 A 
ENDBRANCH  12  13
ENDBRANCH   1  12
TORSDOF 2
ENDMDL
MODEL 8
REMARK VINA RESULT:      -7.0      3.453      6.245
REMARK  Name = 
REMARK  2 active torsions:
REMARK  status: ('A' for Active; 'I' for Inactive)
REMARK    1  A    between atoms: C_2  and  C_3
REMARK    2  A    between atoms: C_2  and  C_10
REMARK                            x       y       z     vdW  Elec       q    Type
REMARK                         _______ _______ _______ _____ _____    ______ ____
ROOT
ATOM      1  C   UNL     1       6.139   5.906  16.970  0.00  0.00    +0.000 C 
ATOM      2  C   UNL     1       6.831   4.554  16.704  0.00  0.00    +0.000 C 
ATOM      3  O   UNL     1       6.213   3.826  15.630  0.00  0.00    +0.000 OA
ATOM      4  C   UNL     1       5.991   4.639  14.467  0.00  0.00    +0.000 C 
ATOM      5  C   UNL     1       5.017   3.869  13.551  0.00  0.00    +0.000 C 
ATOM      6  C   UNL     1       5.731   3.696  12.216  0.00  0.00    +0.000 C 
ATOM      7  C   UNL     1       7.200   3.707  12.590  0.00  0.00    +0.000 C 
ATOM      8  C   UNL     1       7.270   4.814  13.632  0.00  0.00    +0.000 C 
ATOM      9  O   UNL     1       5.373   5.894  14.773  0.00  0.00    +0.000 OA
ATOM     10  O   UNL     1       6.242   6.602  15.714  0.00  0.00    +0.000 OA
ENDROOT
BRANCH   1  12
ATOM     11  C   UNL     1       3.961   6.996  17.662  0.00  0.00    +0.000 C 
ATOM     12  C   UNL     1       4.711   5.880  17.539  0.00  0.00    +0.000 C 
BRANCH  12  13
ATOM     13  C   UNL     1       4.112   4.574  17.961  0.00  0.00    +0.000 A 
ATOM     14  C   UNL     1       4.534   3.937  19.147  0.00  0.00    +0.000 A 
ATOM     15  C   UNL     1       4.029   2.690  19.531  0.00  0.00    +0.000 A 
ATOM     16  C   UNL     1       3.069   2.071  18.747  0.00  0.00    +0.000 A 
ATOM     17  F   UNL     1       2.590   0.874  19.107  0.00  0.00    +0.000 F 
ATOM     18  C   UNL     1       2.605   2.680  17.591  0.00  0.00    +0.000 A 
ATOM     19  C   UNL     1       3.123   3.922  17.204  0.00  0.00    +0.000 A 
ENDBRANCH  12  13
ENDBRANCH   1  12
TORSDOF 2
ENDMDL
MODEL 9
REMARK VINA RESULT:      -7.0      3.221      6.096
REMARK  Name = 
REMARK  2 active torsions:
REMARK  status: ('A' for Active; 'I' for Inactive)
REMARK    1  A    between atoms: C_2  and  C_3
REMARK    2  A    between atoms: C_2  and  C_10
REMARK                            x       y       z     vdW  Elec       q    Type
REMARK                         _______ _______ _______ _____ _____    ______ ____
ROOT
ATOM      1  C   UNL     1       5.374   6.395  17.719  0.00  0.00    +0.000 C 
ATOM      2  C   UNL     1       5.835   4.925  17.650  0.00  0.00    +0.000 C 
ATOM      3  O   UNL     1       5.371   4.262  16.463  0.00  0.00    +0.000 OA
ATOM      4  C   UNL     1       5.603   5.032  15.273  0.00  0.00    +0.000 C 
ATOM      5  C   UNL     1       4.754   4.402  14.149  0.00  0.00    +0.000 C 
ATOM      6  C   UNL     1       5.727   4.022  13.040  0.00  0.00    +0.000 C 
ATOM      7  C   UNL     1       7.032   3.784  13.773  0.00  0.00    +0.000 C 
ATOM      8  C   UNL     1       7.057   4.918  14.787  0.00  0.00    +0.000 C 
ATOM      9  O   UNL     1       5.184   6.395  15.400  0.00  0.00    +0.000 OA
ATOM     10  O   UNL     1       5.915   6.985  16.523  0.00  0.00    +0.000 OA
ENDROOT
BRANCH   1  12
ATOM     11  C   UNL     1       3.287   7.812  17.498  0.00  0.00    +0.000 C 
ATOM     12  C   UNL     1       3.872   6.667  17.909  0.00  0.00    +0.000 C 
BRANCH  12  13
ATOM     13  C   UNL     1       3.014   5.626  18.557  0.00  0.00    +0.000 A 
ATOM     14  C   UNL     1       3.004   5.471  19.960  0.00  0.00    +0.000 A 
ATOM     15  C   UNL     1       2.253   4.468  20.582  0.00  0.00    +0.000 A 
ATOM     16  C   UNL     1       1.474   3.619  19.812  0.00  0.00    +0.000 A 
ATOM     17  F   UNL     1       0.761   2.653  20.404  0.00  0.00    +0.000 F 
ATOM     18  C   UNL     1       1.432   3.762  18.434  0.00  0.00    +0.000 A 
ATOM     19  C   UNL     1       2.196   4.758  17.814  0.00  0.00    +0.000 A 
ENDBRANCH  12  13
ENDBRANCH   1  12
TORSDOF 2
ENDMDL
