MODEL 1
REMARK VINA RESULT:      -7.9      0.000      0.000
REMARK  Name = 
REMARK  11 active torsions:
REMARK  status: ('A' for Active; 'I' for Inactive)
REMARK    1  A    between atoms: N_1  and  C_2
REMARK    2  A    between atoms: C_7  and  N_8
REMARK    3  A    between atoms: C_9  and  C_11
REMARK    4  A    between atoms: C_11  and  C_12
REMARK    5  A    between atoms: C_12  and  C_13
REMARK    6  A    between atoms: C_13  and  C_14
REMARK    7  A    between atoms: C_14  and  C_15
REMARK    8  A    between atoms: C_15  and  N_16
REMARK    9  A    between atoms: C_17  and  C_19
REMARK   10  A    between atoms: C_24  and  C_25
REMARK   11  A    between atoms: C_25  and  C_27
REMARK                            x       y       z     vdW  Elec       q    Type
REMARK                         _______ _______ _______ _____ _____    ______ ____
ROOT
ATOM      1  C   UNL     1       7.932   6.667  18.119  0.00  0.00    +0.000 C 
ENDROOT
BRANCH   1   2
ATOM      2  C   UNL     1       7.329   7.979  17.600  0.00  0.00    +0.000 C 
BRANCH   2   3
ATOM      3  C   UNL     1       8.238   9.209  17.700  0.00  0.00    +0.000 C 
BRANCH   3   4
ATOM      4  C   UNL     1       8.905   9.360  19.064  0.00  0.00    +0.000 C 
BRANCH   4   6
ATOM      5  N   UNL     1       9.409  11.520  18.075  0.00  0.00    +0.000 N 
ATOM      6  C   UNL     1       9.451  10.762  19.230  0.00  0.00    +0.000 C 
ATOM      7  O   UNL     1       9.839  11.125  20.339  0.00  0.00    +0.000 OA
ATOM      8  H   UNL     1       8.879  11.153  17.298  0.00  0.00    +0.000 HD
BRANCH   5  14
ATOM      9  C   UNL     1      11.249  13.047  17.554  0.00  0.00    +0.000 A 
ATOM     10  C   UNL     1      11.688  14.358  17.291  0.00  0.00    +0.000 A 
ATOM     11  C   UNL     1      10.843  15.453  17.481  0.00  0.00    +0.000 A 
ATOM     12  C   UNL     1       9.536  15.257  17.901  0.00  0.00    +0.000 A 
ATOM     13  C   UNL     1       9.071  13.963  18.116  0.00  0.00    +0.000 A 
ATOM     14  C   UNL     1       9.896  12.844  17.916  0.00  0.00    +0.000 A 
BRANCH   9  15
ATOM     15  N   UNL     1      12.115  11.983  17.221  0.00  0.00    +0.000 N 
ATOM     16  H   UNL     1      11.967  11.639  16.276  0.00  0.00    +0.000 HD
ATOM     17  H   UNL     1      13.095  12.159  17.389  0.00  0.00    +0.000 HD
ENDBRANCH   9  15
ENDBRANCH   5  14
ENDBRANCH   4   6
ENDBRANCH   3   4
ENDBRANCH   2   3
ENDBRANCH   1   2
BRANCH   1  18
ATOM     18  C   UNL     1       6.990   5.472  17.969  0.00  0.00    +0.000 C 
BRANCH  18  19
ATOM     19  N   UNL     1       5.745   5.670  18.686  0.00  0.00    +0.000 N 
ATOM     20  C   UNL     1       4.508   5.444  18.120  0.00  0.00    +0.000 C 
ATOM     21  O   UNL     1       4.323   5.075  16.969  0.00  0.00    +0.000 OA
ATOM     22  H   UNL     1       5.815   6.087  19.605  0.00  0.00    +0.000 HD
BRANCH  20  23
ATOM     23  C   UNL     1       3.336   5.678  19.004  0.00  0.00    +0.000 A 
ATOM     24  C   UNL     1       2.969   7.020  19.243  0.00  0.00    +0.000 A 
ATOM     25  C   UNL     1       1.949   7.342  20.138  0.00  0.00    +0.000 A 
ATOM     26  C   UNL     1       1.286   6.329  20.814  0.00  0.00    +0.000 A 
ATOM     27  C   UNL     1       1.646   4.997  20.598  0.00  0.00    +0.000 A 
ATOM     28  C   UNL     1       2.677   4.649  19.698  0.00  0.00    +0.000 A 
BRANCH  28  29
ATOM     29  C   UNL     1       3.009   3.192  19.664  0.00  0.00    +0.000 C 
ATOM     30  O   UNL     1       3.626   2.747  20.640  0.00  0.00    +0.000 OA
BRANCH  29  31
ATOM     31  C   UNL     1       2.474   2.288  18.562  0.00  0.00    +0.000 C 
ATOM     32  F   UNL     1       1.573   1.355  18.972  0.00  0.00    +0.000 F 
ATOM     33  F   UNL     1       1.910   2.979  17.534  0.00  0.00    +0.000 F 
ATOM     34  F   UNL     1       3.490   1.566  17.997  0.00  0.00    +0.000 F 
ENDBRANCH  29  31
ENDBRANCH  28  29
ENDBRANCH  20  23
ENDBRANCH  18  19
ENDBRANCH   1  18
TORSDOF 11
ENDMDL
MODEL 2
REMARK VINA RESULT:      -7.7      2.511      3.336
REMARK  Name = 
REMARK  11 active torsions:
REMARK  status: ('A' for Active; 'I' for Inactive)
REMARK    1  A    between atoms: N_1  and  C_2
REMARK    2  A    between atoms: C_7  and  N_8
REMARK    3  A    between atoms: C_9  and  C_11
REMARK    4  A    between atoms: C_11  and  C_12
REMARK    5  A    between atoms: C_12  and  C_13
REMARK    6  A    between atoms: C_13  and  C_14
REMARK    7  A    between atoms: C_14  and  C_15
REMARK    8  A    between atoms: C_15  and  N_16
REMARK    9  A    between atoms: C_17  and  C_19
REMARK   10  A    between atoms: C_24  and  C_25
REMARK   11  A    between atoms: C_25  and  C_27
REMARK                            x       y       z     vdW  Elec       q    Type
REMARK                         _______ _______ _______ _____ _____    ______ ____
ROOT
ATOM      1  C   UNL     1       7.774   6.231  18.534  0.00  0.00    +0.000 C 
ENDROOT
BRANCH   1   2
ATOM      2  C   UNL     1       7.542   7.187  17.357  0.00  0.00    +0.000 C 
BRANCH   2   3
ATOM      3  C   UNL     1       7.779   8.671  17.656  0.00  0.00    +0.000 C 
BRANCH   3   4
ATOM      4  C   UNL     1       8.824   8.913  18.740  0.00  0.00    +0.000 C 
BRANCH   4   6
ATOM      5  N   UNL     1       9.613  10.739  20.133  0.00  0.00    +0.000 N 
ATOM      6  C   UNL     1       9.080  10.395  18.904  0.00  0.00    +0.000 C 
ATOM      7  O   UNL     1       8.845  11.150  17.963  0.00  0.00    +0.000 OA
ATOM      8  H   UNL     1       9.939   9.988  20.725  0.00  0.00    +0.000 HD
BRANCH   5  14
ATOM      9  C   UNL     1      10.937  12.789  19.961  0.00  0.00    +0.000 A 
ATOM     10  C   UNL     1      11.143  14.126  20.349  0.00  0.00    +0.000 A 
ATOM     11  C   UNL     1      10.420  14.690  21.403  0.00  0.00    +0.000 A 
ATOM     12  C   UNL     1       9.456  13.943  22.062  0.00  0.00    +0.000 A 
ATOM     13  C   UNL     1       9.205  12.635  21.657  0.00  0.00    +0.000 A 
ATOM     14  C   UNL     1       9.907  12.050  20.589  0.00  0.00    +0.000 A 
BRANCH   9  15
ATOM     15  N   UNL     1      11.612  12.326  18.811  0.00  0.00    +0.000 N 
ATOM     16  H   UNL     1      11.055  11.673  18.267  0.00  0.00    +0.000 HD
ATOM     17  H   UNL     1      11.997  13.049  18.219  0.00  0.00    +0.000 HD
ENDBRANCH   9  15
ENDBRANCH   5  14
ENDBRANCH   4   6
ENDBRANCH   3   4
ENDBRANCH   2   3
ENDBRANCH   1   2
BRANCH   1  18
ATOM     18  C   UNL     1       7.556   4.762  18.167  0.00  0.00    +0.000 C 
BRANCH  18  19
ATOM     19  N   UNL     1       6.201   4.327  18.446  0.00  0.00    +0.000 N 
ATOM     20  C   UNL     1       5.225   4.238  17.476  0.00  0.00    +0.000 C 
ATOM     21  O   UNL     1       5.384   4.525  16.298  0.00  0.00    +0.000 OA
ATOM     22  H   UNL     1       5.965   4.186  19.419  0.00  0.00    +0.000 HD
BRANCH  20  23
ATOM     23  C   UNL     1       3.897   3.754  17.933  0.00  0.00    +0.000 A 
ATOM     24  C   UNL     1       3.531   2.440  17.570  0.00  0.00    +0.000 A 
ATOM     25  C   UNL     1       2.266   1.935  17.865  0.00  0.00    +0.000 A 
ATOM     26  C   UNL     1       1.343   2.737  18.520  0.00  0.00    +0.000 A 
ATOM     27  C   UNL     1       1.685   4.043  18.875  0.00  0.00    +0.000 A 
ATOM     28  C   UNL     1       2.960   4.576  18.584  0.00  0.00    +0.000 A 
BRANCH  28  29
ATOM     29  C   UNL     1       3.128   6.019  18.935  0.00  0.00    +0.000 C 
ATOM     30  O   UNL     1       3.637   6.260  20.037  0.00  0.00    +0.000 OA
BRANCH  29  31
ATOM     31  C   UNL     1       2.834   7.115  17.920  0.00  0.00    +0.000 C 
ATOM     32  F   UNL     1       2.818   8.377  18.427  0.00  0.00    +0.000 F 
ATOM     33  F   UNL     1       3.692   7.107  16.864  0.00  0.00    +0.000 F 
ATOM     34  F   UNL     1       1.590   6.944  17.375  0.00  0.00    +0.000 F 
ENDBRANCH  29  31
ENDBRANCH  28  29
ENDBRANCH  20  23
ENDBRANCH  18  19
ENDBRANCH   1  18
TORSDOF 11
ENDMDL
MODEL 3
REMARK VINA RESULT:      -7.7      5.791      8.240
REMARK  Name = 
REMARK  11 active torsions:
REMARK  status: ('A' for Active; 'I' for Inactive)
REMARK    1  A    between atoms: N_1  and  C_2
REMARK    2  A    between atoms: C_7  and  N_8
REMARK    3  A    between atoms: C_9  and  C_11
REMARK    4  A    between atoms: C_11  and  C_12
REMARK    5  A    between atoms: C_12  and  C_13
REMARK    6  A    between atoms: C_13  and  C_14
REMARK    7  A    between atoms: C_14  and  C_15
REMARK    8  A    between atoms: C_15  and  N_16
REMARK    9  A    between atoms: C_17  and  C_19
REMARK   10  A    between atoms: C_24  and  C_25
REMARK   11  A    between atoms: C_25  and  C_27
REMARK                            x       y       z     vdW  Elec       q    Type
REMARK                         _______ _______ _______ _____ _____    ______ ____
ROOT
ATOM      1  C   UNL     1       0.956   4.509  20.404  0.00  0.00    +0.000 C 
ENDROOT
BRANCH   1   2
ATOM      2  C   UNL     1       1.556   3.148  20.779  0.00  0.00    +0.000 C 
BRANCH   2   3
ATOM      3  C   UNL     1       1.988   2.270  19.600  0.00  0.00    +0.000 C 
BRANCH   3   4
ATOM      4  C   UNL     1       3.502   2.143  19.460  0.00  0.00    +0.000 C 
BRANCH   4   6
ATOM      5  N   UNL     1       5.403   3.514  18.825  0.00  0.00    +0.000 N 
ATOM      6  C   UNL     1       4.053   3.285  18.634  0.00  0.00    +0.000 C 
ATOM      7  O   UNL     1       3.306   3.875  17.856  0.00  0.00    +0.000 OA
ATOM      8  H   UNL     1       5.924   2.820  19.341  0.00  0.00    +0.000 HD
BRANCH   5  14
ATOM      9  C   UNL     1       6.446   4.495  16.841  0.00  0.00    +0.000 A 
ATOM     10  C   UNL     1       7.119   5.578  16.245  0.00  0.00    +0.000 A 
ATOM     11  C   UNL     1       7.608   6.635  17.016  0.00  0.00    +0.000 A 
ATOM     12  C   UNL     1       7.402   6.649  18.386  0.00  0.00    +0.000 A 
ATOM     13  C   UNL     1       6.694   5.610  18.985  0.00  0.00    +0.000 A 
ATOM     14  C   UNL     1       6.177   4.544  18.229  0.00  0.00    +0.000 A 
BRANCH   9  15
ATOM     15  N   UNL     1       5.872   3.527  15.988  0.00  0.00    +0.000 N 
ATOM     16  H   UNL     1       4.980   3.825  15.603  0.00  0.00    +0.000 HD
ATOM     17  H   UNL     1       6.481   3.182  15.260  0.00  0.00    +0.000 HD
ENDBRANCH   9  15
ENDBRANCH   5  14
ENDBRANCH   4   6
ENDBRANCH   3   4
ENDBRANCH   2   3
ENDBRANCH   1   2
BRANCH   1  18
ATOM     18  C   UNL     1       1.948   5.664  20.550  0.00  0.00    +0.000 C 
BRANCH  18  19
ATOM     19  N   UNL     1       1.321   6.854  21.091  0.00  0.00    +0.000 N 
ATOM     20  C   UNL     1       1.437   8.097  20.507  0.00  0.00    +0.000 C 
ATOM     21  O   UNL     1       2.084   8.336  19.497  0.00  0.00    +0.000 OA
ATOM     22  H   UNL     1       0.867   6.755  21.990  0.00  0.00    +0.000 HD
BRANCH  20  23
ATOM     23  C   UNL     1       0.712   9.204  21.184  0.00  0.00    +0.000 A 
ATOM     24  C   UNL     1       0.296   8.981  22.514  0.00  0.00    +0.000 A 
ATOM     25  C   UNL     1      -0.479   9.919  23.196  0.00  0.00    +0.000 A 
ATOM     26  C   UNL     1      -0.856  11.091  22.557  0.00  0.00    +0.000 A 
ATOM     27  C   UNL     1      -0.463  11.320  21.237  0.00  0.00    +0.000 A 
ATOM     28  C   UNL     1       0.320  10.383  20.527  0.00  0.00    +0.000 A 
BRANCH  28  29
ATOM     29  C   UNL     1       0.563  10.732  19.094  0.00  0.00    +0.000 C 
ATOM     30  O   UNL     1      -0.172  10.182  18.263  0.00  0.00    +0.000 OA
BRANCH  29  31
ATOM     31  C   UNL     1       1.554  11.821  18.706  0.00  0.00    +0.000 C 
ATOM     32  F   UNL     1       1.012  12.877  18.041  0.00  0.00    +0.000 F 
ATOM     33  F   UNL     1       2.245  12.315  19.769  0.00  0.00    +0.000 F 
ATOM     34  F   UNL     1       2.505  11.325  17.856  0.00  0.00    +0.000 F 
ENDBRANCH  29  31
ENDBRANCH  28  29
ENDBRANCH  20  23
ENDBRANCH  18  19
ENDBRANCH   1  18
TORSDOF 11
ENDMDL
MODEL 4
REMARK VINA RESULT:      -7.7      4.645     11.160
REMARK  Name = 
REMARK  11 active torsions:
REMARK  status: ('A' for Active; 'I' for Inactive)
REMARK    1  A    between atoms: N_1  and  C_2
REMARK    2  A    between atoms: C_7  and  N_8
REMARK    3  A    between atoms: C_9  and  C_11
REMARK    4  A    between atoms: C_11  and  C_12
REMARK    5  A    between atoms: C_12  and  C_13
REMARK    6  A    between atoms: C_13  and  C_14
REMARK    7  A    between atoms: C_14  and  C_15
REMARK    8  A    between atoms: C_15  and  N_16
REMARK    9  A    between atoms: C_17  and  C_19
REMARK   10  A    between atoms: C_24  and  C_25
REMARK   11  A    between atoms: C_25  and  C_27
REMARK                            x       y       z     vdW  Elec       q    Type
REMARK                         _______ _______ _______ _____ _____    ______ ____
ROOT
ATOM      1  C   UNL     1       8.132   9.013  17.833  0.00  0.00    +0.000 C 
ENDROOT
BRANCH   1   2
ATOM      2  C   UNL     1       8.127   7.521  18.191  0.00  0.00    +0.000 C 
BRANCH   2   3
ATOM      3  C   UNL     1       7.317   6.620  17.253  0.00  0.00    +0.000 C 
BRANCH   3   4
ATOM      4  C   UNL     1       7.362   5.145  17.640  0.00  0.00    +0.000 C 
BRANCH   4   6
ATOM      5  N   UNL     1       5.172   4.095  17.652  0.00  0.00    +0.000 N 
ATOM      6  C   UNL     1       6.116   4.764  18.410  0.00  0.00    +0.000 C 
ATOM      7  O   UNL     1       6.049   5.027  19.609  0.00  0.00    +0.000 OA
ATOM      8  H   UNL     1       5.454   3.774  16.737  0.00  0.00    +0.000 HD
BRANCH   5  14
ATOM      9  C   UNL     1       3.797   2.605  19.022  0.00  0.00    +0.000 A 
ATOM     10  C   UNL     1       2.530   2.261  19.527  0.00  0.00    +0.000 A 
ATOM     11  C   UNL     1       1.371   2.875  19.045  0.00  0.00    +0.000 A 
ATOM     12  C   UNL     1       1.460   3.865  18.080  0.00  0.00    +0.000 A 
ATOM     13  C   UNL     1       2.711   4.253  17.606  0.00  0.00    +0.000 A 
ATOM     14  C   UNL     1       3.892   3.663  18.087  0.00  0.00    +0.000 A 
BRANCH   9  15
ATOM     15  N   UNL     1       4.931   2.035  19.642  0.00  0.00    +0.000 N 
ATOM     16  H   UNL     1       5.120   2.437  20.556  0.00  0.00    +0.000 HD
ATOM     17  H   UNL     1       4.932   1.026  19.687  0.00  0.00    +0.000 HD
ENDBRANCH   9  15
ENDBRANCH   5  14
ENDBRANCH   4   6
ENDBRANCH   3   4
ENDBRANCH   2   3
ENDBRANCH   1   2
BRANCH   1  18
ATOM     18  C   UNL     1       8.939   9.863  18.816  0.00  0.00    +0.000 C 
BRANCH  18  19
ATOM     19  N   UNL     1       9.319  11.140  18.243  0.00  0.00    +0.000 N 
ATOM     20  C   UNL     1       9.831  12.178  18.992  0.00  0.00    +0.000 C 
ATOM     21  O   UNL     1      10.003  12.146  20.203  0.00  0.00    +0.000 OA
ATOM     22  H   UNL     1       9.095  11.281  17.266  0.00  0.00    +0.000 HD
BRANCH  20  23
ATOM     23  C   UNL     1      10.187  13.409  18.241  0.00  0.00    +0.000 A 
ATOM     24  C   UNL     1      11.524  13.532  17.806  0.00  0.00    +0.000 A 
ATOM     25  C   UNL     1      11.977  14.695  17.183  0.00  0.00    +0.000 A 
ATOM     26  C   UNL     1      11.104  15.755  16.992  0.00  0.00    +0.000 A 
ATOM     27  C   UNL     1       9.782  15.653  17.428  0.00  0.00    +0.000 A 
ATOM     28  C   UNL     1       9.302  14.486  18.063  0.00  0.00    +0.000 A 
BRANCH  28  29
ATOM     29  C   UNL     1       7.897  14.581  18.562  0.00  0.00    +0.000 C 
ATOM     30  O   UNL     1       7.010  14.220  17.777  0.00  0.00    +0.000 OA
BRANCH  29  31
ATOM     31  C   UNL     1       7.598  14.947  20.009  0.00  0.00    +0.000 C 
ATOM     32  F   UNL     1       8.620  15.555  20.670  0.00  0.00    +0.000 F 
ATOM     33  F   UNL     1       6.496  15.735  20.142  0.00  0.00    +0.000 F 
ATOM     34  F   UNL     1       7.328  13.824  20.744  0.00  0.00    +0.000 F 
ENDBRANCH  29  31
ENDBRANCH  28  29
ENDBRANCH  20  23
ENDBRANCH  18  19
ENDBRANCH   1  18
TORSDOF 11
ENDMDL
MODEL 5
REMARK VINA RESULT:      -7.6      2.330      3.437
REMARK  Name = 
REMARK  11 active torsions:
REMARK  status: ('A' for Active; 'I' for Inactive)
REMARK    1  A    between atoms: N_1  and  C_2
REMARK    2  A    between atoms: C_7  and  N_8
REMARK    3  A    between atoms: C_9  and  C_11
REMARK    4  A    between atoms: C_11  and  C_12
REMARK    5  A    between atoms: C_12  and  C_13
REMARK    6  A    between atoms: C_13  and  C_14
REMARK    7  A    between atoms: C_14  and  C_15
REMARK    8  A    between atoms: C_15  and  N_16
REMARK    9  A    between atoms: C_17  and  C_19
REMARK   10  A    between atoms: C_24  and  C_25
REMARK   11  A    between atoms: C_25  and  C_27
REMARK                            x       y       z     vdW  Elec       q    Type
REMARK                         _______ _______ _______ _____ _____    ______ ____
ROOT
ATOM      1  C   UNL     1       6.539   4.971  15.913  0.00  0.00    +0.000 C 
ENDROOT
BRANCH   1   2
ATOM      2  C   UNL     1       6.846   5.614  17.272  0.00  0.00    +0.000 C 
BRANCH   2   3
ATOM      3  C   UNL     1       7.303   7.075  17.223  0.00  0.00    +0.000 C 
BRANCH   3   4
ATOM      4  C   UNL     1       8.219   7.464  18.379  0.00  0.00    +0.000 C 
BRANCH   4   6
ATOM      5  N   UNL     1       9.289   9.396  19.389  0.00  0.00    +0.000 N 
ATOM      6  C   UNL     1       8.372   8.968  18.447  0.00  0.00    +0.000 C 
ATOM      7  O   UNL     1       7.729   9.671  17.669  0.00  0.00    +0.000 OA
ATOM      8  H   UNL     1       9.884   8.697  19.809  0.00  0.00    +0.000 HD
BRANCH   5  14
ATOM      9  C   UNL     1      10.343  11.523  18.793  0.00  0.00    +0.000 A 
ATOM     10  C   UNL     1      10.550  12.885  19.077  0.00  0.00    +0.000 A 
ATOM     11  C   UNL     1      10.128  13.442  20.287  0.00  0.00    +0.000 A 
ATOM     12  C   UNL     1       9.461  12.659  21.216  0.00  0.00    +0.000 A 
ATOM     13  C   UNL     1       9.203  11.321  20.929  0.00  0.00    +0.000 A 
ATOM     14  C   UNL     1       9.603  10.742  19.712  0.00  0.00    +0.000 A 
BRANCH   9  15
ATOM     15  N   UNL     1      10.683  11.059  17.503  0.00  0.00    +0.000 N 
ATOM     16  H   UNL     1       9.879  10.996  16.886  0.00  0.00    +0.000 HD
ATOM     17  H   UNL     1      11.441  11.555  17.056  0.00  0.00    +0.000 HD
ENDBRANCH   9  15
ENDBRANCH   5  14
ENDBRANCH   4   6
ENDBRANCH   3   4
ENDBRANCH   2   3
ENDBRANCH   1   2
BRANCH   1  18
ATOM     18  C   UNL     1       5.618   3.754  16.019  0.00  0.00    +0.000 C 
BRANCH  18  19
ATOM     19  N   UNL     1       4.884   3.736  17.269  0.00  0.00    +0.000 N 
ATOM     20  C   UNL     1       3.537   3.454  17.346  0.00  0.00    +0.000 C 
ATOM     21  O   UNL     1       2.819   3.210  16.387  0.00  0.00    +0.000 OA
ATOM     22  H   UNL     1       5.387   4.044  18.092  0.00  0.00    +0.000 HD
BRANCH  20  23
ATOM     23  C   UNL     1       2.948   3.458  18.711  0.00  0.00    +0.000 A 
ATOM     24  C   UNL     1       2.186   2.331  19.085  0.00  0.00    +0.000 A 
ATOM     25  C   UNL     1       1.510   2.288  20.304  0.00  0.00    +0.000 A 
ATOM     26  C   UNL     1       1.581   3.373  21.165  0.00  0.00    +0.000 A 
ATOM     27  C   UNL     1       2.321   4.500  20.804  0.00  0.00    +0.000 A 
ATOM     28  C   UNL     1       3.011   4.566  19.573  0.00  0.00    +0.000 A 
BRANCH  28  29
ATOM     29  C   UNL     1       3.665   5.881  19.294  0.00  0.00    +0.000 C 
ATOM     30  O   UNL     1       4.872   5.959  19.555  0.00  0.00    +0.000 OA
BRANCH  29  31
ATOM     31  C   UNL     1       2.915   6.998  18.581  0.00  0.00    +0.000 C 
ATOM     32  F   UNL     1       3.684   7.783  17.779  0.00  0.00    +0.000 F 
ATOM     33  F   UNL     1       1.870   6.546  17.836  0.00  0.00    +0.000 F 
ATOM     34  F   UNL     1       2.364   7.862  19.489  0.00  0.00    +0.000 F 
ENDBRANCH  29  31
ENDBRANCH  28  29
ENDBRANCH  20  23
ENDBRANCH  18  19
ENDBRANCH   1  18
TORSDOF 11
ENDMDL
MODEL 6
REMARK VINA RESULT:      -7.6      5.628      8.847
REMARK  Name = 
REMARK  11 active torsions:
REMARK  status: ('A' for Active; 'I' for Inactive)
REMARK    1  A    between atoms: N_1  and  C_2
REMARK    2  A    between atoms: C_7  and  N_8
REMARK    3  A    between atoms: C_9  and  C_11
REMARK    4  A    between atoms: C_11  and  C_12
REMARK    5  A    between atoms: C_12  and  C_13
REMARK    6  A    between atoms: C_13  and  C_14
REMARK    7  A    between atoms: C_14  and  C_15
REMARK    8  A    between atoms: C_15  and  N_16
REMARK    9  A    between atoms: C_17  and  C_19
REMARK   10  A    between atoms: C_24  and  C_25
REMARK   11  A    between atoms: C_25  and  C_27
REMARK                            x       y       z     vdW  Elec       q    Type
REMARK                         _______ _______ _______ _____ _____    ______ ____
ROOT
ATOM      1  C   UNL     1       0.705   9.362  17.851  0.00  0.00    +0.000 C 
ENDROOT
BRANCH   1   2
ATOM      2  C   UNL     1       0.182  10.478  18.764  0.00  0.00    +0.000 C 
BRANCH   2   3
ATOM      3  C   UNL     1       0.842  10.564  20.145  0.00  0.00    +0.000 C 
BRANCH   3   4
ATOM      4  C   UNL     1       0.217   9.628  21.175  0.00  0.00    +0.000 C 
BRANCH   4   6
ATOM      5  N   UNL     1      -1.180  11.446  21.976  0.00  0.00    +0.000 N 
ATOM      6  C   UNL     1      -0.328  10.421  22.344  0.00  0.00    +0.000 C 
ATOM      7  O   UNL     1      -0.022  10.088  23.487  0.00  0.00    +0.000 OA
ATOM      8  H   UNL     1      -1.494  11.467  21.016  0.00  0.00    +0.000 HD
BRANCH   5  14
ATOM      9  C   UNL     1      -1.179  13.634  23.070  0.00  0.00    +0.000 A 
ATOM     10  C   UNL     1      -1.857  14.594  23.844  0.00  0.00    +0.000 A 
ATOM     11  C   UNL     1      -3.070  14.291  24.468  0.00  0.00    +0.000 A 
ATOM     12  C   UNL     1      -3.643  13.041  24.300  0.00  0.00    +0.000 A 
ATOM     13  C   UNL     1      -3.010  12.097  23.496  0.00  0.00    +0.000 A 
ATOM     14  C   UNL     1      -1.799  12.382  22.845  0.00  0.00    +0.000 A 
BRANCH   9  15
ATOM     15  N   UNL     1      -0.025  14.049  22.369  0.00  0.00    +0.000 N 
ATOM     16  H   UNL     1      -0.149  14.021  21.361  0.00  0.00    +0.000 HD
ATOM     17  H   UNL     1       0.356  14.938  22.660  0.00  0.00    +0.000 HD
ENDBRANCH   9  15
ENDBRANCH   5  14
ENDBRANCH   4   6
ENDBRANCH   3   4
ENDBRANCH   2   3
ENDBRANCH   1   2
BRANCH   1  18
ATOM     18  C   UNL     1       2.195   9.074  18.046  0.00  0.00    +0.000 C 
BRANCH  18  19
ATOM     19  N   UNL     1       2.522   7.690  17.762  0.00  0.00    +0.000 N 
ATOM     20  C   UNL     1       2.567   6.713  18.733  0.00  0.00    +0.000 C 
ATOM     21  O   UNL     1       2.356   6.901  19.923  0.00  0.00    +0.000 OA
ATOM     22  H   UNL     1       2.823   7.483  16.818  0.00  0.00    +0.000 HD
BRANCH  20  23
ATOM     23  C   UNL     1       2.899   5.343  18.262  0.00  0.00    +0.000 A 
ATOM     24  C   UNL     1       1.824   4.446  18.084  0.00  0.00    +0.000 A 
ATOM     25  C   UNL     1       2.045   3.112  17.745  0.00  0.00    +0.000 A 
ATOM     26  C   UNL     1       3.343   2.651  17.584  0.00  0.00    +0.000 A 
ATOM     27  C   UNL     1       4.417   3.523  17.769  0.00  0.00    +0.000 A 
ATOM     28  C   UNL     1       4.217   4.878  18.116  0.00  0.00    +0.000 A 
BRANCH  28  29
ATOM     29  C   UNL     1       5.471   5.646  18.380  0.00  0.00    +0.000 C 
ATOM     30  O   UNL     1       5.949   5.543  19.518  0.00  0.00    +0.000 OA
BRANCH  29  31
ATOM     31  C   UNL     1       6.196   6.381  17.261  0.00  0.00    +0.000 C 
ATOM     32  F   UNL     1       6.823   7.527  17.639  0.00  0.00    +0.000 F 
ATOM     33  F   UNL     1       7.110   5.604  16.619  0.00  0.00    +0.000 F 
ATOM     34  F   UNL     1       5.311   6.772  16.292  0.00  0.00    +0.000 F 
ENDBRANCH  29  31
ENDBRANCH  28  29
ENDBRANCH  20  23
ENDBRANCH  18  19
ENDBRANCH   1  18
TORSDOF 11
ENDMDL
MODEL 7
REMARK VINA RESULT:      -7.6      5.062      6.524
REMARK  Name = 
REMARK  11 active torsions:
REMARK  status: ('A' for Active; 'I' for Inactive)
REMARK    1  A    between atoms: N_1  and  C_2
REMARK    2  A    between atoms: C_7  and  N_8
REMARK    3  A    between atoms: C_9  and  C_11
REMARK    4  A    between atoms: C_11  and  C_12
REMARK    5  A    between atoms: C_12  and  C_13
REMARK    6  A    between atoms: C_13  and  C_14
REMARK    7  A    between atoms: C_14  and  C_15
REMARK    8  A    between atoms: C_15  and  N_16
REMARK    9  A    between atoms: C_17  and  C_19
REMARK   10  A    between atoms: C_24  and  C_25
REMARK   11  A    between atoms: C_25  and  C_27
REMARK                            x       y       z     vdW  Elec       q    Type
REMARK                         _______ _______ _______ _____ _____    ______ ____
ROOT
ATOM      1  C   UNL     1       1.382   9.021  17.888  0.00  0.00    +0.000 C 
ENDROOT
BRANCH   1   2
ATOM      2  C   UNL     1       0.996   9.588  19.260  0.00  0.00    +0.000 C 
BRANCH   2   3
ATOM      3  C   UNL     1      -0.320  10.370  19.305  0.00  0.00    +0.000 C 
BRANCH   3   4
ATOM      4  C   UNL     1      -0.425  11.314  20.499  0.00  0.00    +0.000 C 
BRANCH   4   6
ATOM      5  N   UNL     1       0.529  13.189  19.286  0.00  0.00    +0.000 N 
ATOM      6  C   UNL     1       0.632  12.393  20.412  0.00  0.00    +0.000 C 
ATOM      7  O   UNL     1       1.446  12.508  21.326  0.00  0.00    +0.000 OA
ATOM      8  H   UNL     1      -0.310  13.102  18.731  0.00  0.00    +0.000 HD
BRANCH   5  14
ATOM      9  C   UNL     1       2.534  13.952  18.108  0.00  0.00    +0.000 A 
ATOM     10  C   UNL     1       3.330  15.018  17.654  0.00  0.00    +0.000 A 
ATOM     11  C   UNL     1       3.083  16.330  18.066  0.00  0.00    +0.000 A 
ATOM     12  C   UNL     1       2.016  16.603  18.908  0.00  0.00    +0.000 A 
ATOM     13  C   UNL     1       1.188  15.565  19.327  0.00  0.00    +0.000 A 
ATOM     14  C   UNL     1       1.405  14.241  18.912  0.00  0.00    +0.000 A 
BRANCH   9  15
ATOM     15  N   UNL     1       2.764  12.674  17.553  0.00  0.00    +0.000 N 
ATOM     16  H   UNL     1       3.556  12.199  17.979  0.00  0.00    +0.000 HD
ATOM     17  H   UNL     1       1.956  12.068  17.523  0.00  0.00    +0.000 HD
ENDBRANCH   9  15
ENDBRANCH   5  14
ENDBRANCH   4   6
ENDBRANCH   3   4
ENDBRANCH   2   3
ENDBRANCH   1   2
BRANCH   1  18
ATOM     18  C   UNL     1       2.790   8.426  17.858  0.00  0.00    +0.000 C 
BRANCH  18  19
ATOM     19  N   UNL     1       2.767   6.983  17.718  0.00  0.00    +0.000 N 
ATOM     20  C   UNL     1       2.728   6.123  18.795  0.00  0.00    +0.000 C 
ATOM     21  O   UNL     1       2.726   6.472  19.967  0.00  0.00    +0.000 OA
ATOM     22  H   UNL     1       2.885   6.619  16.781  0.00  0.00    +0.000 HD
BRANCH  20  23
ATOM     23  C   UNL     1       2.688   4.674  18.469  0.00  0.00    +0.000 A 
ATOM     24  C   UNL     1       1.451   4.012  18.634  0.00  0.00    +0.000 A 
ATOM     25  C   UNL     1       1.339   2.635  18.452  0.00  0.00    +0.000 A 
ATOM     26  C   UNL     1       2.461   1.895  18.110  0.00  0.00    +0.000 A 
ATOM     27  C   UNL     1       3.694   2.533  17.956  0.00  0.00    +0.000 A 
ATOM     28  C   UNL     1       3.831   3.926  18.138  0.00  0.00    +0.000 A 
BRANCH  28  29
ATOM     29  C   UNL     1       5.233   4.433  18.041  0.00  0.00    +0.000 C 
ATOM     30  O   UNL     1       5.941   4.285  19.046  0.00  0.00    +0.000 OA
BRANCH  29  31
ATOM     31  C   UNL     1       5.794   4.954  16.724  0.00  0.00    +0.000 C 
ATOM     32  F   UNL     1       7.011   4.452  16.381  0.00  0.00    +0.000 F 
ATOM     33  F   UNL     1       4.954   4.753  15.673  0.00  0.00    +0.000 F 
ATOM     34  F   UNL     1       5.980   6.309  16.784  0.00  0.00    +0.000 F 
ENDBRANCH  29  31
ENDBRANCH  28  29
ENDBRANCH  20  23
ENDBRANCH  18  19
ENDBRANCH   1  18
TORSDOF 11
ENDMDL
MODEL 8
REMARK VINA RESULT:      -7.5      6.313      8.609
REMARK  Name = 
REMARK  11 active torsions:
REMARK  status: ('A' for Active; 'I' for Inactive)
REMARK    1  A    between atoms: N_1  and  C_2
REMARK    2  A    between atoms: C_7  and  N_8
REMARK    3  A    between atoms: C_9  and  C_11
REMARK    4  A    between atoms: C_11  and  C_12
REMARK    5  A    between atoms: C_12  and  C_13
REMARK    6  A    between atoms: C_13  and  C_14
REMARK    7  A    between atoms: C_14  and  C_15
REMARK    8  A    between atoms: C_15  and  N_16
REMARK    9  A    between atoms: C_17  and  C_19
REMARK   10  A    between atoms: C_24  and  C_25
REMARK   11  A    between atoms: C_25  and  C_27
REMARK                            x       y       z     vdW  Elec       q    Type
REMARK                         _______ _______ _______ _____ _____    ______ ____
ROOT
ATOM      1  C   UNL     1       1.175   4.860  20.090  0.00  0.00    +0.000 C 
ENDROOT
BRANCH   1   2
ATOM      2  C   UNL     1       1.426   3.462  20.669  0.00  0.00    +0.000 C 
BRANCH   2   3
ATOM      3  C   UNL     1       2.773   2.829  20.307  0.00  0.00    +0.000 C 
BRANCH   3   4
ATOM      4  C   UNL     1       2.720   1.964  19.051  0.00  0.00    +0.000 C 
BRANCH   4   6
ATOM      5  N   UNL     1       4.371   3.125  17.701  0.00  0.00    +0.000 N 
ATOM      6  C   UNL     1       3.034   2.794  17.826  0.00  0.00    +0.000 C 
ATOM      7  O   UNL     1       2.128   3.069  17.041  0.00  0.00    +0.000 OA
ATOM      8  H   UNL     1       5.024   2.658  18.314  0.00  0.00    +0.000 HD
BRANCH   5  14
ATOM      9  C   UNL     1       4.658   5.318  16.653  0.00  0.00    +0.000 A 
ATOM     10  C   UNL     1       5.325   6.125  15.714  0.00  0.00    +0.000 A 
ATOM     11  C   UNL     1       6.181   5.566  14.762  0.00  0.00    +0.000 A 
ATOM     12  C   UNL     1       6.415   4.200  14.755  0.00  0.00    +0.000 A 
ATOM     13  C   UNL     1       5.802   3.394  15.710  0.00  0.00    +0.000 A 
ATOM     14  C   UNL     1       4.950   3.934  16.688  0.00  0.00    +0.000 A 
BRANCH   9  15
ATOM     15  N   UNL     1       3.908   5.962  17.661  0.00  0.00    +0.000 N 
ATOM     16  H   UNL     1       4.470   6.596  18.223  0.00  0.00    +0.000 HD
ATOM     17  H   UNL     1       3.064   6.418  17.342  0.00  0.00    +0.000 HD
ENDBRANCH   9  15
ENDBRANCH   5  14
ENDBRANCH   4   6
ENDBRANCH   3   4
ENDBRANCH   2   3
ENDBRANCH   1   2
BRANCH   1  18
ATOM     18  C   UNL     1       2.157   5.911  20.611  0.00  0.00    +0.000 C 
BRANCH  18  19
ATOM     19  N   UNL     1       1.473   7.059  21.175  0.00  0.00    +0.000 N 
ATOM     20  C   UNL     1       1.331   8.255  20.503  0.00  0.00    +0.000 C 
ATOM     21  O   UNL     1       1.770   8.483  19.385  0.00  0.00    +0.000 OA
ATOM     22  H   UNL     1       1.187   6.983  22.142  0.00  0.00    +0.000 HD
BRANCH  20  23
ATOM     23  C   UNL     1       0.584   9.320  21.222  0.00  0.00    +0.000 A 
ATOM     24  C   UNL     1       0.286   9.089  22.582  0.00  0.00    +0.000 A 
ATOM     25  C   UNL     1      -0.497   9.983  23.312  0.00  0.00    +0.000 A 
ATOM     26  C   UNL     1      -1.001  11.117  22.692  0.00  0.00    +0.000 A 
ATOM     27  C   UNL     1      -0.725  11.352  21.344  0.00  0.00    +0.000 A 
ATOM     28  C   UNL     1       0.064  10.460  20.586  0.00  0.00    +0.000 A 
BRANCH  28  29
ATOM     29  C   UNL     1       0.175  10.803  19.135  0.00  0.00    +0.000 C 
ATOM     30  O   UNL     1       1.227  11.351  18.780  0.00  0.00    +0.000 OA
BRANCH  29  31
ATOM     31  C   UNL     1      -0.883  10.354  18.137  0.00  0.00    +0.000 C 
ATOM     32  F   UNL     1      -1.491  11.361  17.454  0.00  0.00    +0.000 F 
ATOM     33  F   UNL     1      -0.409   9.464  17.222  0.00  0.00    +0.000 F 
ATOM     34  F   UNL     1      -1.903   9.703  18.777  0.00  0.00    +0.000 F 
ENDBRANCH  29  31
ENDBRANCH  28  29
ENDBRANCH  20  23
ENDBRANCH  18  19
ENDBRANCH   1  18
TORSDOF 11
ENDMDL
MODEL 9
REMARK VINA RESULT:      -7.5      5.323      7.711
REMARK  Name = 
REMARK  11 active torsions:
REMARK  status: ('A' for Active; 'I' for Inactive)
REMARK    1  A    between atoms: N_1  and  C_2
REMARK    2  A    between atoms: C_7  and  N_8
REMARK    3  A    between atoms: C_9  and  C_11
REMARK    4  A    between atoms: C_11  and  C_12
REMARK    5  A    between atoms: C_12  and  C_13
REMARK    6  A    between atoms: C_13  and  C_14
REMARK    7  A    between atoms: C_14  and  C_15
REMARK    8  A    between atoms: C_15  and  N_16
REMARK    9  A    between atoms: C_17  and  C_19
REMARK   10  A    between atoms: C_24  and  C_25
REMARK   11  A    between atoms: C_25  and  C_27
REMARK                            x       y       z     vdW  Elec       q    Type
REMARK                         _______ _______ _______ _____ _____    ______ ____
ROOT
ATOM      1  C   UNL     1       2.180   1.878  18.587  0.00  0.00    +0.000 C 
ENDROOT
BRANCH   1   2
ATOM      2  C   UNL     1       2.259   3.235  19.299  0.00  0.00    +0.000 C 
BRANCH   2   3
ATOM      3  C   UNL     1       2.906   3.215  20.687  0.00  0.00    +0.000 C 
BRANCH   3   4
ATOM      4  C   UNL     1       2.357   4.283  21.629  0.00  0.00    +0.000 C 
BRANCH   4   6
ATOM      5  N   UNL     1       2.417   6.464  20.561  0.00  0.00    +0.000 N 
ATOM      6  C   UNL     1       1.636   5.358  20.843  0.00  0.00    +0.000 C 
ATOM      7  O   UNL     1       0.474   5.164  20.492  0.00  0.00    +0.000 OA
ATOM      8  H   UNL     1       3.408   6.390  20.739  0.00  0.00    +0.000 HD
BRANCH   5  14
ATOM      9  C   UNL     1       2.387   7.849  18.544  0.00  0.00    +0.000 A 
ATOM     10  C   UNL     1       1.875   8.965  17.858  0.00  0.00    +0.000 A 
ATOM     11  C   UNL     1       1.084   9.913  18.511  0.00  0.00    +0.000 A 
ATOM     12  C   UNL     1       0.761   9.744  19.848  0.00  0.00    +0.000 A 
ATOM     13  C   UNL     1       1.217   8.619  20.529  0.00  0.00    +0.000 A 
ATOM     14  C   UNL     1       2.000   7.642  19.889  0.00  0.00    +0.000 A 
BRANCH   9  15
ATOM     15  N   UNL     1       3.073   6.870  17.792  0.00  0.00    +0.000 N 
ATOM     16  H   UNL     1       3.404   7.224  16.899  0.00  0.00    +0.000 HD
ATOM     17  H   UNL     1       3.813   6.391  18.285  0.00  0.00    +0.000 HD
ENDBRANCH   9  15
ENDBRANCH   5  14
ENDBRANCH   4   6
ENDBRANCH   3   4
ENDBRANCH   2   3
ENDBRANCH   1   2
BRANCH   1  18
ATOM     18  C   UNL     1       3.461   1.521  17.832  0.00  0.00    +0.000 C 
BRANCH  18  19
ATOM     19  N   UNL     1       4.499   2.516  18.022  0.00  0.00    +0.000 N 
ATOM     20  C   UNL     1       4.554   3.692  17.305  0.00  0.00    +0.000 C 
ATOM     21  O   UNL     1       3.759   4.015  16.433  0.00  0.00    +0.000 OA
ATOM     22  H   UNL     1       5.256   2.264  18.644  0.00  0.00    +0.000 HD
BRANCH  20  23
ATOM     23  C   UNL     1       5.674   4.608  17.643  0.00  0.00    +0.000 A 
ATOM     24  C   UNL     1       6.075   4.662  18.995  0.00  0.00    +0.000 A 
ATOM     25  C   UNL     1       7.046   5.564  19.426  0.00  0.00    +0.000 A 
ATOM     26  C   UNL     1       7.628   6.432  18.513  0.00  0.00    +0.000 A 
ATOM     27  C   UNL     1       7.233   6.400  17.175  0.00  0.00    +0.000 A 
ATOM     28  C   UNL     1       6.249   5.496  16.717  0.00  0.00    +0.000 A 
BRANCH  28  29
ATOM     29  C   UNL     1       5.866   5.663  15.282  0.00  0.00    +0.000 C 
ATOM     30  O   UNL     1       5.292   6.719  14.987  0.00  0.00    +0.000 OA
BRANCH  29  31
ATOM     31  C   UNL     1       6.307   4.657  14.227  0.00  0.00    +0.000 C 
ATOM     32  F   UNL     1       5.308   4.184  13.434  0.00  0.00    +0.000 F 
ATOM     33  F   UNL     1       7.287   5.135  13.414  0.00  0.00    +0.000 F 
ATOM     34  F   UNL     1       6.839   3.543  14.818  0.00  0.00    +0.000 F 
ENDBRANCH  29  31
ENDBRANCH  28  29
ENDBRANCH  20  23
ENDBRANCH  18  19
ENDBRANCH   1  18
TORSDOF 11
ENDMDL
