MODEL 1
REMARK VINA RESULT:      -6.1      0.000      0.000
REMARK  Name = 
REMARK  12 active torsions:
REMARK  status: ('A' for Active; 'I' for Inactive)
REMARK    1  A    between atoms: C_1  and  C_2
REMARK    2  A    between atoms: C_2  and  O_3
REMARK    3  A    between atoms: O_3  and  C_4
REMARK    4  A    between atoms: C_4  and  C_6
REMARK    5  A    between atoms: C_6  and  C_7
REMARK    6  A    between atoms: C_7  and  N_8
REMARK    7  A    between atoms: N_8  and  C_9
REMARK    8  A    between atoms: C_9  and  C_10
REMARK    9  A    between atoms: C_13  and  O_14
REMARK   10  A    between atoms: O_14  and  C_15
REMARK   11  A    between atoms: C_16  and  O_17
REMARK   12  A    between atoms: O_17  and  C_18
REMARK                            x       y       z     vdW  Elec       q    Type
REMARK                         _______ _______ _______ _____ _____    ______ ____
ROOT
ATOM      1  C   UNL     1       3.772   2.822  18.069  0.00  0.00    +0.000 C 
ENDROOT
BRANCH   1   2
ATOM      2  C   UNL     1       4.714   3.942  17.723  0.00  0.00    +0.000 A 
ATOM      3  C   UNL     1       5.333   4.694  18.726  0.00  0.00    +0.000 A 
ATOM      4  C   UNL     1       6.228   5.712  18.392  0.00  0.00    +0.000 A 
ATOM      5  C   UNL     1       6.527   6.000  17.054  0.00  0.00    +0.000 A 
ATOM      6  C   UNL     1       5.899   5.249  16.024  0.00  0.00    +0.000 A 
ATOM      7  C   UNL     1       4.997   4.223  16.379  0.00  0.00    +0.000 A 
BRANCH   5   8
ATOM      8  O   UNL     1       7.426   6.999  16.831  0.00  0.00    +0.000 OA
ATOM      9  C   UNL     1       7.754   8.044  17.670  0.00  0.00    +0.000 C 
ENDBRANCH   5   8
BRANCH   6  10
ATOM     10  O   UNL     1       6.174   5.518  14.721  0.00  0.00    +0.000 OA
ATOM     11  C   UNL     1       7.050   4.824  13.912  0.00  0.00    +0.000 C 
ENDBRANCH   6  10
ENDBRANCH   1   2
BRANCH   1  12
ATOM     12  N   UNL     1       2.407   3.329  18.263  0.00  0.00    +0.000 NA
ATOM     13  H   UNL     1       2.460   4.253  18.754  0.00  0.00    +0.000 HD
BRANCH  12  14
ATOM     14  C   UNL     1       1.639   2.387  19.085  0.00  0.00    +0.000 C 
BRANCH  14  15
ATOM     15  C   UNL     1       0.889   3.119  20.204  0.00  0.00    +0.000 C 
BRANCH  15  16
ATOM     16  C   UNL     1       1.869   3.727  21.168  0.00  0.00    +0.000 C 
ATOM     17  O   UNL     1       2.151   3.129  22.198  0.00  0.00    +0.000 OA
BRANCH  16  18
ATOM     18  O   UNL     1       2.470   4.908  20.864  0.00  0.00    +0.000 OA
BRANCH  18  20
ATOM     19  C   UNL     1       2.507   6.864  19.459  0.00  0.00    +0.000 C 
ATOM     20  C   UNL     1       1.793   6.075  20.554  0.00  0.00    +0.000 C 
ENDBRANCH  18  20
ENDBRANCH  16  18
ENDBRANCH  15  16
ENDBRANCH  14  15
ENDBRANCH  12  14
ENDBRANCH   1  12
TORSDOF 9
ENDMDL
MODEL 2
REMARK VINA RESULT:      -5.9      1.349      3.089
REMARK  Name = 
REMARK  12 active torsions:
REMARK  status: ('A' for Active; 'I' for Inactive)
REMARK    1  A    between atoms: C_1  and  C_2
REMARK    2  A    between atoms: C_2  and  O_3
REMARK    3  A    between atoms: O_3  and  C_4
REMARK    4  A    between atoms: C_4  and  C_6
REMARK    5  A    between atoms: C_6  and  C_7
REMARK    6  A    between atoms: C_7  and  N_8
REMARK    7  A    between atoms: N_8  and  C_9
REMARK    8  A    between atoms: C_9  and  C_10
REMARK    9  A    between atoms: C_13  and  O_14
REMARK   10  A    between atoms: O_14  and  C_15
REMARK   11  A    between atoms: C_16  and  O_17
REMARK   12  A    between atoms: O_17  and  C_18
REMARK                            x       y       z     vdW  Elec       q    Type
REMARK                         _______ _______ _______ _____ _____    ______ ____
ROOT
ATOM      1  C   UNL     1       2.744   5.867  18.377  0.00  0.00    +0.000 C 
ENDROOT
BRANCH   1   2
ATOM      2  C   UNL     1       3.972   5.589  17.555  0.00  0.00    +0.000 A 
ATOM      3  C   UNL     1       4.093   4.403  16.825  0.00  0.00    +0.000 A 
ATOM      4  C   UNL     1       5.225   4.169  16.043  0.00  0.00    +0.000 A 
ATOM      5  C   UNL     1       6.259   5.112  15.969  0.00  0.00    +0.000 A 
ATOM      6  C   UNL     1       6.153   6.318  16.712  0.00  0.00    +0.000 A 
ATOM      7  C   UNL     1       5.001   6.538  17.498  0.00  0.00    +0.000 A 
BRANCH   5   8
ATOM      8  O   UNL     1       7.313   4.801  15.164  0.00  0.00    +0.000 OA
ATOM      9  C   UNL     1       7.354   4.808  13.786  0.00  0.00    +0.000 C 
ENDBRANCH   5   8
BRANCH   6  10
ATOM     10  O   UNL     1       7.148   7.242  16.656  0.00  0.00    +0.000 OA
ATOM     11  C   UNL     1       7.630   7.987  17.713  0.00  0.00    +0.000 C 
ENDBRANCH   6  10
ENDBRANCH   1   2
BRANCH   1  12
ATOM     12  N   UNL     1       3.088   6.016  19.797  0.00  0.00    +0.000 NA
ATOM     13  H   UNL     1       3.801   5.290  20.047  0.00  0.00    +0.000 HD
BRANCH  12  14
ATOM     14  C   UNL     1       1.891   5.823  20.622  0.00  0.00    +0.000 C 
BRANCH  14  15
ATOM     15  C   UNL     1       1.347   4.397  20.478  0.00  0.00    +0.000 C 
BRANCH  15  16
ATOM     16  C   UNL     1       2.311   3.415  21.084  0.00  0.00    +0.000 C 
ATOM     17  O   UNL     1       1.949   2.716  22.021  0.00  0.00    +0.000 OA
BRANCH  16  18
ATOM     18  O   UNL     1       3.557   3.279  20.556  0.00  0.00    +0.000 OA
BRANCH  18  20
ATOM     19  C   UNL     1       2.839   1.764  18.827  0.00  0.00    +0.000 C 
ATOM     20  C   UNL     1       3.959   2.222  19.758  0.00  0.00    +0.000 C 
ENDBRANCH  18  20
ENDBRANCH  16  18
ENDBRANCH  15  16
ENDBRANCH  14  15
ENDBRANCH  12  14
ENDBRANCH   1  12
TORSDOF 9
ENDMDL
MODEL 3
REMARK VINA RESULT:      -5.8      1.582      6.117
REMARK  Name = 
REMARK  12 active torsions:
REMARK  status: ('A' for Active; 'I' for Inactive)
REMARK    1  A    between atoms: C_1  and  C_2
REMARK    2  A    between atoms: C_2  and  O_3
REMARK    3  A    between atoms: O_3  and  C_4
REMARK    4  A    between atoms: C_4  and  C_6
REMARK    5  A    between atoms: C_6  and  C_7
REMARK    6  A    between atoms: C_7  and  N_8
REMARK    7  A    between atoms: N_8  and  C_9
REMARK    8  A    between atoms: C_9  and  C_10
REMARK    9  A    between atoms: C_13  and  O_14
REMARK   10  A    between atoms: O_14  and  C_15
REMARK   11  A    between atoms: C_16  and  O_17
REMARK   12  A    between atoms: O_17  and  C_18
REMARK                            x       y       z     vdW  Elec       q    Type
REMARK                         _______ _______ _______ _____ _____    ______ ____
ROOT
ATOM      1  C   UNL     1       3.972   3.763  16.869  0.00  0.00    +0.000 C 
ENDROOT
BRANCH   1   2
ATOM      2  C   UNL     1       3.324   4.547  17.977  0.00  0.00    +0.000 A 
ATOM      3  C   UNL     1       3.461   5.937  18.045  0.00  0.00    +0.000 A 
ATOM      4  C   UNL     1       2.831   6.658  19.062  0.00  0.00    +0.000 A 
ATOM      5  C   UNL     1       2.051   6.009  20.029  0.00  0.00    +0.000 A 
ATOM      6  C   UNL     1       1.911   4.597  19.976  0.00  0.00    +0.000 A 
ATOM      7  C   UNL     1       2.554   3.884  18.942  0.00  0.00    +0.000 A 
BRANCH   5   8
ATOM      8  O   UNL     1       1.462   6.801  20.969  0.00  0.00    +0.000 OA
ATOM      9  C   UNL     1       1.322   8.173  20.950  0.00  0.00    +0.000 C 
ENDBRANCH   5   8
BRANCH   6  10
ATOM     10  O   UNL     1       1.162   3.951  20.909  0.00  0.00    +0.000 OA
ATOM     11  C   UNL     1       1.472   2.751  21.515  0.00  0.00    +0.000 C 
ENDBRANCH   6  10
ENDBRANCH   1   2
BRANCH   1  12
ATOM     12  N   UNL     1       5.434   3.893  16.923  0.00  0.00    +0.000 NA
ATOM     13  H   UNL     1       5.675   4.897  17.104  0.00  0.00    +0.000 HD
BRANCH  12  14
ATOM     14  C   UNL     1       6.017   3.479  15.642  0.00  0.00    +0.000 C 
BRANCH  14  15
ATOM     15  C   UNL     1       6.223   4.684  14.716  0.00  0.00    +0.000 C 
BRANCH  15  16
ATOM     16  C   UNL     1       6.332   5.944  15.529  0.00  0.00    +0.000 C 
ATOM     17  O   UNL     1       5.406   6.744  15.526  0.00  0.00    +0.000 OA
BRANCH  16  18
ATOM     18  O   UNL     1       7.434   6.159  16.296  0.00  0.00    +0.000 OA
BRANCH  18  20
ATOM     19  C   UNL     1       7.832   8.127  17.627  0.00  0.00    +0.000 C 
ATOM     20  C   UNL     1       7.405   6.662  17.585  0.00  0.00    +0.000 C 
ENDBRANCH  18  20
ENDBRANCH  16  18
ENDBRANCH  15  16
ENDBRANCH  14  15
ENDBRANCH  12  14
ENDBRANCH   1  12
TORSDOF 9
ENDMDL
MODEL 4
REMARK VINA RESULT:      -5.8      1.528      3.024
REMARK  Name = 
REMARK  12 active torsions:
REMARK  status: ('A' for Active; 'I' for Inactive)
REMARK    1  A    between atoms: C_1  and  C_2
REMARK    2  A    between atoms: C_2  and  O_3
REMARK    3  A    between atoms: O_3  and  C_4
REMARK    4  A    between atoms: C_4  and  C_6
REMARK    5  A    between atoms: C_6  and  C_7
REMARK    6  A    between atoms: C_7  and  N_8
REMARK    7  A    between atoms: N_8  and  C_9
REMARK    8  A    between atoms: C_9  and  C_10
REMARK    9  A    between atoms: C_13  and  O_14
REMARK   10  A    between atoms: O_14  and  C_15
REMARK   11  A    between atoms: C_16  and  O_17
REMARK   12  A    between atoms: O_17  and  C_18
REMARK                            x       y       z     vdW  Elec       q    Type
REMARK                         _______ _______ _______ _____ _____    ______ ____
ROOT
ATOM      1  C   UNL     1       4.498   3.772  18.484  0.00  0.00    +0.000 C 
ENDROOT
BRANCH   1   2
ATOM      2  C   UNL     1       5.382   4.230  17.357  0.00  0.00    +0.000 A 
ATOM      3  C   UNL     1       5.403   3.543  16.139  0.00  0.00    +0.000 A 
ATOM      4  C   UNL     1       6.206   3.994  15.090  0.00  0.00    +0.000 A 
ATOM      5  C   UNL     1       7.003   5.138  15.231  0.00  0.00    +0.000 A 
ATOM      6  C   UNL     1       6.998   5.841  16.466  0.00  0.00    +0.000 A 
ATOM      7  C   UNL     1       6.179   5.371  17.516  0.00  0.00    +0.000 A 
BRANCH   5   8
ATOM      8  O   UNL     1       7.737   5.509  14.144  0.00  0.00    +0.000 OA
ATOM      9  C   UNL     1       7.668   4.999  12.865  0.00  0.00    +0.000 C 
ENDBRANCH   5   8
BRANCH   6  10
ATOM     10  O   UNL     1       7.767   6.950  16.622  0.00  0.00    +0.000 OA
ATOM     11  C   UNL     1       7.654   7.886  17.629  0.00  0.00    +0.000 C 
ENDBRANCH   6  10
ENDBRANCH   1   2
BRANCH   1  12
ATOM     12  N   UNL     1       3.490   2.817  18.003  0.00  0.00    +0.000 NA
ATOM     13  H   UNL     1       3.976   2.062  17.462  0.00  0.00    +0.000 HD
BRANCH  12  14
ATOM     14  C   UNL     1       2.534   3.502  17.126  0.00  0.00    +0.000 C 
BRANCH  14  15
ATOM     15  C   UNL     1       1.486   4.265  17.944  0.00  0.00    +0.000 C 
BRANCH  15  16
ATOM     16  C   UNL     1       0.906   3.367  19.002  0.00  0.00    +0.000 C 
ATOM     17  O   UNL     1       0.580   2.224  18.709  0.00  0.00    +0.000 OA
BRANCH  16  18
ATOM     18  O   UNL     1       0.796   3.815  20.281  0.00  0.00    +0.000 OA
BRANCH  18  20
ATOM     19  C   UNL     1       2.507   2.719  21.574  0.00  0.00    +0.000 C 
ATOM     20  C   UNL     1       1.866   4.032  21.131  0.00  0.00    +0.000 C 
ENDBRANCH  18  20
ENDBRANCH  16  18
ENDBRANCH  15  16
ENDBRANCH  14  15
ENDBRANCH  12  14
ENDBRANCH   1  12
TORSDOF 9
ENDMDL
MODEL 5
REMARK VINA RESULT:      -5.7      1.568      2.975
REMARK  Name = 
REMARK  12 active torsions:
REMARK  status: ('A' for Active; 'I' for Inactive)
REMARK    1  A    between atoms: C_1  and  C_2
REMARK    2  A    between atoms: C_2  and  O_3
REMARK    3  A    between atoms: O_3  and  C_4
REMARK    4  A    between atoms: C_4  and  C_6
REMARK    5  A    between atoms: C_6  and  C_7
REMARK    6  A    between atoms: C_7  and  N_8
REMARK    7  A    between atoms: N_8  and  C_9
REMARK    8  A    between atoms: C_9  and  C_10
REMARK    9  A    between atoms: C_13  and  O_14
REMARK   10  A    between atoms: O_14  and  C_15
REMARK   11  A    between atoms: C_16  and  O_17
REMARK   12  A    between atoms: O_17  and  C_18
REMARK                            x       y       z     vdW  Elec       q    Type
REMARK                         _______ _______ _______ _____ _____    ______ ____
ROOT
ATOM      1  C   UNL     1       3.769   3.759  17.350  0.00  0.00    +0.000 C 
ENDROOT
BRANCH   1   2
ATOM      2  C   UNL     1       4.937   4.251  16.541  0.00  0.00    +0.000 A 
ATOM      3  C   UNL     1       5.348   3.572  15.390  0.00  0.00    +0.000 A 
ATOM      4  C   UNL     1       6.416   4.054  14.631  0.00  0.00    +0.000 A 
ATOM      5  C   UNL     1       7.094   5.223  15.001  0.00  0.00    +0.000 A 
ATOM      6  C   UNL     1       6.692   5.919  16.173  0.00  0.00    +0.000 A 
ATOM      7  C   UNL     1       5.610   5.417  16.928  0.00  0.00    +0.000 A 
BRANCH   5   8
ATOM      8  O   UNL     1       8.110   5.623  14.185  0.00  0.00    +0.000 OA
ATOM      9  C   UNL     1       8.175   5.532  12.811  0.00  0.00    +0.000 C 
ENDBRANCH   5   8
BRANCH   6  10
ATOM     10  O   UNL     1       7.341   7.052  16.548  0.00  0.00    +0.000 OA
ATOM     11  C   UNL     1       7.749   7.372  17.827  0.00  0.00    +0.000 C 
ENDBRANCH   6  10
ENDBRANCH   1   2
BRANCH   1  12
ATOM     12  N   UNL     1       4.136   2.569  18.128  0.00  0.00    +0.000 NA
ATOM     13  H   UNL     1       3.273   1.998  18.295  0.00  0.00    +0.000 HD
BRANCH  12  14
ATOM     14  C   UNL     1       4.705   2.974  19.418  0.00  0.00    +0.000 C 
BRANCH  14  15
ATOM     15  C   UNL     1       4.118   2.143  20.565  0.00  0.00    +0.000 C 
BRANCH  15  16
ATOM     16  C   UNL     1       2.881   2.809  21.100  0.00  0.00    +0.000 C 
ATOM     17  O   UNL     1       2.520   2.576  22.247  0.00  0.00    +0.000 OA
BRANCH  16  18
ATOM     18  O   UNL     1       2.204   3.699  20.326  0.00  0.00    +0.000 OA
BRANCH  18  20
ATOM     19  C   UNL     1       0.643   2.565  18.885  0.00  0.00    +0.000 C 
ATOM     20  C   UNL     1       0.865   3.590  19.994  0.00  0.00    +0.000 C 
ENDBRANCH  18  20
ENDBRANCH  16  18
ENDBRANCH  15  16
ENDBRANCH  14  15
ENDBRANCH  12  14
ENDBRANCH   1  12
TORSDOF 9
ENDMDL
MODEL 6
REMARK VINA RESULT:      -5.6      1.582      2.246
REMARK  Name = 
REMARK  12 active torsions:
REMARK  status: ('A' for Active; 'I' for Inactive)
REMARK    1  A    between atoms: C_1  and  C_2
REMARK    2  A    between atoms: C_2  and  O_3
REMARK    3  A    between atoms: O_3  and  C_4
REMARK    4  A    between atoms: C_4  and  C_6
REMARK    5  A    between atoms: C_6  and  C_7
REMARK    6  A    between atoms: C_7  and  N_8
REMARK    7  A    between atoms: N_8  and  C_9
REMARK    8  A    between atoms: C_9  and  C_10
REMARK    9  A    between atoms: C_13  and  O_14
REMARK   10  A    between atoms: O_14  and  C_15
REMARK   11  A    between atoms: C_16  and  O_17
REMARK   12  A    between atoms: O_17  and  C_18
REMARK                            x       y       z     vdW  Elec       q    Type
REMARK                         _______ _______ _______ _____ _____    ______ ____
ROOT
ATOM      1  C   UNL     1       1.429   4.452  17.970  0.00  0.00    +0.000 C 
ENDROOT
BRANCH   1   2
ATOM      2  C   UNL     1       2.749   5.069  17.597  0.00  0.00    +0.000 A 
ATOM      3  C   UNL     1       3.016   6.413  17.875  0.00  0.00    +0.000 A 
ATOM      4  C   UNL     1       4.256   6.966  17.551  0.00  0.00    +0.000 A 
ATOM      5  C   UNL     1       5.255   6.194  16.943  0.00  0.00    +0.000 A 
ATOM      6  C   UNL     1       4.993   4.829  16.646  0.00  0.00    +0.000 A 
ATOM      7  C   UNL     1       3.735   4.285  16.982  0.00  0.00    +0.000 A 
BRANCH   5   8
ATOM      8  O   UNL     1       6.437   6.820  16.683  0.00  0.00    +0.000 OA
ATOM      9  C   UNL     1       7.486   7.037  17.550  0.00  0.00    +0.000 C 
ENDBRANCH   5   8
BRANCH   6  10
ATOM     10  O   UNL     1       5.949   4.066  16.054  0.00  0.00    +0.000 OA
ATOM     11  C   UNL     1       6.161   3.933  14.697  0.00  0.00    +0.000 C 
ENDBRANCH   6  10
ENDBRANCH   1   2
BRANCH   1  12
ATOM     12  N   UNL     1       1.538   2.989  18.042  0.00  0.00    +0.000 NA
ATOM     13  H   UNL     1       1.072   2.576  17.199  0.00  0.00    +0.000 HD
BRANCH  12  14
ATOM     14  C   UNL     1       0.868   2.500  19.253  0.00  0.00    +0.000 C 
BRANCH  14  15
ATOM     15  C   UNL     1       1.069   3.469  20.423  0.00  0.00    +0.000 C 
BRANCH  15  16
ATOM     16  C   UNL     1       1.741   2.762  21.567  0.00  0.00    +0.000 C 
ATOM     17  O   UNL     1       1.072   2.394  22.524  0.00  0.00    +0.000 OA
BRANCH  16  18
ATOM     18  O   UNL     1       3.073   2.493  21.506  0.00  0.00    +0.000 OA
BRANCH  18  20
ATOM     19  C   UNL     1       4.576   1.920  19.713  0.00  0.00    +0.000 C 
ATOM     20  C   UNL     1       3.936   3.018  20.559  0.00  0.00    +0.000 C 
ENDBRANCH  18  20
ENDBRANCH  16  18
ENDBRANCH  15  16
ENDBRANCH  14  15
ENDBRANCH  12  14
ENDBRANCH   1  12
TORSDOF 9
ENDMDL
MODEL 7
REMARK VINA RESULT:      -5.6      1.636      3.250
REMARK  Name = 
REMARK  12 active torsions:
REMARK  status: ('A' for Active; 'I' for Inactive)
REMARK    1  A    between atoms: C_1  and  C_2
REMARK    2  A    between atoms: C_2  and  O_3
REMARK    3  A    between atoms: O_3  and  C_4
REMARK    4  A    between atoms: C_4  and  C_6
REMARK    5  A    between atoms: C_6  and  C_7
REMARK    6  A    between atoms: C_7  and  N_8
REMARK    7  A    between atoms: N_8  and  C_9
REMARK    8  A    between atoms: C_9  and  C_10
REMARK    9  A    between atoms: C_13  and  O_14
REMARK   10  A    between atoms: O_14  and  C_15
REMARK   11  A    between atoms: C_16  and  O_17
REMARK   12  A    between atoms: O_17  and  C_18
REMARK                            x       y       z     vdW  Elec       q    Type
REMARK                         _______ _______ _______ _____ _____    ______ ____
ROOT
ATOM      1  C   UNL     1       2.812   6.108  19.047  0.00  0.00    +0.000 C 
ENDROOT
BRANCH   1   2
ATOM      2  C   UNL     1       4.029   5.898  18.188  0.00  0.00    +0.000 A 
ATOM      3  C   UNL     1       3.991   6.161  16.816  0.00  0.00    +0.000 A 
ATOM      4  C   UNL     1       5.135   5.990  16.034  0.00  0.00    +0.000 A 
ATOM      5  C   UNL     1       6.340   5.557  16.603  0.00  0.00    +0.000 A 
ATOM      6  C   UNL     1       6.391   5.278  17.995  0.00  0.00    +0.000 A 
ATOM      7  C   UNL     1       5.225   5.457  18.771  0.00  0.00    +0.000 A 
BRANCH   5   8
ATOM      8  O   UNL     1       7.405   5.439  15.761  0.00  0.00    +0.000 OA
ATOM      9  C   UNL     1       7.399   5.033  14.444  0.00  0.00    +0.000 C 
ENDBRANCH   5   8
BRANCH   6  10
ATOM     10  O   UNL     1       7.550   4.853  18.563  0.00  0.00    +0.000 OA
ATOM     11  C   UNL     1       8.185   5.426  19.646  0.00  0.00    +0.000 C 
ENDBRANCH   6  10
ENDBRANCH   1   2
BRANCH   1  12
ATOM     12  N   UNL     1       3.010   5.531  20.383  0.00  0.00    +0.000 NA
ATOM     13  H   UNL     1       3.521   4.622  20.283  0.00  0.00    +0.000 HD
BRANCH  12  14
ATOM     14  C   UNL     1       1.710   5.289  21.018  0.00  0.00    +0.000 C 
BRANCH  14  15
ATOM     15  C   UNL     1       1.138   3.929  20.599  0.00  0.00    +0.000 C 
BRANCH  15  16
ATOM     16  C   UNL     1       2.184   2.861  20.758  0.00  0.00    +0.000 C 
ATOM     17  O   UNL     1       2.744   2.722  21.837  0.00  0.00    +0.000 OA
BRANCH  16  18
ATOM     18  O   UNL     1       2.463   2.030  19.718  0.00  0.00    +0.000 OA
BRANCH  18  20
ATOM     19  C   UNL     1       3.617   2.295  17.621  0.00  0.00    +0.000 C 
ATOM     20  C   UNL     1       3.698   1.933  19.102  0.00  0.00    +0.000 C 
ENDBRANCH  18  20
ENDBRANCH  16  18
ENDBRANCH  15  16
ENDBRANCH  14  15
ENDBRANCH  12  14
ENDBRANCH   1  12
TORSDOF 9
ENDMDL
MODEL 8
REMARK VINA RESULT:      -5.5      1.211      2.502
REMARK  Name = 
REMARK  12 active torsions:
REMARK  status: ('A' for Active; 'I' for Inactive)
REMARK    1  A    between atoms: C_1  and  C_2
REMARK    2  A    between atoms: C_2  and  O_3
REMARK    3  A    between atoms: O_3  and  C_4
REMARK    4  A    between atoms: C_4  and  C_6
REMARK    5  A    between atoms: C_6  and  C_7
REMARK    6  A    between atoms: C_7  and  N_8
REMARK    7  A    between atoms: N_8  and  C_9
REMARK    8  A    between atoms: C_9  and  C_10
REMARK    9  A    between atoms: C_13  and  O_14
REMARK   10  A    between atoms: O_14  and  C_15
REMARK   11  A    between atoms: C_16  and  O_17
REMARK   12  A    between atoms: O_17  and  C_18
REMARK                            x       y       z     vdW  Elec       q    Type
REMARK                         _______ _______ _______ _____ _____    ______ ____
ROOT
ATOM      1  C   UNL     1       4.813   3.402  19.714  0.00  0.00    +0.000 C 
ENDROOT
BRANCH   1   2
ATOM      2  C   UNL     1       5.251   3.962  18.389  0.00  0.00    +0.000 A 
ATOM      3  C   UNL     1       4.625   3.568  17.202  0.00  0.00    +0.000 A 
ATOM      4  C   UNL     1       5.020   4.116  15.981  0.00  0.00    +0.000 A 
ATOM      5  C   UNL     1       6.046   5.069  15.916  0.00  0.00    +0.000 A 
ATOM      6  C   UNL     1       6.697   5.472  17.113  0.00  0.00    +0.000 A 
ATOM      7  C   UNL     1       6.284   4.907  18.339  0.00  0.00    +0.000 A 
BRANCH   5   8
ATOM      8  O   UNL     1       6.347   5.558  14.681  0.00  0.00    +0.000 OA
ATOM      9  C   UNL     1       7.118   4.966  13.703  0.00  0.00    +0.000 C 
ENDBRANCH   5   8
BRANCH   6  10
ATOM     10  O   UNL     1       7.697   6.391  17.068  0.00  0.00    +0.000 OA
ATOM     11  C   UNL     1       7.625   7.696  17.511  0.00  0.00    +0.000 C 
ENDBRANCH   6  10
ENDBRANCH   1   2
BRANCH   1  12
ATOM     12  N   UNL     1       3.409   2.975  19.662  0.00  0.00    +0.000 NA
ATOM     13  H   UNL     1       2.823   3.787  19.352  0.00  0.00    +0.000 HD
BRANCH  12  14
ATOM     14  C   UNL     1       2.970   2.544  20.995  0.00  0.00    +0.000 C 
BRANCH  14  15
ATOM     15  C   UNL     1       2.031   3.577  21.626  0.00  0.00    +0.000 C 
BRANCH  15  16
ATOM     16  C   UNL     1       1.330   4.360  20.550  0.00  0.00    +0.000 C 
ATOM     17  O   UNL     1       0.553   3.787  19.799  0.00  0.00    +0.000 OA
BRANCH  16  18
ATOM     18  O   UNL     1       1.528   5.702  20.454  0.00  0.00    +0.000 OA
BRANCH  18  20
ATOM     19  C   UNL     1       2.423   6.375  18.322  0.00  0.00    +0.000 C 
ATOM     20  C   UNL     1       2.616   6.291  19.834  0.00  0.00    +0.000 C 
ENDBRANCH  18  20
ENDBRANCH  16  18
ENDBRANCH  15  16
ENDBRANCH  14  15
ENDBRANCH  12  14
ENDBRANCH   1  12
TORSDOF 9
ENDMDL
MODEL 9
REMARK VINA RESULT:      -5.5      1.623      3.009
REMARK  Name = 
REMARK  12 active torsions:
REMARK  status: ('A' for Active; 'I' for Inactive)
REMARK    1  A    between atoms: C_1  and  C_2
REMARK    2  A    between atoms: C_2  and  O_3
REMARK    3  A    between atoms: O_3  and  C_4
REMARK    4  A    between atoms: C_4  and  C_6
REMARK    5  A    between atoms: C_6  and  C_7
REMARK    6  A    between atoms: C_7  and  N_8
REMARK    7  A    between atoms: N_8  and  C_9
REMARK    8  A    between atoms: C_9  and  C_10
REMARK    9  A    between atoms: C_13  and  O_14
REMARK   10  A    between atoms: O_14  and  C_15
REMARK   11  A    between atoms: C_16  and  O_17
REMARK   12  A    between atoms: O_17  and  C_18
REMARK                            x       y       z     vdW  Elec       q    Type
REMARK                         _______ _______ _______ _____ _____    ______ ____
ROOT
ATOM      1  C   UNL     1       4.794   4.216  19.280  0.00  0.00    +0.000 C 
ENDROOT
BRANCH   1   2
ATOM      2  C   UNL     1       5.475   4.561  17.985  0.00  0.00    +0.000 A 
ATOM      3  C   UNL     1       5.257   3.797  16.835  0.00  0.00    +0.000 A 
ATOM      4  C   UNL     1       5.872   4.145  15.631  0.00  0.00    +0.000 A 
ATOM      5  C   UNL     1       6.716   5.261  15.547  0.00  0.00    +0.000 A 
ATOM      6  C   UNL     1       6.954   6.041  16.711  0.00  0.00    +0.000 A 
ATOM      7  C   UNL     1       6.323   5.675  17.919  0.00  0.00    +0.000 A 
BRANCH   5   8
ATOM      8  O   UNL     1       7.254   5.529  14.324  0.00  0.00    +0.000 OA
ATOM      9  C   UNL     1       7.241   4.728  13.202  0.00  0.00    +0.000 C 
ENDBRANCH   5   8
BRANCH   6  10
ATOM     10  O   UNL     1       7.772   7.124  16.649  0.00  0.00    +0.000 OA
ATOM     11  C   UNL     1       7.817   8.164  17.554  0.00  0.00    +0.000 C 
ENDBRANCH   6  10
ENDBRANCH   1   2
BRANCH   1  12
ATOM     12  N   UNL     1       5.168   2.866  19.724  0.00  0.00    +0.000 NA
ATOM     13  H   UNL     1       5.727   2.407  18.965  0.00  0.00    +0.000 HD
BRANCH  12  14
ATOM     14  C   UNL     1       3.960   2.075  19.982  0.00  0.00    +0.000 C 
BRANCH  14  15
ATOM     15  C   UNL     1       3.154   2.663  21.145  0.00  0.00    +0.000 C 
BRANCH  15  16
ATOM     16  C   UNL     1       1.761   2.996  20.689  0.00  0.00    +0.000 C 
ATOM     17  O   UNL     1       1.217   4.011  21.105  0.00  0.00    +0.000 OA
BRANCH  16  18
ATOM     18  O   UNL     1       1.138   2.195  19.783  0.00  0.00    +0.000 OA
BRANCH  18  20
ATOM     19  C   UNL     1       1.460   3.689  17.922  0.00  0.00    +0.000 C 
ATOM     20  C   UNL     1       0.581   2.639  18.597  0.00  0.00    +0.000 C 
ENDBRANCH  18  20
ENDBRANCH  16  18
ENDBRANCH  15  16
ENDBRANCH  14  15
ENDBRANCH  12  14
ENDBRANCH   1  12
TORSDOF 9
ENDMDL
