MODEL 1
REMARK VINA RESULT:      -7.4      0.000      0.000
REMARK  Name = 
REMARK  6 active torsions:
REMARK  status: ('A' for Active; 'I' for Inactive)
REMARK    1  A    between atoms: C_1  and  O_2
REMARK    2  A    between atoms: O_2  and  C_3
REMARK    3  A    between atoms: C_6  and  C_7
REMARK    4  A    between atoms: C_9  and  S_10
REMARK    5  A    between atoms: S_10  and  N_13
REMARK    6  A    between atoms: C_18  and  C_19
REMARK                            x       y       z     vdW  Elec       q    Type
REMARK                         _______ _______ _______ _____ _____    ______ ____
ROOT
ATOM      1  S   UNL     1       4.620   4.558  18.273  0.00  0.00    +0.000 S 
ATOM      2  O   UNL     1       5.577   3.943  19.173  0.00  0.00    +0.000 OA
ATOM      3  O   UNL     1       3.974   3.746  17.261  0.00  0.00    +0.000 OA
ENDROOT
BRANCH   1  10
ATOM      4  C   UNL     1       2.543   4.379  20.258  0.00  0.00    +0.000 A 
ATOM      5  C   UNL     1       1.512   5.064  20.943  0.00  0.00    +0.000 A 
ATOM      6  C   UNL     1       1.232   6.417  20.730  0.00  0.00    +0.000 A 
ATOM      7  C   UNL     1       2.006   7.146  19.817  0.00  0.00    +0.000 A 
ATOM      8  C   UNL     1       1.821   8.622  19.619  0.00  0.00    +0.000 C 
ATOM      9  C   UNL     1       2.980   6.455  19.106  0.00  0.00    +0.000 A 
ATOM     10  C   UNL     1       3.278   5.075  19.309  0.00  0.00    +0.000 A 
BRANCH   4  12
ATOM     11  C   UNL     1       1.819   2.556  21.552  0.00  0.00    +0.000 C 
ATOM     12  O   UNL     1       2.840   3.145  20.758  0.00  0.00    +0.000 OA
ENDBRANCH   4  12
ENDBRANCH   1  10
BRANCH   1  13
ATOM     13  N   UNL     1       5.531   5.779  17.408  0.00  0.00    +0.000 NA
ATOM     14  C   UNL     1       5.645   5.547  15.931  0.00  0.00    +0.000 C 
ATOM     15  C   UNL     1       6.641   4.433  15.565  0.00  0.00    +0.000 C 
ATOM     16  O   UNL     1       7.899   4.484  16.250  0.00  0.00    +0.000 OA
ATOM     17  C   UNL     1       7.765   4.628  17.673  0.00  0.00    +0.000 C 
ATOM     18  C   UNL     1       6.968   5.912  18.001  0.00  0.00    +0.000 C 
BRANCH  18  19
ATOM     19  C   UNL     1       7.758   7.115  17.454  0.00  0.00    +0.000 C 
ATOM     20  C   UNL     1       8.390   8.095  18.440  0.00  0.00    +0.000 C 
ATOM     21  C   UNL     1       7.288   8.551  17.539  0.00  0.00    +0.000 C 
ENDBRANCH  18  19
ENDBRANCH   1  13
TORSDOF 4
ENDMDL
MODEL 2
REMARK VINA RESULT:      -7.2      1.015      2.500
REMARK  Name = 
REMARK  6 active torsions:
REMARK  status: ('A' for Active; 'I' for Inactive)
REMARK    1  A    between atoms: C_1  and  O_2
REMARK    2  A    between atoms: O_2  and  C_3
REMARK    3  A    between atoms: C_6  and  C_7
REMARK    4  A    between atoms: C_9  and  S_10
REMARK    5  A    between atoms: S_10  and  N_13
REMARK    6  A    between atoms: C_18  and  C_19
REMARK                            x       y       z     vdW  Elec       q    Type
REMARK                         _______ _______ _______ _____ _____    ______ ____
ROOT
ATOM      1  S   UNL     1       4.451   4.609  17.805  0.00  0.00    +0.000 S 
ATOM      2  O   UNL     1       5.353   3.742  18.539  0.00  0.00    +0.000 OA
ATOM      3  O   UNL     1       3.659   4.058  16.724  0.00  0.00    +0.000 OA
ENDROOT
BRANCH   1  10
ATOM      4  C   UNL     1       2.674   6.363  19.238  0.00  0.00    +0.000 A 
ATOM      5  C   UNL     1       1.709   6.471  20.267  0.00  0.00    +0.000 A 
ATOM      6  C   UNL     1       1.275   5.372  21.015  0.00  0.00    +0.000 A 
ATOM      7  C   UNL     1       1.792   4.100  20.736  0.00  0.00    +0.000 A 
ATOM      8  C   UNL     1       1.294   2.868  21.434  0.00  0.00    +0.000 C 
ATOM      9  C   UNL     1       2.781   4.009  19.762  0.00  0.00    +0.000 A 
ATOM     10  C   UNL     1       3.236   5.119  18.991  0.00  0.00    +0.000 A 
BRANCH   4  12
ATOM     11  C   UNL     1       1.910   8.535  18.768  0.00  0.00    +0.000 C 
ATOM     12  O   UNL     1       2.798   7.472  18.453  0.00  0.00    +0.000 OA
ENDBRANCH   4  12
ENDBRANCH   1  10
BRANCH   1  13
ATOM     13  N   UNL     1       5.481   5.827  17.083  0.00  0.00    +0.000 NA
ATOM     14  C   UNL     1       5.720   5.654  15.613  0.00  0.00    +0.000 C 
ATOM     15  C   UNL     1       6.705   4.518  15.286  0.00  0.00    +0.000 C 
ATOM     16  O   UNL     1       7.896   4.488  16.083  0.00  0.00    +0.000 OA
ATOM     17  C   UNL     1       7.638   4.578  17.494  0.00  0.00    +0.000 C 
ATOM     18  C   UNL     1       6.862   5.877  17.808  0.00  0.00    +0.000 C 
BRANCH  18  19
ATOM     19  C   UNL     1       7.742   7.069  17.389  0.00  0.00    +0.000 C 
ATOM     20  C   UNL     1       8.349   7.957  18.473  0.00  0.00    +0.000 C 
ATOM     21  C   UNL     1       7.333   8.520  17.532  0.00  0.00    +0.000 C 
ENDBRANCH  18  19
ENDBRANCH   1  13
TORSDOF 4
ENDMDL
MODEL 3
REMARK VINA RESULT:      -7.0      1.360      2.573
REMARK  Name = 
REMARK  6 active torsions:
REMARK  status: ('A' for Active; 'I' for Inactive)
REMARK    1  A    between atoms: C_1  and  O_2
REMARK    2  A    between atoms: O_2  and  C_3
REMARK    3  A    between atoms: C_6  and  C_7
REMARK    4  A    between atoms: C_9  and  S_10
REMARK    5  A    between atoms: S_10  and  N_13
REMARK    6  A    between atoms: C_18  and  C_19
REMARK                            x       y       z     vdW  Elec       q    Type
REMARK                         _______ _______ _______ _____ _____    ______ ____
ROOT
ATOM      1  S   UNL     1       4.825   4.370  18.157  0.00  0.00    +0.000 S 
ATOM      2  O   UNL     1       5.790   3.936  19.150  0.00  0.00    +0.000 OA
ATOM      3  O   UNL     1       4.521   3.502  17.037  0.00  0.00    +0.000 OA
ENDROOT
BRANCH   1  10
ATOM      4  C   UNL     1       2.699   5.538  19.706  0.00  0.00    +0.000 A 
ATOM      5  C   UNL     1       1.440   5.330  20.315  0.00  0.00    +0.000 A 
ATOM      6  C   UNL     1       0.749   4.116  20.228  0.00  0.00    +0.000 A 
ATOM      7  C   UNL     1       1.304   3.058  19.496  0.00  0.00    +0.000 A 
ATOM      8  C   UNL     1       0.568   1.768  19.282  0.00  0.00    +0.000 C 
ATOM      9  C   UNL     1       2.567   3.250  18.947  0.00  0.00    +0.000 A 
ATOM     10  C   UNL     1       3.286   4.479  19.027  0.00  0.00    +0.000 A 
BRANCH   4  12
ATOM     11  C   UNL     1       2.460   7.657  18.718  0.00  0.00    +0.000 C 
ATOM     12  O   UNL     1       3.112   6.838  19.679  0.00  0.00    +0.000 OA
ENDBRANCH   4  12
ENDBRANCH   1  10
BRANCH   1  13
ATOM     13  N   UNL     1       5.508   5.829  17.470  0.00  0.00    +0.000 NA
ATOM     14  C   UNL     1       5.175   6.057  16.025  0.00  0.00    +0.000 C 
ATOM     15  C   UNL     1       5.965   5.146  15.069  0.00  0.00    +0.000 C 
ATOM     16  O   UNL     1       7.368   5.040  15.340  0.00  0.00    +0.000 OA
ATOM     17  C   UNL     1       7.660   4.745  16.716  0.00  0.00    +0.000 C 
ATOM     18  C   UNL     1       7.059   5.836  17.630  0.00  0.00    +0.000 C 
BRANCH  18  19
ATOM     19  C   UNL     1       7.717   7.179  17.261  0.00  0.00    +0.000 C 
ATOM     20  C   UNL     1       8.337   8.028  18.369  0.00  0.00    +0.000 C 
ATOM     21  C   UNL     1       7.144   8.534  17.622  0.00  0.00    +0.000 C 
ENDBRANCH  18  19
ENDBRANCH   1  13
TORSDOF 4
ENDMDL
MODEL 4
REMARK VINA RESULT:      -6.9      1.929      5.822
REMARK  Name = 
REMARK  6 active torsions:
REMARK  status: ('A' for Active; 'I' for Inactive)
REMARK    1  A    between atoms: C_1  and  O_2
REMARK    2  A    between atoms: O_2  and  C_3
REMARK    3  A    between atoms: C_6  and  C_7
REMARK    4  A    between atoms: C_9  and  S_10
REMARK    5  A    between atoms: S_10  and  N_13
REMARK    6  A    between atoms: C_18  and  C_19
REMARK                            x       y       z     vdW  Elec       q    Type
REMARK                         _______ _______ _______ _____ _____    ______ ____
ROOT
ATOM      1  S   UNL     1       4.348   3.002  18.876  0.00  0.00    +0.000 S 
ATOM      2  O   UNL     1       3.723   2.084  17.941  0.00  0.00    +0.000 OA
ATOM      3  O   UNL     1       5.210   2.478  19.916  0.00  0.00    +0.000 OA
ENDROOT
BRANCH   1  10
ATOM      4  C   UNL     1       6.401   4.922  18.256  0.00  0.00    +0.000 A 
ATOM      5  C   UNL     1       7.135   5.566  17.233  0.00  0.00    +0.000 A 
ATOM      6  C   UNL     1       6.959   5.273  15.877  0.00  0.00    +0.000 A 
ATOM      7  C   UNL     1       6.034   4.292  15.498  0.00  0.00    +0.000 A 
ATOM      8  C   UNL     1       5.872   3.862  14.069  0.00  0.00    +0.000 C 
ATOM      9  C   UNL     1       5.275   3.702  16.503  0.00  0.00    +0.000 A 
ATOM     10  C   UNL     1       5.441   3.990  17.890  0.00  0.00    +0.000 A 
BRANCH   4  12
ATOM     11  C   UNL     1       8.116   5.816  19.591  0.00  0.00    +0.000 C 
ATOM     12  O   UNL     1       6.866   5.143  19.519  0.00  0.00    +0.000 OA
ENDBRANCH   4  12
ENDBRANCH   1  10
BRANCH   1  13
ATOM     13  N   UNL     1       3.016   3.788  19.696  0.00  0.00    +0.000 NA
ATOM     14  C   UNL     1       1.848   2.895  19.993  0.00  0.00    +0.000 C 
ATOM     15  C   UNL     1       0.996   2.576  18.753  0.00  0.00    +0.000 C 
ATOM     16  O   UNL     1       0.681   3.697  17.918  0.00  0.00    +0.000 OA
ATOM     17  C   UNL     1       1.828   4.495  17.582  0.00  0.00    +0.000 C 
ATOM     18  C   UNL     1       2.509   5.010  18.871  0.00  0.00    +0.000 C 
BRANCH  18  19
ATOM     19  C   UNL     1       1.495   5.893  19.623  0.00  0.00    +0.000 C 
ATOM     20  C   UNL     1       1.907   7.303  20.038  0.00  0.00    +0.000 C 
ATOM     21  C   UNL     1       1.618   6.274  21.084  0.00  0.00    +0.000 C 
ENDBRANCH  18  19
ENDBRANCH   1  13
TORSDOF 4
ENDMDL
MODEL 5
REMARK VINA RESULT:      -6.6      2.528      6.159
REMARK  Name = 
REMARK  6 active torsions:
REMARK  status: ('A' for Active; 'I' for Inactive)
REMARK    1  A    between atoms: C_1  and  O_2
REMARK    2  A    between atoms: O_2  and  C_3
REMARK    3  A    between atoms: C_6  and  C_7
REMARK    4  A    between atoms: C_9  and  S_10
REMARK    5  A    between atoms: S_10  and  N_13
REMARK    6  A    between atoms: C_18  and  C_19
REMARK                            x       y       z     vdW  Elec       q    Type
REMARK                         _______ _______ _______ _____ _____    ______ ____
ROOT
ATOM      1  S   UNL     1       3.987   5.071  18.465  0.00  0.00    +0.000 S 
ATOM      2  O   UNL     1       4.393   6.136  19.362  0.00  0.00    +0.000 OA
ATOM      3  O   UNL     1       2.856   5.278  17.582  0.00  0.00    +0.000 OA
ENDROOT
BRANCH   1  10
ATOM      4  C   UNL     1       6.717   4.820  17.586  0.00  0.00    +0.000 A 
ATOM      5  C   UNL     1       7.582   4.637  16.483  0.00  0.00    +0.000 A 
ATOM      6  C   UNL     1       7.114   4.460  15.176  0.00  0.00    +0.000 A 
ATOM      7  C   UNL     1       5.735   4.441  14.934  0.00  0.00    +0.000 A 
ATOM      8  C   UNL     1       5.170   4.155  13.573  0.00  0.00    +0.000 C 
ATOM      9  C   UNL     1       4.891   4.678  16.014  0.00  0.00    +0.000 A 
ATOM     10  C   UNL     1       5.350   4.862  17.351  0.00  0.00    +0.000 A 
BRANCH   4  12
ATOM     11  C   UNL     1       7.920   5.932  19.271  0.00  0.00    +0.000 C 
ATOM     12  O   UNL     1       7.320   4.730  18.806  0.00  0.00    +0.000 OA
ENDBRANCH   4  12
ENDBRANCH   1  10
BRANCH   1  13
ATOM     13  N   UNL     1       3.548   3.739  19.514  0.00  0.00    +0.000 NA
ATOM     14  C   UNL     1       4.228   2.440  19.195  0.00  0.00    +0.000 C 
ATOM     15  C   UNL     1       3.658   1.745  17.947  0.00  0.00    +0.000 C 
ATOM     16  O   UNL     1       2.228   1.694  17.870  0.00  0.00    +0.000 OA
ATOM     17  C   UNL     1       1.601   2.966  18.102  0.00  0.00    +0.000 C 
ATOM     18  C   UNL     1       2.005   3.509  19.491  0.00  0.00    +0.000 C 
BRANCH  18  19
ATOM     19  C   UNL     1       1.509   2.512  20.554  0.00  0.00    +0.000 C 
ATOM     20  C   UNL     1       1.140   3.032  21.942  0.00  0.00    +0.000 C 
ATOM     21  C   UNL     1       2.303   2.107  21.779  0.00  0.00    +0.000 C 
ENDBRANCH  18  19
ENDBRANCH   1  13
TORSDOF 4
ENDMDL
MODEL 6
REMARK VINA RESULT:      -6.6      1.650      5.930
REMARK  Name = 
REMARK  6 active torsions:
REMARK  status: ('A' for Active; 'I' for Inactive)
REMARK    1  A    between atoms: C_1  and  O_2
REMARK    2  A    between atoms: O_2  and  C_3
REMARK    3  A    between atoms: C_6  and  C_7
REMARK    4  A    between atoms: C_9  and  S_10
REMARK    5  A    between atoms: S_10  and  N_13
REMARK    6  A    between atoms: C_18  and  C_19
REMARK                            x       y       z     vdW  Elec       q    Type
REMARK                         _______ _______ _______ _____ _____    ______ ____
ROOT
ATOM      1  S   UNL     1       4.675   3.773  18.279  0.00  0.00    +0.000 S 
ATOM      2  O   UNL     1       3.777   2.794  17.696  0.00  0.00    +0.000 OA
ATOM      3  O   UNL     1       5.589   3.363  19.326  0.00  0.00    +0.000 OA
ENDROOT
BRANCH   1  10
ATOM      4  C   UNL     1       7.016   4.824  16.975  0.00  0.00    +0.000 A 
ATOM      5  C   UNL     1       7.644   5.107  15.739  0.00  0.00    +0.000 A 
ATOM      6  C   UNL     1       7.058   4.803  14.507  0.00  0.00    +0.000 A 
ATOM      7  C   UNL     1       5.805   4.177  14.474  0.00  0.00    +0.000 A 
ATOM      8  C   UNL     1       5.170   3.735  13.188  0.00  0.00    +0.000 C 
ATOM      9  C   UNL     1       5.168   3.953  15.690  0.00  0.00    +0.000 A 
ATOM     10  C   UNL     1       5.750   4.257  16.956  0.00  0.00    +0.000 A 
BRANCH   4  12
ATOM     11  C   UNL     1       7.747   6.214  18.723  0.00  0.00    +0.000 C 
ATOM     12  O   UNL     1       7.822   4.955  18.068  0.00  0.00    +0.000 OA
ENDBRANCH   4  12
ENDBRANCH   1  10
BRANCH   1  13
ATOM     13  N   UNL     1       3.627   4.981  18.993  0.00  0.00    +0.000 NA
ATOM     14  C   UNL     1       2.912   4.536  20.234  0.00  0.00    +0.000 C 
ATOM     15  C   UNL     1       1.743   3.577  19.952  0.00  0.00    +0.000 C 
ATOM     16  O   UNL     1       0.873   3.965  18.881  0.00  0.00    +0.000 OA
ATOM     17  C   UNL     1       1.576   4.313  17.677  0.00  0.00    +0.000 C 
ATOM     18  C   UNL     1       2.566   5.467  17.957  0.00  0.00    +0.000 C 
BRANCH  18  19
ATOM     19  C   UNL     1       1.752   6.687  18.426  0.00  0.00    +0.000 C 
ATOM     20  C   UNL     1       2.141   8.074  17.919  0.00  0.00    +0.000 C 
ATOM     21  C   UNL     1       2.276   7.747  19.372  0.00  0.00    +0.000 C 
ENDBRANCH  18  19
ENDBRANCH   1  13
TORSDOF 4
ENDMDL
MODEL 7
REMARK VINA RESULT:      -6.3      1.723      3.129
REMARK  Name = 
REMARK  6 active torsions:
REMARK  status: ('A' for Active; 'I' for Inactive)
REMARK    1  A    between atoms: C_1  and  O_2
REMARK    2  A    between atoms: O_2  and  C_3
REMARK    3  A    between atoms: C_6  and  C_7
REMARK    4  A    between atoms: C_9  and  S_10
REMARK    5  A    between atoms: S_10  and  N_13
REMARK    6  A    between atoms: C_18  and  C_19
REMARK                            x       y       z     vdW  Elec       q    Type
REMARK                         _______ _______ _______ _____ _____    ______ ____
ROOT
ATOM      1  S   UNL     1       5.433   4.429  18.968  0.00  0.00    +0.000 S 
ATOM      2  O   UNL     1       5.746   5.671  19.649  0.00  0.00    +0.000 OA
ATOM      3  O   UNL     1       5.870   3.173  19.545  0.00  0.00    +0.000 OA
ENDROOT
BRANCH   1  10
ATOM      4  C   UNL     1       2.798   3.418  18.401  0.00  0.00    +0.000 A 
ATOM      5  C   UNL     1       1.409   3.572  18.622  0.00  0.00    +0.000 A 
ATOM      6  C   UNL     1       0.882   4.560  19.460  0.00  0.00    +0.000 A 
ATOM      7  C   UNL     1       1.750   5.432  20.130  0.00  0.00    +0.000 A 
ATOM      8  C   UNL     1       1.253   6.447  21.117  0.00  0.00    +0.000 C 
ATOM      9  C   UNL     1       3.110   5.313  19.864  0.00  0.00    +0.000 A 
ATOM     10  C   UNL     1       3.665   4.312  19.013  0.00  0.00    +0.000 A 
BRANCH   4  12
ATOM     11  C   UNL     1       3.518   1.192  18.619  0.00  0.00    +0.000 C 
ATOM     12  O   UNL     1       3.151   2.265  17.763  0.00  0.00    +0.000 OA
ENDBRANCH   4  12
ENDBRANCH   1  10
BRANCH   1  13
ATOM     13  N   UNL     1       6.227   4.553  17.413  0.00  0.00    +0.000 NA
ATOM     14  C   UNL     1       7.527   5.301  17.431  0.00  0.00    +0.000 C 
ATOM     15  C   UNL     1       7.350   6.825  17.548  0.00  0.00    +0.000 C 
ATOM     16  O   UNL     1       6.354   7.396  16.689  0.00  0.00    +0.000 OA
ATOM     17  C   UNL     1       5.093   6.710  16.747  0.00  0.00    +0.000 C 
ATOM     18  C   UNL     1       5.283   5.223  16.368  0.00  0.00    +0.000 C 
BRANCH  18  19
ATOM     19  C   UNL     1       5.812   5.165  14.923  0.00  0.00    +0.000 C 
ATOM     20  C   UNL     1       5.180   4.181  13.942  0.00  0.00    +0.000 C 
ATOM     21  C   UNL     1       6.607   4.008  14.353  0.00  0.00    +0.000 C 
ENDBRANCH  18  19
ENDBRANCH   1  13
TORSDOF 4
ENDMDL
MODEL 8
REMARK VINA RESULT:      -6.3      1.847      6.137
REMARK  Name = 
REMARK  6 active torsions:
REMARK  status: ('A' for Active; 'I' for Inactive)
REMARK    1  A    between atoms: C_1  and  O_2
REMARK    2  A    between atoms: O_2  and  C_3
REMARK    3  A    between atoms: C_6  and  C_7
REMARK    4  A    between atoms: C_9  and  S_10
REMARK    5  A    between atoms: S_10  and  N_13
REMARK    6  A    between atoms: C_18  and  C_19
REMARK                            x       y       z     vdW  Elec       q    Type
REMARK                         _______ _______ _______ _____ _____    ______ ____
ROOT
ATOM      1  S   UNL     1       3.661   3.739  18.157  0.00  0.00    +0.000 S 
ATOM      2  O   UNL     1       2.552   4.075  17.285  0.00  0.00    +0.000 OA
ATOM      3  O   UNL     1       3.897   2.353  18.505  0.00  0.00    +0.000 OA
ENDROOT
BRANCH   1  10
ATOM      4  C   UNL     1       6.337   4.688  17.680  0.00  0.00    +0.000 A 
ATOM      5  C   UNL     1       7.329   4.963  16.709  0.00  0.00    +0.000 A 
ATOM      6  C   UNL     1       7.141   4.718  15.345  0.00  0.00    +0.000 A 
ATOM      7  C   UNL     1       5.933   4.162  14.905  0.00  0.00    +0.000 A 
ATOM      8  C   UNL     1       5.708   3.783  13.470  0.00  0.00    +0.000 C 
ATOM      9  C   UNL     1       4.941   3.947  15.855  0.00  0.00    +0.000 A 
ATOM     10  C   UNL     1       5.115   4.192  17.249  0.00  0.00    +0.000 A 
BRANCH   4  12
ATOM     11  C   UNL     1       7.763   5.734  19.227  0.00  0.00    +0.000 C 
ATOM     12  O   UNL     1       6.768   4.752  18.972  0.00  0.00    +0.000 OA
ENDBRANCH   4  12
ENDBRANCH   1  10
BRANCH   1  13
ATOM     13  N   UNL     1       3.320   4.568  19.662  0.00  0.00    +0.000 NA
ATOM     14  C   UNL     1       3.552   3.747  20.895  0.00  0.00    +0.000 C 
ATOM     15  C   UNL     1       2.459   2.692  21.139  0.00  0.00    +0.000 C 
ATOM     16  O   UNL     1       1.112   3.156  20.987  0.00  0.00    +0.000 OA
ATOM     17  C   UNL     1       0.893   3.874  19.761  0.00  0.00    +0.000 C 
ATOM     18  C   UNL     1       1.849   5.086  19.680  0.00  0.00    +0.000 C 
BRANCH  18  19
ATOM     19  C   UNL     1       1.533   6.020  20.863  0.00  0.00    +0.000 C 
ATOM     20  C   UNL     1       0.535   7.157  20.661  0.00  0.00    +0.000 C 
ATOM     21  C   UNL     1       1.970   7.467  20.945  0.00  0.00    +0.000 C 
ENDBRANCH  18  19
ENDBRANCH   1  13
TORSDOF 4
ENDMDL
MODEL 9
REMARK VINA RESULT:      -6.1      2.108      3.522
REMARK  Name = 
REMARK  6 active torsions:
REMARK  status: ('A' for Active; 'I' for Inactive)
REMARK    1  A    between atoms: C_1  and  O_2
REMARK    2  A    between atoms: O_2  and  C_3
REMARK    3  A    between atoms: C_6  and  C_7
REMARK    4  A    between atoms: C_9  and  S_10
REMARK    5  A    between atoms: S_10  and  N_13
REMARK    6  A    between atoms: C_18  and  C_19
REMARK                            x       y       z     vdW  Elec       q    Type
REMARK                         _______ _______ _______ _____ _____    ______ ____
ROOT
ATOM      1  S   UNL     1       4.813   6.687  16.719  0.00  0.00    +0.000 S 
ATOM      2  O   UNL     1       4.384   7.495  15.593  0.00  0.00    +0.000 OA
ATOM      3  O   UNL     1       6.061   7.002  17.384  0.00  0.00    +0.000 OA
ENDROOT
BRANCH   1  10
ATOM      4  C   UNL     1       3.274   6.229  19.108  0.00  0.00    +0.000 A 
ATOM      5  C   UNL     1       2.234   6.700  19.943  0.00  0.00    +0.000 A 
ATOM      6  C   UNL     1       1.545   7.891  19.692  0.00  0.00    +0.000 A 
ATOM      7  C   UNL     1       1.896   8.671  18.583  0.00  0.00    +0.000 A 
ATOM      8  C   UNL     1       1.263  10.005  18.316  0.00  0.00    +0.000 C 
ATOM      9  C   UNL     1       2.880   8.174  17.735  0.00  0.00    +0.000 A 
ATOM     10  C   UNL     1       3.593   6.962  17.974  0.00  0.00    +0.000 A 
BRANCH   4  12
ATOM     11  C   UNL     1       3.248   4.029  19.933  0.00  0.00    +0.000 C 
ATOM     12  O   UNL     1       3.999   5.195  19.626  0.00  0.00    +0.000 OA
ENDBRANCH   4  12
ENDBRANCH   1  10
BRANCH   1  13
ATOM     13  N   UNL     1       5.000   5.071  16.071  0.00  0.00    +0.000 NA
ATOM     14  C   UNL     1       5.652   4.094  17.003  0.00  0.00    +0.000 C 
ATOM     15  C   UNL     1       7.171   4.299  17.136  0.00  0.00    +0.000 C 
ATOM     16  O   UNL     1       7.875   4.494  15.902  0.00  0.00    +0.000 OA
ATOM     17  C   UNL     1       7.276   5.491  15.058  0.00  0.00    +0.000 C 
ATOM     18  C   UNL     1       5.813   5.105  14.740  0.00  0.00    +0.000 C 
BRANCH  18  19
ATOM     19  C   UNL     1       5.830   3.763  13.986  0.00  0.00    +0.000 C 
ATOM     20  C   UNL     1       6.481   3.697  12.606  0.00  0.00    +0.000 C 
ATOM     21  C   UNL     1       5.009   3.474  12.746  0.00  0.00    +0.000 C 
ENDBRANCH  18  19
ENDBRANCH   1  13
TORSDOF 4
ENDMDL
