MODEL 1
REMARK VINA RESULT:      -5.8      0.000      0.000
REMARK  Name = 
REMARK  3 active torsions:
REMARK  status: ('A' for Active; 'I' for Inactive)
REMARK    1  A    between atoms: C_2  and  C_4
REMARK    2  A    between atoms: C_7  and  C_8
REMARK    3  A    between atoms: C_8  and  O_10
REMARK                            x       y       z     vdW  Elec       q    Type
REMARK                         _______ _______ _______ _____ _____    ______ ____
ROOT
ATOM      1  C   UNL     1       5.728   4.563  17.525  0.00  0.00    +0.000 A 
ATOM      2  C   UNL     1       4.749   4.077  16.653  0.00  0.00    +0.000 A 
ATOM      3  C   UNL     1       3.447   3.863  17.113  0.00  0.00    +0.000 A 
ATOM      4  C   UNL     1       3.112   4.151  18.442  0.00  0.00    +0.000 A 
ATOM      5  C   UNL     1       4.092   4.641  19.316  0.00  0.00    +0.000 A 
ATOM      6  C   UNL     1       5.396   4.853  18.854  0.00  0.00    +0.000 A 
ENDROOT
BRANCH   1   8
ATOM      7  N   UNL     1       8.093   4.153  17.634  0.00  0.00    +0.000 NA
ATOM      8  C   UNL     1       7.122   4.754  17.033  0.00  0.00    +0.000 C 
ATOM      9  N   UNL     1       7.370   5.571  15.966  0.00  0.00    +0.000 N 
ATOM     10  H   UNL     1       8.977   4.355  17.163  0.00  0.00    +0.000 HD
ATOM     11  H   UNL     1       8.323   5.903  15.885  0.00  0.00    +0.000 HD
ATOM     12  H   UNL     1       6.706   6.328  15.834  0.00  0.00    +0.000 HD
ENDBRANCH   1   8
BRANCH   4  13
ATOM     13  C   UNL     1       1.722   3.864  18.887  0.00  0.00    +0.000 C 
ATOM     14  O   UNL     1       1.242   4.344  19.900  0.00  0.00    +0.000 OA
BRANCH  13  15
ATOM     15  O   UNL     1       1.051   3.008  18.088  0.00  0.00    +0.000 OA
ATOM     16  H   UNL     1       0.640   2.251  18.541  0.00  0.00    +0.000 HD
ENDBRANCH  13  15
ENDBRANCH   4  13
TORSDOF 3
ENDMDL
MODEL 2
REMARK VINA RESULT:      -5.7      4.224      5.100
REMARK  Name = 
REMARK  3 active torsions:
REMARK  status: ('A' for Active; 'I' for Inactive)
REMARK    1  A    between atoms: C_2  and  C_4
REMARK    2  A    between atoms: C_7  and  C_8
REMARK    3  A    between atoms: C_8  and  O_10
REMARK                            x       y       z     vdW  Elec       q    Type
REMARK                         _______ _______ _______ _____ _____    ______ ____
ROOT
ATOM      1  C   UNL     1       2.261   3.990  18.361  0.00  0.00    +0.000 A 
ATOM      2  C   UNL     1       3.205   3.449  17.483  0.00  0.00    +0.000 A 
ATOM      3  C   UNL     1       4.161   4.276  16.887  0.00  0.00    +0.000 A 
ATOM      4  C   UNL     1       4.190   5.645  17.179  0.00  0.00    +0.000 A 
ATOM      5  C   UNL     1       3.247   6.188  18.062  0.00  0.00    +0.000 A 
ATOM      6  C   UNL     1       2.288   5.359  18.657  0.00  0.00    +0.000 A 
ENDROOT
BRANCH   1   8
ATOM      7  N   UNL     1       0.922   1.996  18.379  0.00  0.00    +0.000 NA
ATOM      8  C   UNL     1       1.224   3.105  18.964  0.00  0.00    +0.000 C 
ATOM      9  N   UNL     1       0.590   3.474  20.116  0.00  0.00    +0.000 N 
ATOM     10  H   UNL     1       0.224   1.488  18.927  0.00  0.00    +0.000 HD
ATOM     11  H   UNL     1      -0.294   3.011  20.292  0.00  0.00    +0.000 HD
ATOM     12  H   UNL     1       0.516   4.475  20.271  0.00  0.00    +0.000 HD
ENDBRANCH   1   8
BRANCH   4  13
ATOM     13  C   UNL     1       5.202   6.484  16.485  0.00  0.00    +0.000 C 
ATOM     14  O   UNL     1       5.220   6.631  15.275  0.00  0.00    +0.000 OA
BRANCH  13  15
ATOM     15  O   UNL     1       6.113   7.047  17.308  0.00  0.00    +0.000 OA
ATOM     16  H   UNL     1       6.349   6.519  18.090  0.00  0.00    +0.000 HD
ENDBRANCH  13  15
ENDBRANCH   4  13
TORSDOF 3
ENDMDL
MODEL 3
REMARK VINA RESULT:      -5.7      4.054      4.898
REMARK  Name = 
REMARK  3 active torsions:
REMARK  status: ('A' for Active; 'I' for Inactive)
REMARK    1  A    between atoms: C_2  and  C_4
REMARK    2  A    between atoms: C_7  and  C_8
REMARK    3  A    between atoms: C_8  and  O_10
REMARK                            x       y       z     vdW  Elec       q    Type
REMARK                         _______ _______ _______ _____ _____    ______ ____
ROOT
ATOM      1  C   UNL     1       4.464   3.667  17.806  0.00  0.00    +0.000 A 
ATOM      2  C   UNL     1       4.948   4.222  16.617  0.00  0.00    +0.000 A 
ATOM      3  C   UNL     1       5.926   5.219  16.657  0.00  0.00    +0.000 A 
ATOM      4  C   UNL     1       6.438   5.656  17.885  0.00  0.00    +0.000 A 
ATOM      5  C   UNL     1       5.956   5.099  19.078  0.00  0.00    +0.000 A 
ATOM      6  C   UNL     1       4.975   4.101  19.036  0.00  0.00    +0.000 A 
ENDROOT
BRANCH   1   8
ATOM      7  N   UNL     1       2.224   2.950  17.320  0.00  0.00    +0.000 NA
ATOM      8  C   UNL     1       3.396   2.629  17.753  0.00  0.00    +0.000 C 
ATOM      9  N   UNL     1       3.653   1.355  18.175  0.00  0.00    +0.000 N 
ATOM     10  H   UNL     1       1.615   2.128  17.312  0.00  0.00    +0.000 HD
ATOM     11  H   UNL     1       2.837   0.803  18.410  0.00  0.00    +0.000 HD
ATOM     12  H   UNL     1       4.371   1.269  18.887  0.00  0.00    +0.000 HD
ENDBRANCH   1   8
BRANCH   4  13
ATOM     13  C   UNL     1       7.446   6.749  17.870  0.00  0.00    +0.000 C 
ATOM     14  O   UNL     1       7.553   7.536  16.945  0.00  0.00    +0.000 OA
BRANCH  13  15
ATOM     15  O   UNL     1       8.247   6.777  18.957  0.00  0.00    +0.000 OA
ATOM     16  H   UNL     1       7.986   7.410  19.650  0.00  0.00    +0.000 HD
ENDBRANCH  13  15
ENDBRANCH   4  13
TORSDOF 3
ENDMDL
MODEL 4
REMARK VINA RESULT:      -5.6      4.179      5.090
REMARK  Name = 
REMARK  3 active torsions:
REMARK  status: ('A' for Active; 'I' for Inactive)
REMARK    1  A    between atoms: C_2  and  C_4
REMARK    2  A    between atoms: C_7  and  C_8
REMARK    3  A    between atoms: C_8  and  O_10
REMARK                            x       y       z     vdW  Elec       q    Type
REMARK                         _______ _______ _______ _____ _____    ______ ____
ROOT
ATOM      1  C   UNL     1       2.349   3.886  18.357  0.00  0.00    +0.000 A 
ATOM      2  C   UNL     1       2.319   5.260  18.615  0.00  0.00    +0.000 A 
ATOM      3  C   UNL     1       3.264   6.104  18.025  0.00  0.00    +0.000 A 
ATOM      4  C   UNL     1       4.233   5.582  17.159  0.00  0.00    +0.000 A 
ATOM      5  C   UNL     1       4.262   4.205  16.897  0.00  0.00    +0.000 A 
ATOM      6  C   UNL     1       3.316   3.361  17.491  0.00  0.00    +0.000 A 
ENDROOT
BRANCH   1   8
ATOM      7  N   UNL     1       1.197   1.790  18.578  0.00  0.00    +0.000 NA
ATOM      8  C   UNL     1       1.359   2.991  19.020  0.00  0.00    +0.000 C 
ATOM      9  N   UNL     1       0.620   3.445  20.076  0.00  0.00    +0.000 N 
ATOM     10  H   UNL     1       0.514   1.293  19.153  0.00  0.00    +0.000 HD
ATOM     11  H   UNL     1      -0.228   2.924  20.267  0.00  0.00    +0.000 HD
ATOM     12  H   UNL     1       0.446   4.445  20.087  0.00  0.00    +0.000 HD
ENDBRANCH   1   8
BRANCH   4  13
ATOM     13  C   UNL     1       5.238   6.519  16.592  0.00  0.00    +0.000 C 
ATOM     14  O   UNL     1       6.037   7.127  17.284  0.00  0.00    +0.000 OA
BRANCH  13  15
ATOM     15  O   UNL     1       5.171   6.657  15.251  0.00  0.00    +0.000 OA
ATOM     16  H   UNL     1       4.966   7.554  14.934  0.00  0.00    +0.000 HD
ENDBRANCH  13  15
ENDBRANCH   4  13
TORSDOF 3
ENDMDL
MODEL 5
REMARK VINA RESULT:      -5.6      1.897      2.469
REMARK  Name = 
REMARK  3 active torsions:
REMARK  status: ('A' for Active; 'I' for Inactive)
REMARK    1  A    between atoms: C_2  and  C_4
REMARK    2  A    between atoms: C_7  and  C_8
REMARK    3  A    between atoms: C_8  and  O_10
REMARK                            x       y       z     vdW  Elec       q    Type
REMARK                         _______ _______ _______ _____ _____    ______ ____
ROOT
ATOM      1  C   UNL     1       5.566   4.817  15.713  0.00  0.00    +0.000 A 
ATOM      2  C   UNL     1       4.978   3.710  16.333  0.00  0.00    +0.000 A 
ATOM      3  C   UNL     1       4.091   3.892  17.397  0.00  0.00    +0.000 A 
ATOM      4  C   UNL     1       3.773   5.183  17.836  0.00  0.00    +0.000 A 
ATOM      5  C   UNL     1       4.359   6.293  17.214  0.00  0.00    +0.000 A 
ATOM      6  C   UNL     1       5.248   6.109  16.149  0.00  0.00    +0.000 A 
ENDROOT
BRANCH   1   8
ATOM      7  N   UNL     1       7.554   5.396  14.496  0.00  0.00    +0.000 NA
ATOM      8  C   UNL     1       6.537   4.609  14.602  0.00  0.00    +0.000 C 
ATOM      9  N   UNL     1       6.342   3.605  13.696  0.00  0.00    +0.000 N 
ATOM     10  H   UNL     1       8.142   5.107  13.711  0.00  0.00    +0.000 HD
ATOM     11  H   UNL     1       6.834   3.712  12.817  0.00  0.00    +0.000 HD
ATOM     12  H   UNL     1       5.374   3.338  13.544  0.00  0.00    +0.000 HD
ENDBRANCH   1   8
BRANCH   4  13
ATOM     13  C   UNL     1       2.857   5.316  19.000  0.00  0.00    +0.000 C 
ATOM     14  O   UNL     1       1.752   4.802  19.032  0.00  0.00    +0.000 OA
BRANCH  13  15
ATOM     15  O   UNL     1       3.344   6.076  20.004  0.00  0.00    +0.000 OA
ATOM     16  H   UNL     1       3.988   5.635  20.585  0.00  0.00    +0.000 HD
ENDBRANCH  13  15
ENDBRANCH   4  13
TORSDOF 3
ENDMDL
MODEL 6
REMARK VINA RESULT:      -5.6      0.567      1.093
REMARK  Name = 
REMARK  3 active torsions:
REMARK  status: ('A' for Active; 'I' for Inactive)
REMARK    1  A    between atoms: C_2  and  C_4
REMARK    2  A    between atoms: C_7  and  C_8
REMARK    3  A    between atoms: C_8  and  O_10
REMARK                            x       y       z     vdW  Elec       q    Type
REMARK                         _______ _______ _______ _____ _____    ______ ____
ROOT
ATOM      1  C   UNL     1       5.686   4.452  17.617  0.00  0.00    +0.000 A 
ATOM      2  C   UNL     1       4.755   4.010  16.671  0.00  0.00    +0.000 A 
ATOM      3  C   UNL     1       3.486   3.590  17.081  0.00  0.00    +0.000 A 
ATOM      4  C   UNL     1       3.135   3.627  18.436  0.00  0.00    +0.000 A 
ATOM      5  C   UNL     1       4.066   4.072  19.384  0.00  0.00    +0.000 A 
ATOM      6  C   UNL     1       5.337   4.490  18.973  0.00  0.00    +0.000 A 
ENDROOT
BRANCH   1   8
ATOM      7  N   UNL     1       7.170   5.795  16.289  0.00  0.00    +0.000 NA
ATOM      8  C   UNL     1       7.048   4.863  17.173  0.00  0.00    +0.000 C 
ATOM      9  N   UNL     1       8.154   4.248  17.686  0.00  0.00    +0.000 N 
ATOM     10  H   UNL     1       8.159   5.987  16.114  0.00  0.00    +0.000 HD
ATOM     11  H   UNL     1       8.998   4.339  17.133  0.00  0.00    +0.000 HD
ATOM     12  H   UNL     1       8.017   3.288  17.989  0.00  0.00    +0.000 HD
ENDBRANCH   1   8
BRANCH   4  13
ATOM     13  C   UNL     1       1.787   3.129  18.819  0.00  0.00    +0.000 C 
ATOM     14  O   UNL     1       0.995   3.798  19.460  0.00  0.00    +0.000 OA
BRANCH  13  15
ATOM     15  O   UNL     1       1.530   1.865  18.419  0.00  0.00    +0.000 OA
ATOM     16  H   UNL     1       1.743   1.172  19.068  0.00  0.00    +0.000 HD
ENDBRANCH  13  15
ENDBRANCH   4  13
TORSDOF 3
ENDMDL
MODEL 7
REMARK VINA RESULT:      -5.6      1.492      2.147
REMARK  Name = 
REMARK  3 active torsions:
REMARK  status: ('A' for Active; 'I' for Inactive)
REMARK    1  A    between atoms: C_2  and  C_4
REMARK    2  A    between atoms: C_7  and  C_8
REMARK    3  A    between atoms: C_8  and  O_10
REMARK                            x       y       z     vdW  Elec       q    Type
REMARK                         _______ _______ _______ _____ _____    ______ ____
ROOT
ATOM      1  C   UNL     1       4.203   5.119  17.105  0.00  0.00    +0.000 A 
ATOM      2  C   UNL     1       4.003   3.746  16.934  0.00  0.00    +0.000 A 
ATOM      3  C   UNL     1       2.918   3.114  17.548  0.00  0.00    +0.000 A 
ATOM      4  C   UNL     1       2.016   3.856  18.322  0.00  0.00    +0.000 A 
ATOM      5  C   UNL     1       2.214   5.233  18.491  0.00  0.00    +0.000 A 
ATOM      6  C   UNL     1       3.303   5.864  17.877  0.00  0.00    +0.000 A 
ENDROOT
BRANCH   1   8
ATOM      7  N   UNL     1       5.199   6.655  15.550  0.00  0.00    +0.000 NA
ATOM      8  C   UNL     1       5.384   5.775  16.474  0.00  0.00    +0.000 C 
ATOM      9  N   UNL     1       6.649   5.434  16.862  0.00  0.00    +0.000 N 
ATOM     10  H   UNL     1       6.097   7.036  15.243  0.00  0.00    +0.000 HD
ATOM     11  H   UNL     1       7.381   5.664  16.202  0.00  0.00    +0.000 HD
ATOM     12  H   UNL     1       6.756   4.487  17.214  0.00  0.00    +0.000 HD
ENDBRANCH   1   8
BRANCH   4  13
ATOM     13  C   UNL     1       0.904   3.126  18.986  0.00  0.00    +0.000 C 
ATOM     14  O   UNL     1       0.321   2.193  18.461  0.00  0.00    +0.000 OA
BRANCH  13  15
ATOM     15  O   UNL     1       0.581   3.603  20.207  0.00  0.00    +0.000 OA
ATOM     16  H   UNL     1      -0.328   3.414  20.500  0.00  0.00    +0.000 HD
ENDBRANCH  13  15
ENDBRANCH   4  13
TORSDOF 3
ENDMDL
MODEL 8
REMARK VINA RESULT:      -5.6      0.155      1.325
REMARK  Name = 
REMARK  3 active torsions:
REMARK  status: ('A' for Active; 'I' for Inactive)
REMARK    1  A    between atoms: C_2  and  C_4
REMARK    2  A    between atoms: C_7  and  C_8
REMARK    3  A    between atoms: C_8  and  O_10
REMARK                            x       y       z     vdW  Elec       q    Type
REMARK                         _______ _______ _______ _____ _____    ______ ____
ROOT
ATOM      1  C   UNL     1       5.697   4.665  17.579  0.00  0.00    +0.000 A 
ATOM      2  C   UNL     1       4.798   4.066  16.692  0.00  0.00    +0.000 A 
ATOM      3  C   UNL     1       3.489   3.793  17.100  0.00  0.00    +0.000 A 
ATOM      4  C   UNL     1       3.068   4.134  18.392  0.00  0.00    +0.000 A 
ATOM      5  C   UNL     1       3.968   4.737  19.280  0.00  0.00    +0.000 A 
ATOM      6  C   UNL     1       5.279   5.008  18.871  0.00  0.00    +0.000 A 
ENDROOT
BRANCH   1   8
ATOM      7  N   UNL     1       7.327   5.781  16.212  0.00  0.00    +0.000 NA
ATOM      8  C   UNL     1       7.100   4.919  17.145  0.00  0.00    +0.000 C 
ATOM      9  N   UNL     1       8.133   4.234  17.719  0.00  0.00    +0.000 N 
ATOM     10  H   UNL     1       8.333   5.868  16.050  0.00  0.00    +0.000 HD
ATOM     11  H   UNL     1       8.991   4.213  17.182  0.00  0.00    +0.000 HD
ATOM     12  H   UNL     1       7.900   3.311  18.073  0.00  0.00    +0.000 HD
ENDBRANCH   1   8
BRANCH   4  13
ATOM     13  C   UNL     1       1.678   3.782  18.786  0.00  0.00    +0.000 C 
ATOM     14  O   UNL     1       0.962   3.062  18.111  0.00  0.00    +0.000 OA
BRANCH  13  15
ATOM     15  O   UNL     1       1.270   4.350  19.942  0.00  0.00    +0.000 OA
ATOM     16  H   UNL     1       1.815   4.142  20.721  0.00  0.00    +0.000 HD
ENDBRANCH  13  15
ENDBRANCH   4  13
TORSDOF 3
ENDMDL
MODEL 9
REMARK VINA RESULT:      -5.6      1.113      1.542
REMARK  Name = 
REMARK  3 active torsions:
REMARK  status: ('A' for Active; 'I' for Inactive)
REMARK    1  A    between atoms: C_2  and  C_4
REMARK    2  A    between atoms: C_7  and  C_8
REMARK    3  A    between atoms: C_8  and  O_10
REMARK                            x       y       z     vdW  Elec       q    Type
REMARK                         _______ _______ _______ _____ _____    ______ ____
ROOT
ATOM      1  C   UNL     1       4.839   4.031  17.876  0.00  0.00    +0.000 A 
ATOM      2  C   UNL     1       3.775   3.930  16.975  0.00  0.00    +0.000 A 
ATOM      3  C   UNL     1       2.513   3.530  17.424  0.00  0.00    +0.000 A 
ATOM      4  C   UNL     1       2.304   3.247  18.780  0.00  0.00    +0.000 A 
ATOM      5  C   UNL     1       3.370   3.351  19.684  0.00  0.00    +0.000 A 
ATOM      6  C   UNL     1       4.634   3.750  19.233  0.00  0.00    +0.000 A 
ENDROOT
BRANCH   1   8
ATOM      7  N   UNL     1       7.204   4.331  18.170  0.00  0.00    +0.000 NA
ATOM      8  C   UNL     1       6.189   4.424  17.380  0.00  0.00    +0.000 C 
ATOM      9  N   UNL     1       6.344   4.892  16.106  0.00  0.00    +0.000 N 
ATOM     10  H   UNL     1       8.058   4.603  17.677  0.00  0.00    +0.000 HD
ATOM     11  H   UNL     1       7.189   5.425  15.939  0.00  0.00    +0.000 HD
ATOM     12  H   UNL     1       5.532   5.359  15.712  0.00  0.00    +0.000 HD
ENDBRANCH   1   8
BRANCH   4  13
ATOM     13  C   UNL     1       0.953   2.786  19.195  0.00  0.00    +0.000 C 
ATOM     14  O   UNL     1       0.239   2.105  18.479  0.00  0.00    +0.000 OA
BRANCH  13  15
ATOM     15  O   UNL     1       0.577   3.209  20.421  0.00  0.00    +0.000 OA
ATOM     16  H   UNL     1       1.305   3.461  21.016  0.00  0.00    +0.000 HD
ENDBRANCH  13  15
ENDBRANCH   4  13
TORSDOF 3
ENDMDL
