MODEL 1
REMARK VINA RESULT:      -5.9      0.000      0.000
REMARK  Name = 
REMARK  4 active torsions:
REMARK  status: ('A' for Active; 'I' for Inactive)
REMARK    1  A    between atoms: C_1  and  N_2
REMARK    2  A    between atoms: N_7  and  C_8
REMARK    3  A    between atoms: C_8  and  C_9
REMARK    4  A    between atoms: C_9  and  N_10
REMARK                            x       y       z     vdW  Elec       q    Type
REMARK                         _______ _______ _______ _____ _____    ______ ____
ROOT
ATOM      1  C   UNL     1       1.378   2.697  19.240  0.00  0.00    +0.000 C 
ATOM      2  N   UNL     1       2.409   3.615  18.747  0.00  0.00    +0.000 NA
ATOM      3  C   UNL     1       2.997   4.364  19.868  0.00  0.00    +0.000 C 
ATOM      4  C   UNL     1       3.977   5.450  19.449  0.00  0.00    +0.000 C 
ATOM      5  C   UNL     1       5.347   4.955  19.043  0.00  0.00    +0.000 C 
ATOM      6  O   UNL     1       6.329   5.143  19.770  0.00  0.00    +0.000 OA
ATOM      7  N   UNL     1       5.452   4.381  17.782  0.00  0.00    +0.000 N 
ATOM      8  C   UNL     1       4.291   3.790  17.110  0.00  0.00    +0.000 C 
ATOM      9  C   UNL     1       3.433   2.871  17.997  0.00  0.00    +0.000 C 
ENDROOT
BRANCH   7  10
ATOM     10  C   UNL     1       6.774   4.387  17.132  0.00  0.00    +0.000 C 
BRANCH  10  11
ATOM     11  C   UNL     1       6.865   5.197  15.831  0.00  0.00    +0.000 C 
BRANCH  11  12
ATOM     12  N   UNL     1       6.330   6.554  16.027  0.00  0.00    +0.000 NA
ATOM     13  N   UNL     1       7.037   7.300  16.735  0.00  0.00    +0.000 NA
ATOM     14  N   UNL     1       7.692   7.966  17.381  0.00  0.00    +0.000 NA
ENDBRANCH  11  12
ENDBRANCH  10  11
ENDBRANCH   7  10
TORSDOF 3
ENDMDL
MODEL 2
REMARK VINA RESULT:      -5.7      2.304      2.704
REMARK  Name = 
REMARK  4 active torsions:
REMARK  status: ('A' for Active; 'I' for Inactive)
REMARK    1  A    between atoms: C_1  and  N_2
REMARK    2  A    between atoms: N_7  and  C_8
REMARK    3  A    between atoms: C_8  and  C_9
REMARK    4  A    between atoms: C_9  and  N_10
REMARK                            x       y       z     vdW  Elec       q    Type
REMARK                         _______ _______ _______ _____ _____    ______ ____
ROOT
ATOM      1  C   UNL     1       1.616   2.531  21.586  0.00  0.00    +0.000 C 
ATOM      2  N   UNL     1       2.016   2.818  20.205  0.00  0.00    +0.000 NA
ATOM      3  C   UNL     1       1.407   4.078  19.754  0.00  0.00    +0.000 C 
ATOM      4  C   UNL     1       1.642   4.395  18.285  0.00  0.00    +0.000 C 
ATOM      5  C   UNL     1       3.018   4.926  17.955  0.00  0.00    +0.000 C 
ATOM      6  O   UNL     1       3.183   6.112  17.650  0.00  0.00    +0.000 OA
ATOM      7  N   UNL     1       4.051   3.996  17.914  0.00  0.00    +0.000 N 
ATOM      8  C   UNL     1       3.970   2.730  18.648  0.00  0.00    +0.000 C 
ATOM      9  C   UNL     1       3.483   2.858  20.102  0.00  0.00    +0.000 C 
ENDROOT
BRANCH   7  10
ATOM     10  C   UNL     1       5.236   4.320  17.101  0.00  0.00    +0.000 C 
BRANCH  10  11
ATOM     11  C   UNL     1       6.541   4.512  17.886  0.00  0.00    +0.000 C 
BRANCH  11  12
ATOM     12  N   UNL     1       6.281   5.194  19.165  0.00  0.00    +0.000 NA
ATOM     13  N   UNL     1       7.259   5.251  19.937  0.00  0.00    +0.000 NA
ATOM     14  N   UNL     1       8.158   5.295  20.629  0.00  0.00    +0.000 NA
ENDBRANCH  11  12
ENDBRANCH  10  11
ENDBRANCH   7  10
TORSDOF 3
ENDMDL
MODEL 3
REMARK VINA RESULT:      -5.7      2.112      2.414
REMARK  Name = 
REMARK  4 active torsions:
REMARK  status: ('A' for Active; 'I' for Inactive)
REMARK    1  A    between atoms: C_1  and  N_2
REMARK    2  A    between atoms: N_7  and  C_8
REMARK    3  A    between atoms: C_8  and  C_9
REMARK    4  A    between atoms: C_9  and  N_10
REMARK                            x       y       z     vdW  Elec       q    Type
REMARK                         _______ _______ _______ _____ _____    ______ ____
ROOT
ATOM      1  C   UNL     1       1.754   2.619  21.173  0.00  0.00    +0.000 C 
ATOM      2  N   UNL     1       2.322   3.095  19.908  0.00  0.00    +0.000 NA
ATOM      3  C   UNL     1       1.564   4.257  19.418  0.00  0.00    +0.000 C 
ATOM      4  C   UNL     1       1.982   4.738  18.037  0.00  0.00    +0.000 C 
ATOM      5  C   UNL     1       3.263   5.539  17.997  0.00  0.00    +0.000 C 
ATOM      6  O   UNL     1       3.242   6.758  17.791  0.00  0.00    +0.000 OA
ATOM      7  N   UNL     1       4.449   4.821  18.099  0.00  0.00    +0.000 N 
ATOM      8  C   UNL     1       4.493   3.502  18.737  0.00  0.00    +0.000 C 
ATOM      9  C   UNL     1       3.748   3.412  20.080  0.00  0.00    +0.000 C 
ENDROOT
BRANCH   7  10
ATOM     10  C   UNL     1       5.670   5.427  17.539  0.00  0.00    +0.000 C 
BRANCH  10  11
ATOM     11  C   UNL     1       6.992   4.874  18.088  0.00  0.00    +0.000 C 
BRANCH  11  12
ATOM     12  N   UNL     1       7.787   4.266  17.008  0.00  0.00    +0.000 NA
ATOM     13  N   UNL     1       7.652   4.806  15.891  0.00  0.00    +0.000 NA
ATOM     14  N   UNL     1       7.518   5.306  14.881  0.00  0.00    +0.000 NA
ENDBRANCH  11  12
ENDBRANCH  10  11
ENDBRANCH   7  10
TORSDOF 3
ENDMDL
MODEL 4
REMARK VINA RESULT:      -5.7      1.774      1.957
REMARK  Name = 
REMARK  4 active torsions:
REMARK  status: ('A' for Active; 'I' for Inactive)
REMARK    1  A    between atoms: C_1  and  N_2
REMARK    2  A    between atoms: N_7  and  C_8
REMARK    3  A    between atoms: C_8  and  C_9
REMARK    4  A    between atoms: C_9  and  N_10
REMARK                            x       y       z     vdW  Elec       q    Type
REMARK                         _______ _______ _______ _____ _____    ______ ____
ROOT
ATOM      1  C   UNL     1       2.930   2.694  21.263  0.00  0.00    +0.000 C 
ATOM      2  N   UNL     1       2.853   3.212  19.893  0.00  0.00    +0.000 NA
ATOM      3  C   UNL     1       2.387   4.607  19.905  0.00  0.00    +0.000 C 
ATOM      4  C   UNL     1       2.134   5.192  18.524  0.00  0.00    +0.000 C 
ATOM      5  C   UNL     1       3.375   5.599  17.762  0.00  0.00    +0.000 C 
ATOM      6  O   UNL     1       3.651   6.792  17.593  0.00  0.00    +0.000 OA
ATOM      7  N   UNL     1       4.114   4.574  17.185  0.00  0.00    +0.000 N 
ATOM      8  C   UNL     1       4.053   3.202  17.700  0.00  0.00    +0.000 C 
ATOM      9  C   UNL     1       4.161   3.083  19.229  0.00  0.00    +0.000 C 
ENDROOT
BRANCH   7  10
ATOM     10  C   UNL     1       4.966   4.906  16.029  0.00  0.00    +0.000 C 
BRANCH  10  11
ATOM     11  C   UNL     1       6.216   4.031  15.858  0.00  0.00    +0.000 C 
BRANCH  11  12
ATOM     12  N   UNL     1       7.368   4.851  15.447  0.00  0.00    +0.000 NA
ATOM     13  N   UNL     1       7.506   5.917  16.081  0.00  0.00    +0.000 NA
ATOM     14  N   UNL     1       7.617   6.884  16.666  0.00  0.00    +0.000 NA
ENDBRANCH  11  12
ENDBRANCH  10  11
ENDBRANCH   7  10
TORSDOF 3
ENDMDL
MODEL 5
REMARK VINA RESULT:      -5.7      1.710      2.472
REMARK  Name = 
REMARK  4 active torsions:
REMARK  status: ('A' for Active; 'I' for Inactive)
REMARK    1  A    between atoms: C_1  and  N_2
REMARK    2  A    between atoms: N_7  and  C_8
REMARK    3  A    between atoms: C_8  and  C_9
REMARK    4  A    between atoms: C_9  and  N_10
REMARK                            x       y       z     vdW  Elec       q    Type
REMARK                         _______ _______ _______ _____ _____    ______ ____
ROOT
ATOM      1  C   UNL     1       0.677   3.521  20.180  0.00  0.00    +0.000 C 
ATOM      2  N   UNL     1       2.067   3.808  19.814  0.00  0.00    +0.000 NA
ATOM      3  C   UNL     1       2.511   2.890  18.753  0.00  0.00    +0.000 C 
ATOM      4  C   UNL     1       3.986   3.008  18.401  0.00  0.00    +0.000 C 
ATOM      5  C   UNL     1       4.347   4.198  17.542  0.00  0.00    +0.000 C 
ATOM      6  O   UNL     1       4.660   4.050  16.355  0.00  0.00    +0.000 OA
ATOM      7  N   UNL     1       4.407   5.431  18.180  0.00  0.00    +0.000 N 
ATOM      8  C   UNL     1       3.667   5.688  19.419  0.00  0.00    +0.000 C 
ATOM      9  C   UNL     1       2.203   5.215  19.404  0.00  0.00    +0.000 C 
ENDROOT
BRANCH   7  10
ATOM     10  C   UNL     1       5.247   6.479  17.574  0.00  0.00    +0.000 C 
BRANCH  10  11
ATOM     11  C   UNL     1       6.760   6.296  17.751  0.00  0.00    +0.000 C 
BRANCH  11  12
ATOM     12  N   UNL     1       7.481   6.758  16.552  0.00  0.00    +0.000 NA
ATOM     13  N   UNL     1       7.474   5.957  15.596  0.00  0.00    +0.000 NA
ATOM     14  N   UNL     1       7.459   5.216  14.734  0.00  0.00    +0.000 NA
ENDBRANCH  11  12
ENDBRANCH  10  11
ENDBRANCH   7  10
TORSDOF 3
ENDMDL
MODEL 6
REMARK VINA RESULT:      -5.6      1.951      2.169
REMARK  Name = 
REMARK  4 active torsions:
REMARK  status: ('A' for Active; 'I' for Inactive)
REMARK    1  A    between atoms: C_1  and  N_2
REMARK    2  A    between atoms: N_7  and  C_8
REMARK    3  A    between atoms: C_8  and  C_9
REMARK    4  A    between atoms: C_9  and  N_10
REMARK                            x       y       z     vdW  Elec       q    Type
REMARK                         _______ _______ _______ _____ _____    ______ ____
ROOT
ATOM      1  C   UNL     1       2.337   3.569  21.190  0.00  0.00    +0.000 C 
ATOM      2  N   UNL     1       2.630   3.897  19.791  0.00  0.00    +0.000 NA
ATOM      3  C   UNL     1       2.399   5.329  19.547  0.00  0.00    +0.000 C 
ATOM      4  C   UNL     1       2.535   5.745  18.090  0.00  0.00    +0.000 C 
ATOM      5  C   UNL     1       3.956   5.875  17.591  0.00  0.00    +0.000 C 
ATOM      6  O   UNL     1       4.448   6.986  17.362  0.00  0.00    +0.000 OA
ATOM      7  N   UNL     1       4.627   4.691  17.309  0.00  0.00    +0.000 N 
ATOM      8  C   UNL     1       4.243   3.425  17.940  0.00  0.00    +0.000 C 
ATOM      9  C   UNL     1       4.010   3.506  19.458  0.00  0.00    +0.000 C 
ENDROOT
BRANCH   7  10
ATOM     10  C   UNL     1       5.742   4.744  16.347  0.00  0.00    +0.000 C 
BRANCH  10  11
ATOM     11  C   UNL     1       7.134   4.478  16.936  0.00  0.00    +0.000 C 
BRANCH  11  12
ATOM     12  N   UNL     1       7.602   5.644  17.705  0.00  0.00    +0.000 NA
ATOM     13  N   UNL     1       7.590   5.494  18.944  0.00  0.00    +0.000 NA
ATOM     14  N   UNL     1       7.572   5.342  20.069  0.00  0.00    +0.000 NA
ENDBRANCH  11  12
ENDBRANCH  10  11
ENDBRANCH   7  10
TORSDOF 3
ENDMDL
MODEL 7
REMARK VINA RESULT:      -5.6      1.776      2.282
REMARK  Name = 
REMARK  4 active torsions:
REMARK  status: ('A' for Active; 'I' for Inactive)
REMARK    1  A    between atoms: C_1  and  N_2
REMARK    2  A    between atoms: N_7  and  C_8
REMARK    3  A    between atoms: C_8  and  C_9
REMARK    4  A    between atoms: C_9  and  N_10
REMARK                            x       y       z     vdW  Elec       q    Type
REMARK                         _______ _______ _______ _____ _____    ______ ____
ROOT
ATOM      1  C   UNL     1       1.589   6.234  20.662  0.00  0.00    +0.000 C 
ATOM      2  N   UNL     1       2.773   5.610  20.063  0.00  0.00    +0.000 NA
ATOM      3  C   UNL     1       2.663   4.144  20.135  0.00  0.00    +0.000 C 
ATOM      4  C   UNL     1       3.906   3.401  19.671  0.00  0.00    +0.000 C 
ATOM      5  C   UNL     1       4.087   3.328  18.172  0.00  0.00    +0.000 C 
ATOM      6  O   UNL     1       3.919   2.265  17.565  0.00  0.00    +0.000 OA
ATOM      7  N   UNL     1       4.549   4.479  17.544  0.00  0.00    +0.000 N 
ATOM      8  C   UNL     1       4.359   5.804  18.141  0.00  0.00    +0.000 C 
ATOM      9  C   UNL     1       2.943   6.073  18.676  0.00  0.00    +0.000 C 
ENDROOT
BRANCH   7  10
ATOM     10  C   UNL     1       5.244   4.327  16.254  0.00  0.00    +0.000 C 
BRANCH  10  11
ATOM     11  C   UNL     1       6.776   4.391  16.318  0.00  0.00    +0.000 C 
BRANCH  11  12
ATOM     12  N   UNL     1       7.272   5.604  15.646  0.00  0.00    +0.000 NA
ATOM     13  N   UNL     1       7.445   6.585  16.397  0.00  0.00    +0.000 NA
ATOM     14  N   UNL     1       7.597   7.470  17.093  0.00  0.00    +0.000 NA
ENDBRANCH  11  12
ENDBRANCH  10  11
ENDBRANCH   7  10
TORSDOF 3
ENDMDL
MODEL 8
REMARK VINA RESULT:      -5.6      1.239      1.263
REMARK  Name = 
REMARK  4 active torsions:
REMARK  status: ('A' for Active; 'I' for Inactive)
REMARK    1  A    between atoms: C_1  and  N_2
REMARK    2  A    between atoms: N_7  and  C_8
REMARK    3  A    between atoms: C_8  and  C_9
REMARK    4  A    between atoms: C_9  and  N_10
REMARK                            x       y       z     vdW  Elec       q    Type
REMARK                         _______ _______ _______ _____ _____    ______ ____
ROOT
ATOM      1  C   UNL     1       0.533   2.342  18.982  0.00  0.00    +0.000 C 
ATOM      2  N   UNL     1       1.444   3.207  18.225  0.00  0.00    +0.000 NA
ATOM      3  C   UNL     1       1.713   4.441  18.978  0.00  0.00    +0.000 C 
ATOM      4  C   UNL     1       2.532   5.472  18.216  0.00  0.00    +0.000 C 
ATOM      5  C   UNL     1       4.014   5.181  18.135  0.00  0.00    +0.000 C 
ATOM      6  O   UNL     1       4.827   5.850  18.782  0.00  0.00    +0.000 OA
ATOM      7  N   UNL     1       4.407   4.206  17.226  0.00  0.00    +0.000 N 
ATOM      8  C   UNL     1       3.485   3.157  16.782  0.00  0.00    +0.000 C 
ATOM      9  C   UNL     1       2.685   2.482  17.909  0.00  0.00    +0.000 C 
ENDROOT
BRANCH   7  10
ATOM     10  C   UNL     1       5.788   4.259  16.715  0.00  0.00    +0.000 C 
BRANCH  10  11
ATOM     11  C   UNL     1       6.048   5.309  15.626  0.00  0.00    +0.000 C 
BRANCH  11  12
ATOM     12  N   UNL     1       7.416   5.841  15.737  0.00  0.00    +0.000 NA
ATOM     13  N   UNL     1       7.542   6.804  16.520  0.00  0.00    +0.000 NA
ATOM     14  N   UNL     1       7.640   7.681  17.235  0.00  0.00    +0.000 NA
ENDBRANCH  11  12
ENDBRANCH  10  11
ENDBRANCH   7  10
TORSDOF 3
ENDMDL
MODEL 9
REMARK VINA RESULT:      -5.5      2.113      2.406
REMARK  Name = 
REMARK  4 active torsions:
REMARK  status: ('A' for Active; 'I' for Inactive)
REMARK    1  A    between atoms: C_1  and  N_2
REMARK    2  A    between atoms: N_7  and  C_8
REMARK    3  A    between atoms: C_8  and  C_9
REMARK    4  A    between atoms: C_9  and  N_10
REMARK                            x       y       z     vdW  Elec       q    Type
REMARK                         _______ _______ _______ _____ _____    ______ ____
ROOT
ATOM      1  C   UNL     1       3.013   2.622  21.002  0.00  0.00    +0.000 C 
ATOM      2  N   UNL     1       2.973   3.304  19.705  0.00  0.00    +0.000 NA
ATOM      3  C   UNL     1       2.055   4.452  19.765  0.00  0.00    +0.000 C 
ATOM      4  C   UNL     1       1.829   5.142  18.428  0.00  0.00    +0.000 C 
ATOM      5  C   UNL     1       2.953   6.046  17.975  0.00  0.00    +0.000 C 
ATOM      6  O   UNL     1       2.821   7.275  17.987  0.00  0.00    +0.000 OA
ATOM      7  N   UNL     1       4.082   5.423  17.456  0.00  0.00    +0.000 N 
ATOM      8  C   UNL     1       4.422   4.041  17.806  0.00  0.00    +0.000 C 
ATOM      9  C   UNL     1       4.329   3.715  19.306  0.00  0.00    +0.000 C 
ENDROOT
BRANCH   7  10
ATOM     10  C   UNL     1       4.931   6.197  16.534  0.00  0.00    +0.000 C 
BRANCH  10  11
ATOM     11  C   UNL     1       6.099   6.950  17.187  0.00  0.00    +0.000 C 
BRANCH  11  12
ATOM     12  N   UNL     1       7.377   6.560  16.569  0.00  0.00    +0.000 NA
ATOM     13  N   UNL     1       7.669   5.353  16.687  0.00  0.00    +0.000 NA
ATOM     14  N   UNL     1       7.921   4.252  16.804  0.00  0.00    +0.000 NA
ENDBRANCH  11  12
ENDBRANCH  10  11
ENDBRANCH   7  10
TORSDOF 3
ENDMDL
