MODEL 1
REMARK VINA RESULT:      -7.3      0.000      0.000
REMARK  Name = 
REMARK  7 active torsions:
REMARK  status: ('A' for Active; 'I' for Inactive)
REMARK    1  A    between atoms: C_1  and  C_2
REMARK    2  A    between atoms: C_2  and  C_3
REMARK    3  A    between atoms: C_3  and  C_4
REMARK    4  A    between atoms: C_4  and  C_5
REMARK    5  A    between atoms: C_5  and  C_6
REMARK    6  A    between atoms: C_10  and  O_11
REMARK    7  A    between atoms: O_11  and  C_12
REMARK                            x       y       z     vdW  Elec       q    Type
REMARK                         _______ _______ _______ _____ _____    ______ ____
ROOT
ATOM      1  C   UNL     1       6.617   5.006  18.232  0.00  0.00    +0.000 A 
ATOM      2  N   UNL     1       5.703   4.959  19.153  0.00  0.00    +0.000 NA
ATOM      3  C   UNL     1       4.396   4.547  18.800  0.00  0.00    +0.000 A 
ATOM      4  C   UNL     1       3.421   4.473  19.798  0.00  0.00    +0.000 A 
ATOM      5  C   UNL     1       2.113   4.068  19.498  0.00  0.00    +0.000 A 
ATOM      6  C   UNL     1       1.778   3.733  18.184  0.00  0.00    +0.000 A 
ATOM      7  C   UNL     1       2.735   3.795  17.173  0.00  0.00    +0.000 A 
ATOM      8  C   UNL     1       4.033   4.199  17.487  0.00  0.00    +0.000 A 
ATOM      9  N   UNL     1       5.049   4.277  16.520  0.00  0.00    +0.000 N 
ATOM     10  C   UNL     1       5.011   3.998  15.175  0.00  0.00    +0.000 A 
ATOM     11  C   UNL     1       6.268   4.213  14.654  0.00  0.00    +0.000 A 
ATOM     12  C   UNL     1       7.096   4.640  15.718  0.00  0.00    +0.000 A 
ATOM     13  C   UNL     1       6.322   4.668  16.860  0.00  0.00    +0.000 A 
ENDROOT
BRANCH   5  14
ATOM     14  O   UNL     1       1.255   4.038  20.566  0.00  0.00    +0.000 OA
ATOM     15  C   UNL     1       1.272   2.855  21.359  0.00  0.00    +0.000 C 
ENDBRANCH   5  14
BRANCH   1  16
ATOM     16  C   UNL     1       8.019   5.437  18.596  0.00  0.00    +0.000 C 
BRANCH  16  17
ATOM     17  C   UNL     1       8.070   6.939  18.853  0.00  0.00    +0.000 C 
BRANCH  17  18
ATOM     18  C   UNL     1       7.673   7.716  17.600  0.00  0.00    +0.000 C 
BRANCH  18  20
ATOM     19  C   UNL     1       8.917   9.431  18.943  0.00  0.00    +0.000 C 
ATOM     20  C   UNL     1       8.078   9.184  17.700  0.00  0.00    +0.000 C 
ENDBRANCH  18  20
ENDBRANCH  17  18
ENDBRANCH  16  17
ENDBRANCH   1  16
TORSDOF 5
ENDMDL
MODEL 2
REMARK VINA RESULT:      -7.2      3.374      6.037
REMARK  Name = 
REMARK  7 active torsions:
REMARK  status: ('A' for Active; 'I' for Inactive)
REMARK    1  A    between atoms: C_1  and  C_2
REMARK    2  A    between atoms: C_2  and  C_3
REMARK    3  A    between atoms: C_3  and  C_4
REMARK    4  A    between atoms: C_4  and  C_5
REMARK    5  A    between atoms: C_5  and  C_6
REMARK    6  A    between atoms: C_10  and  O_11
REMARK    7  A    between atoms: O_11  and  C_12
REMARK                            x       y       z     vdW  Elec       q    Type
REMARK                         _______ _______ _______ _____ _____    ______ ____
ROOT
ATOM      1  C   UNL     1       2.384   5.658  19.696  0.00  0.00    +0.000 A 
ATOM      2  N   UNL     1       3.453   6.250  19.259  0.00  0.00    +0.000 NA
ATOM      3  C   UNL     1       4.238   5.605  18.273  0.00  0.00    +0.000 A 
ATOM      4  C   UNL     1       5.375   6.256  17.786  0.00  0.00    +0.000 A 
ATOM      5  C   UNL     1       6.182   5.660  16.808  0.00  0.00    +0.000 A 
ATOM      6  C   UNL     1       5.846   4.398  16.310  0.00  0.00    +0.000 A 
ATOM      7  C   UNL     1       4.714   3.733  16.777  0.00  0.00    +0.000 A 
ATOM      8  C   UNL     1       3.920   4.339  17.751  0.00  0.00    +0.000 A 
ATOM      9  N   UNL     1       2.762   3.729  18.261  0.00  0.00    +0.000 N 
ATOM     10  C   UNL     1       2.192   2.518  17.950  0.00  0.00    +0.000 A 
ATOM     11  C   UNL     1       1.052   2.371  18.709  0.00  0.00    +0.000 A 
ATOM     12  C   UNL     1       0.928   3.530  19.510  0.00  0.00    +0.000 A 
ATOM     13  C   UNL     1       1.993   4.356  19.212  0.00  0.00    +0.000 A 
ENDROOT
BRANCH   5  14
ATOM     14  O   UNL     1       7.266   6.402  16.416  0.00  0.00    +0.000 OA
ATOM     15  C   UNL     1       7.688   7.427  17.310  0.00  0.00    +0.000 C 
ENDBRANCH   5  14
BRANCH   1  16
ATOM     16  C   UNL     1       1.532   6.338  20.743  0.00  0.00    +0.000 C 
BRANCH  16  17
ATOM     17  C   UNL     1       1.527   7.848  20.534  0.00  0.00    +0.000 C 
BRANCH  17  18
ATOM     18  C   UNL     1       1.211   8.574  21.839  0.00  0.00    +0.000 C 
BRANCH  18  20
ATOM     19  C   UNL     1      -0.542   9.918  23.029  0.00  0.00    +0.000 C 
ATOM     20  C   UNL     1      -0.284   8.850  21.978  0.00  0.00    +0.000 C 
ENDBRANCH  18  20
ENDBRANCH  17  18
ENDBRANCH  16  17
ENDBRANCH   1  16
TORSDOF 5
ENDMDL
MODEL 3
REMARK VINA RESULT:      -7.2      3.526      6.180
REMARK  Name = 
REMARK  7 active torsions:
REMARK  status: ('A' for Active; 'I' for Inactive)
REMARK    1  A    between atoms: C_1  and  C_2
REMARK    2  A    between atoms: C_2  and  C_3
REMARK    3  A    between atoms: C_3  and  C_4
REMARK    4  A    between atoms: C_4  and  C_5
REMARK    5  A    between atoms: C_5  and  C_6
REMARK    6  A    between atoms: C_10  and  O_11
REMARK    7  A    between atoms: O_11  and  C_12
REMARK                            x       y       z     vdW  Elec       q    Type
REMARK                         _______ _______ _______ _____ _____    ______ ____
ROOT
ATOM      1  C   UNL     1       2.353   6.377  19.658  0.00  0.00    +0.000 A 
ATOM      2  N   UNL     1       3.220   6.772  18.775  0.00  0.00    +0.000 NA
ATOM      3  C   UNL     1       3.789   5.817  17.900  0.00  0.00    +0.000 A 
ATOM      4  C   UNL     1       4.703   6.249  16.935  0.00  0.00    +0.000 A 
ATOM      5  C   UNL     1       5.291   5.341  16.043  0.00  0.00    +0.000 A 
ATOM      6  C   UNL     1       4.961   3.986  16.118  0.00  0.00    +0.000 A 
ATOM      7  C   UNL     1       4.048   3.533  17.070  0.00  0.00    +0.000 A 
ATOM      8  C   UNL     1       3.471   4.448  17.950  0.00  0.00    +0.000 A 
ATOM      9  N   UNL     1       2.539   4.063  18.928  0.00  0.00    +0.000 N 
ATOM     10  C   UNL     1       2.025   2.821  19.218  0.00  0.00    +0.000 A 
ATOM     11  C   UNL     1       1.130   2.956  20.256  0.00  0.00    +0.000 A 
ATOM     12  C   UNL     1       1.102   4.325  20.611  0.00  0.00    +0.000 A 
ATOM     13  C   UNL     1       1.977   4.988  19.775  0.00  0.00    +0.000 A 
ENDROOT
BRANCH   5  14
ATOM     14  O   UNL     1       6.168   5.893  15.146  0.00  0.00    +0.000 OA
ATOM     15  C   UNL     1       6.938   4.981  14.370  0.00  0.00    +0.000 C 
ENDBRANCH   5  14
BRANCH   1  16
ATOM     16  C   UNL     1       1.732   7.387  20.595  0.00  0.00    +0.000 C 
BRANCH  16  17
ATOM     17  C   UNL     1       1.441   8.691  19.861  0.00  0.00    +0.000 C 
BRANCH  17  18
ATOM     18  C   UNL     1       0.298   9.447  20.535  0.00  0.00    +0.000 C 
BRANCH  18  20
ATOM     19  C   UNL     1      -0.267   9.590  22.975  0.00  0.00    +0.000 C 
ATOM     20  C   UNL     1      -0.234   8.691  21.750  0.00  0.00    +0.000 C 
ENDBRANCH  18  20
ENDBRANCH  17  18
ENDBRANCH  16  17
ENDBRANCH   1  16
TORSDOF 5
ENDMDL
MODEL 4
REMARK VINA RESULT:      -7.0      1.759      4.544
REMARK  Name = 
REMARK  7 active torsions:
REMARK  status: ('A' for Active; 'I' for Inactive)
REMARK    1  A    between atoms: C_1  and  C_2
REMARK    2  A    between atoms: C_2  and  C_3
REMARK    3  A    between atoms: C_3  and  C_4
REMARK    4  A    between atoms: C_4  and  C_5
REMARK    5  A    between atoms: C_5  and  C_6
REMARK    6  A    between atoms: C_10  and  O_11
REMARK    7  A    between atoms: O_11  and  C_12
REMARK                            x       y       z     vdW  Elec       q    Type
REMARK                         _______ _______ _______ _____ _____    ______ ____
ROOT
ATOM      1  C   UNL     1       5.497   4.719  16.002  0.00  0.00    +0.000 A 
ATOM      2  N   UNL     1       4.498   3.929  16.251  0.00  0.00    +0.000 NA
ATOM      3  C   UNL     1       4.187   3.621  17.597  0.00  0.00    +0.000 A 
ATOM      4  C   UNL     1       3.096   2.790  17.863  0.00  0.00    +0.000 A 
ATOM      5  C   UNL     1       2.746   2.459  19.179  0.00  0.00    +0.000 A 
ATOM      6  C   UNL     1       3.497   2.967  20.241  0.00  0.00    +0.000 A 
ATOM      7  C   UNL     1       4.587   3.802  20.000  0.00  0.00    +0.000 A 
ATOM      8  C   UNL     1       4.923   4.122  18.685  0.00  0.00    +0.000 A 
ATOM      9  N   UNL     1       6.003   4.964  18.370  0.00  0.00    +0.000 N 
ATOM     10  C   UNL     1       6.891   5.607  19.197  0.00  0.00    +0.000 A 
ATOM     11  C   UNL     1       7.764   6.329  18.414  0.00  0.00    +0.000 A 
ATOM     12  C   UNL     1       7.395   6.115  17.066  0.00  0.00    +0.000 A 
ATOM     13  C   UNL     1       6.303   5.271  17.065  0.00  0.00    +0.000 A 
ENDROOT
BRANCH   5  14
ATOM     14  O   UNL     1       1.656   1.637  19.302  0.00  0.00    +0.000 OA
ATOM     15  C   UNL     1       0.432   2.123  18.761  0.00  0.00    +0.000 C 
ENDBRANCH   5  14
BRANCH   1  16
ATOM     16  C   UNL     1       5.836   5.062  14.570  0.00  0.00    +0.000 C 
BRANCH  16  17
ATOM     17  C   UNL     1       6.667   3.953  13.934  0.00  0.00    +0.000 C 
BRANCH  17  18
ATOM     18  C   UNL     1       6.515   3.966  12.415  0.00  0.00    +0.000 C 
BRANCH  18  20
ATOM     19  C   UNL     1       4.322   3.269  11.415  0.00  0.00    +0.000 C 
ATOM     20  C   UNL     1       5.671   2.792  11.926  0.00  0.00    +0.000 C 
ENDBRANCH  18  20
ENDBRANCH  17  18
ENDBRANCH  16  17
ENDBRANCH   1  16
TORSDOF 5
ENDMDL
MODEL 5
REMARK VINA RESULT:      -6.9      3.996      6.344
REMARK  Name = 
REMARK  7 active torsions:
REMARK  status: ('A' for Active; 'I' for Inactive)
REMARK    1  A    between atoms: C_1  and  C_2
REMARK    2  A    between atoms: C_2  and  C_3
REMARK    3  A    between atoms: C_3  and  C_4
REMARK    4  A    between atoms: C_4  and  C_5
REMARK    5  A    between atoms: C_5  and  C_6
REMARK    6  A    between atoms: C_10  and  O_11
REMARK    7  A    between atoms: O_11  and  C_12
REMARK                            x       y       z     vdW  Elec       q    Type
REMARK                         _______ _______ _______ _____ _____    ______ ____
ROOT
ATOM      1  C   UNL     1       2.605   7.417  18.799  0.00  0.00    +0.000 A 
ATOM      2  N   UNL     1       3.421   7.513  17.794  0.00  0.00    +0.000 NA
ATOM      3  C   UNL     1       4.124   6.360  17.370  0.00  0.00    +0.000 A 
ATOM      4  C   UNL     1       4.983   6.460  16.272  0.00  0.00    +0.000 A 
ATOM      5  C   UNL     1       5.698   5.346  15.814  0.00  0.00    +0.000 A 
ATOM      6  C   UNL     1       5.551   4.116  16.460  0.00  0.00    +0.000 A 
ATOM      7  C   UNL     1       4.696   3.991  17.554  0.00  0.00    +0.000 A 
ATOM      8  C   UNL     1       3.991   5.110  17.999  0.00  0.00    +0.000 A 
ATOM      9  N   UNL     1       3.107   5.054  19.090  0.00  0.00    +0.000 N 
ATOM     10  C   UNL     1       2.760   3.993  19.892  0.00  0.00    +0.000 A 
ATOM     11  C   UNL     1       1.843   4.436  20.820  0.00  0.00    +0.000 A 
ATOM     12  C   UNL     1       1.628   5.812  20.574  0.00  0.00    +0.000 A 
ATOM     13  C   UNL     1       2.417   6.169  19.499  0.00  0.00    +0.000 A 
ENDROOT
BRANCH   5  14
ATOM     14  O   UNL     1       6.504   5.578  14.730  0.00  0.00    +0.000 OA
ATOM     15  C   UNL     1       6.709   4.481  13.845  0.00  0.00    +0.000 C 
ENDBRANCH   5  14
BRANCH   1  16
ATOM     16  C   UNL     1       1.843   8.639  19.258  0.00  0.00    +0.000 C 
BRANCH  16  17
ATOM     17  C   UNL     1       1.159   9.319  18.077  0.00  0.00    +0.000 C 
BRANCH  17  18
ATOM     18  C   UNL     1       0.407  10.568  18.534  0.00  0.00    +0.000 C 
BRANCH  18  20
ATOM     19  C   UNL     1      -1.693   9.957  17.304  0.00  0.00    +0.000 C 
ATOM     20  C   UNL     1      -1.092  10.305  18.656  0.00  0.00    +0.000 C 
ENDBRANCH  18  20
ENDBRANCH  17  18
ENDBRANCH  16  17
ENDBRANCH   1  16
TORSDOF 5
ENDMDL
MODEL 6
REMARK VINA RESULT:      -6.8      3.575      6.066
REMARK  Name = 
REMARK  7 active torsions:
REMARK  status: ('A' for Active; 'I' for Inactive)
REMARK    1  A    between atoms: C_1  and  C_2
REMARK    2  A    between atoms: C_2  and  C_3
REMARK    3  A    between atoms: C_3  and  C_4
REMARK    4  A    between atoms: C_4  and  C_5
REMARK    5  A    between atoms: C_5  and  C_6
REMARK    6  A    between atoms: C_10  and  O_11
REMARK    7  A    between atoms: O_11  and  C_12
REMARK                            x       y       z     vdW  Elec       q    Type
REMARK                         _______ _______ _______ _____ _____    ______ ____
ROOT
ATOM      1  C   UNL     1       2.341   6.310  19.615  0.00  0.00    +0.000 A 
ATOM      2  N   UNL     1       3.155   6.708  18.685  0.00  0.00    +0.000 NA
ATOM      3  C   UNL     1       3.800   5.739  17.879  0.00  0.00    +0.000 A 
ATOM      4  C   UNL     1       4.657   6.171  16.863  0.00  0.00    +0.000 A 
ATOM      5  C   UNL     1       5.315   5.251  16.037  0.00  0.00    +0.000 A 
ATOM      6  C   UNL     1       5.113   3.882  16.229  0.00  0.00    +0.000 A 
ATOM      7  C   UNL     1       4.259   3.428  17.232  0.00  0.00    +0.000 A 
ATOM      8  C   UNL     1       3.610   4.356  18.047  0.00  0.00    +0.000 A 
ATOM      9  N   UNL     1       2.731   3.970  19.072  0.00  0.00    +0.000 N 
ATOM     10  C   UNL     1       2.338   2.715  19.472  0.00  0.00    +0.000 A 
ATOM     11  C   UNL     1       1.448   2.853  20.514  0.00  0.00    +0.000 A 
ATOM     12  C   UNL     1       1.298   4.238  20.757  0.00  0.00    +0.000 A 
ATOM     13  C   UNL     1       2.097   4.907  19.851  0.00  0.00    +0.000 A 
ENDROOT
BRANCH   5  14
ATOM     14  O   UNL     1       6.126   5.804  15.080  0.00  0.00    +0.000 OA
ATOM     15  C   UNL     1       6.992   4.910  14.388  0.00  0.00    +0.000 C 
ENDBRANCH   5  14
BRANCH   1  16
ATOM     16  C   UNL     1       1.640   7.333  20.478  0.00  0.00    +0.000 C 
BRANCH  16  17
ATOM     17  C   UNL     1       1.533   8.668  19.749  0.00  0.00    +0.000 C 
BRANCH  17  18
ATOM     18  C   UNL     1       0.798   9.695  20.608  0.00  0.00    +0.000 C 
BRANCH  18  20
ATOM     19  C   UNL     1      -0.325  10.147  18.410  0.00  0.00    +0.000 C 
ATOM     20  C   UNL     1      -0.472  10.191  19.922  0.00  0.00    +0.000 C 
ENDBRANCH  18  20
ENDBRANCH  17  18
ENDBRANCH  16  17
ENDBRANCH   1  16
TORSDOF 5
ENDMDL
MODEL 7
REMARK VINA RESULT:      -6.8      3.060      6.343
REMARK  Name = 
REMARK  7 active torsions:
REMARK  status: ('A' for Active; 'I' for Inactive)
REMARK    1  A    between atoms: C_1  and  C_2
REMARK    2  A    between atoms: C_2  and  C_3
REMARK    3  A    between atoms: C_3  and  C_4
REMARK    4  A    between atoms: C_4  and  C_5
REMARK    5  A    between atoms: C_5  and  C_6
REMARK    6  A    between atoms: C_10  and  O_11
REMARK    7  A    between atoms: O_11  and  C_12
REMARK                            x       y       z     vdW  Elec       q    Type
REMARK                         _______ _______ _______ _____ _____    ______ ____
ROOT
ATOM      1  C   UNL     1       3.050   5.260  19.688  0.00  0.00    +0.000 A 
ATOM      2  N   UNL     1       3.850   4.545  18.957  0.00  0.00    +0.000 NA
ATOM      3  C   UNL     1       4.373   5.103  17.767  0.00  0.00    +0.000 A 
ATOM      4  C   UNL     1       5.254   4.341  16.995  0.00  0.00    +0.000 A 
ATOM      5  C   UNL     1       5.800   4.851  15.810  0.00  0.00    +0.000 A 
ATOM      6  C   UNL     1       5.461   6.141  15.392  0.00  0.00    +0.000 A 
ATOM      7  C   UNL     1       4.589   6.922  16.149  0.00  0.00    +0.000 A 
ATOM      8  C   UNL     1       4.053   6.400  17.326  0.00  0.00    +0.000 A 
ATOM      9  N   UNL     1       3.174   7.134  18.140  0.00  0.00    +0.000 N 
ATOM     10  C   UNL     1       2.687   8.409  17.988  0.00  0.00    +0.000 A 
ATOM     11  C   UNL     1       1.867   8.688  19.059  0.00  0.00    +0.000 A 
ATOM     12  C   UNL     1       1.854   7.543  19.888  0.00  0.00    +0.000 A 
ATOM     13  C   UNL     1       2.671   6.598  19.301  0.00  0.00    +0.000 A 
ENDROOT
BRANCH   5  14
ATOM     14  O   UNL     1       6.649   4.003  15.148  0.00  0.00    +0.000 OA
ATOM     15  C   UNL     1       6.440   3.864  13.746  0.00  0.00    +0.000 C 
ENDBRANCH   5  14
BRANCH   1  16
ATOM     16  C   UNL     1       2.490   4.679  20.966  0.00  0.00    +0.000 C 
BRANCH  16  17
ATOM     17  C   UNL     1       1.131   4.034  20.712  0.00  0.00    +0.000 C 
BRANCH  17  18
ATOM     18  C   UNL     1       1.295   2.574  20.298  0.00  0.00    +0.000 C 
BRANCH  18  20
ATOM     19  C   UNL     1       2.096   2.035  17.982  0.00  0.00    +0.000 C 
ATOM     20  C   UNL     1       0.886   2.356  18.843  0.00  0.00    +0.000 C 
ENDBRANCH  18  20
ENDBRANCH  17  18
ENDBRANCH  16  17
ENDBRANCH   1  16
TORSDOF 5
ENDMDL
MODEL 8
REMARK VINA RESULT:      -6.8      2.919      4.364
REMARK  Name = 
REMARK  7 active torsions:
REMARK  status: ('A' for Active; 'I' for Inactive)
REMARK    1  A    between atoms: C_1  and  C_2
REMARK    2  A    between atoms: C_2  and  C_3
REMARK    3  A    between atoms: C_3  and  C_4
REMARK    4  A    between atoms: C_4  and  C_5
REMARK    5  A    between atoms: C_5  and  C_6
REMARK    6  A    between atoms: C_10  and  O_11
REMARK    7  A    between atoms: O_11  and  C_12
REMARK                            x       y       z     vdW  Elec       q    Type
REMARK                         _______ _______ _______ _____ _____    ______ ____
ROOT
ATOM      1  C   UNL     1       4.246   4.914  17.426  0.00  0.00    +0.000 A 
ATOM      2  N   UNL     1       3.813   6.133  17.318  0.00  0.00    +0.000 NA
ATOM      3  C   UNL     1       3.015   6.671  18.356  0.00  0.00    +0.000 A 
ATOM      4  C   UNL     1       2.570   7.991  18.248  0.00  0.00    +0.000 A 
ATOM      5  C   UNL     1       1.780   8.569  19.251  0.00  0.00    +0.000 A 
ATOM      6  C   UNL     1       1.431   7.816  20.375  0.00  0.00    +0.000 A 
ATOM      7  C   UNL     1       1.867   6.499  20.506  0.00  0.00    +0.000 A 
ATOM      8  C   UNL     1       2.653   5.938  19.499  0.00  0.00    +0.000 A 
ATOM      9  N   UNL     1       3.133   4.619  19.570  0.00  0.00    +0.000 N 
ATOM     10  C   UNL     1       2.963   3.668  20.548  0.00  0.00    +0.000 A 
ATOM     11  C   UNL     1       3.641   2.532  20.166  0.00  0.00    +0.000 A 
ATOM     12  C   UNL     1       4.240   2.800  18.914  0.00  0.00    +0.000 A 
ATOM     13  C   UNL     1       3.915   4.096  18.568  0.00  0.00    +0.000 A 
ENDROOT
BRANCH   5  14
ATOM     14  O   UNL     1       1.412   9.869  19.024  0.00  0.00    +0.000 OA
ATOM     15  C   UNL     1       0.176  10.069  18.345  0.00  0.00    +0.000 C 
ENDBRANCH   5  14
BRANCH   1  16
ATOM     16  C   UNL     1       5.106   4.330  16.329  0.00  0.00    +0.000 C 
BRANCH  16  17
ATOM     17  C   UNL     1       6.454   5.040  16.267  0.00  0.00    +0.000 C 
BRANCH  17  18
ATOM     18  C   UNL     1       7.320   4.660  17.466  0.00  0.00    +0.000 C 
BRANCH  18  20
ATOM     19  C   UNL     1       7.440   7.165  17.559  0.00  0.00    +0.000 C 
ATOM     20  C   UNL     1       7.630   5.874  18.339  0.00  0.00    +0.000 C 
ENDBRANCH  18  20
ENDBRANCH  17  18
ENDBRANCH  16  17
ENDBRANCH   1  16
TORSDOF 5
ENDMDL
MODEL 9
REMARK VINA RESULT:      -6.7      3.123      5.187
REMARK  Name = 
REMARK  7 active torsions:
REMARK  status: ('A' for Active; 'I' for Inactive)
REMARK    1  A    between atoms: C_1  and  C_2
REMARK    2  A    between atoms: C_2  and  C_3
REMARK    3  A    between atoms: C_3  and  C_4
REMARK    4  A    between atoms: C_4  and  C_5
REMARK    5  A    between atoms: C_5  and  C_6
REMARK    6  A    between atoms: C_10  and  O_11
REMARK    7  A    between atoms: O_11  and  C_12
REMARK                            x       y       z     vdW  Elec       q    Type
REMARK                         _______ _______ _______ _____ _____    ______ ____
ROOT
ATOM      1  C   UNL     1       4.175   4.630  18.995  0.00  0.00    +0.000 A 
ATOM      2  N   UNL     1       3.346   5.317  19.722  0.00  0.00    +0.000 NA
ATOM      3  C   UNL     1       2.900   6.573  19.247  0.00  0.00    +0.000 A 
ATOM      4  C   UNL     1       1.989   7.299  20.019  0.00  0.00    +0.000 A 
ATOM      5  C   UNL     1       1.515   8.546  19.591  0.00  0.00    +0.000 A 
ATOM      6  C   UNL     1       1.958   9.073  18.375  0.00  0.00    +0.000 A 
ATOM      7  C   UNL     1       2.862   8.365  17.586  0.00  0.00    +0.000 A 
ATOM      8  C   UNL     1       3.325   7.124  18.026  0.00  0.00    +0.000 A 
ATOM      9  N   UNL     1       4.231   6.354  17.278  0.00  0.00    +0.000 N 
ATOM     10  C   UNL     1       4.814   6.610  16.061  0.00  0.00    +0.000 A 
ATOM     11  C   UNL     1       5.621   5.543  15.735  0.00  0.00    +0.000 A 
ATOM     12  C   UNL     1       5.528   4.608  16.792  0.00  0.00    +0.000 A 
ATOM     13  C   UNL     1       4.661   5.130  17.731  0.00  0.00    +0.000 A 
ENDROOT
BRANCH   5  14
ATOM     14  O   UNL     1       0.626   9.154  20.439  0.00  0.00    +0.000 OA
ATOM     15  C   UNL     1      -0.117  10.244  19.903  0.00  0.00    +0.000 C 
ENDBRANCH   5  14
BRANCH   1  16
ATOM     16  C   UNL     1       4.655   3.284  19.486  0.00  0.00    +0.000 C 
BRANCH  16  17
ATOM     17  C   UNL     1       3.472   2.375  19.804  0.00  0.00    +0.000 C 
BRANCH  17  18
ATOM     18  C   UNL     1       2.691   2.041  18.535  0.00  0.00    +0.000 C 
BRANCH  18  20
ATOM     19  C   UNL     1       0.919   2.976  20.045  0.00  0.00    +0.000 C 
ATOM     20  C   UNL     1       1.197   2.300  18.712  0.00  0.00    +0.000 C 
ENDBRANCH  18  20
ENDBRANCH  17  18
ENDBRANCH  16  17
ENDBRANCH   1  16
TORSDOF 5
ENDMDL
