MODEL 1
REMARK VINA RESULT:      -6.3      0.000      0.000
REMARK  Name = 
REMARK  10 active torsions:
REMARK  status: ('A' for Active; 'I' for Inactive)
REMARK    1  A    between atoms: C_1  and  C_2
REMARK    2  A    between atoms: C_2  and  O_3
REMARK    3  A    between atoms: O_3  and  C_4
REMARK    4  A    between atoms: C_4  and  C_6
REMARK    5  A    between atoms: C_6  and  C_7
REMARK    6  A    between atoms: C_7  and  C_9
REMARK    7  A    between atoms: C_9  and  S_10
REMARK    8  A    between atoms: S_10  and  C_11
REMARK    9  A    between atoms: C_14  and  O_15
REMARK   10  A    between atoms: C_17  and  O_18
REMARK                            x       y       z     vdW  Elec       q    Type
REMARK                         _______ _______ _______ _____ _____    ______ ____
ROOT
ATOM      1  S   UNL     1       3.895   3.497  17.334  0.00  0.00    +0.000 S 
ENDROOT
BRANCH   1   2
ATOM      2  C   UNL     1       3.119   3.168  18.899  0.00  0.00    +0.000 A 
ATOM      3  N   UNL     1       1.810   3.488  19.029  0.00  0.00    +0.000 NA
ATOM      4  N   UNL     1       1.201   3.296  20.230  0.00  0.00    +0.000 NA
ATOM      5  C   UNL     1       1.927   2.777  21.240  0.00  0.00    +0.000 A 
ATOM      6  N   UNL     1       3.210   2.421  21.195  0.00  0.00    +0.000 NA
ATOM      7  C   UNL     1       3.778   2.632  19.996  0.00  0.00    +0.000 A 
BRANCH   5   8
ATOM      8  O   UNL     1       1.274   2.623  22.425  0.00  0.00    +0.000 OA
ATOM      9  H   UNL     1       1.747   1.858  22.794  0.00  0.00    +0.000 HD
ENDBRANCH   5   8
BRANCH   7  10
ATOM     10  O   UNL     1       5.092   2.284  19.968  0.00  0.00    +0.000 OA
ATOM     11  H   UNL     1       5.312   2.314  20.916  0.00  0.00    +0.000 HD
ENDBRANCH   7  10
ENDBRANCH   1   2
BRANCH   1  12
ATOM     12  C   UNL     1       4.183   5.288  17.516  0.00  0.00    +0.000 C 
BRANCH  12  13
ATOM     13  C   UNL     1       5.562   5.583  18.088  0.00  0.00    +0.000 C 
ATOM     14  O   UNL     1       5.869   5.349  19.260  0.00  0.00    +0.000 OA
BRANCH  13  15
ATOM     15  C   UNL     1       6.594   6.119  17.136  0.00  0.00    +0.000 C 
BRANCH  15  16
ATOM     16  C   UNL     1       7.361   5.003  16.506  0.00  0.00    +0.000 C 
ATOM     17  O   UNL     1       8.011   4.178  17.130  0.00  0.00    +0.000 OA
BRANCH  16  18
ATOM     18  O   UNL     1       7.242   5.064  15.152  0.00  0.00    +0.000 OA
BRANCH  18  20
ATOM     19  C   UNL     1       6.589   3.981  13.123  0.00  0.00    +0.000 C 
ATOM     20  C   UNL     1       6.241   4.207  14.583  0.00  0.00    +0.000 C 
ENDBRANCH  18  20
ENDBRANCH  16  18
ENDBRANCH  15  16
ENDBRANCH  13  15
ENDBRANCH  12  13
ENDBRANCH   1  12
TORSDOF 9
ENDMDL
MODEL 2
REMARK VINA RESULT:      -6.2      2.104      2.855
REMARK  Name = 
REMARK  10 active torsions:
REMARK  status: ('A' for Active; 'I' for Inactive)
REMARK    1  A    between atoms: C_1  and  C_2
REMARK    2  A    between atoms: C_2  and  O_3
REMARK    3  A    between atoms: O_3  and  C_4
REMARK    4  A    between atoms: C_4  and  C_6
REMARK    5  A    between atoms: C_6  and  C_7
REMARK    6  A    between atoms: C_7  and  C_9
REMARK    7  A    between atoms: C_9  and  S_10
REMARK    8  A    between atoms: S_10  and  C_11
REMARK    9  A    between atoms: C_14  and  O_15
REMARK   10  A    between atoms: C_17  and  O_18
REMARK                            x       y       z     vdW  Elec       q    Type
REMARK                         _______ _______ _______ _____ _____    ______ ____
ROOT
ATOM      1  S   UNL     1       2.665   6.114  18.075  0.00  0.00    +0.000 S 
ENDROOT
BRANCH   1   2
ATOM      2  C   UNL     1       2.217   4.915  19.309  0.00  0.00    +0.000 A 
ATOM      3  N   UNL     1       2.507   5.206  20.599  0.00  0.00    +0.000 NA
ATOM      4  N   UNL     1       2.223   4.288  21.561  0.00  0.00    +0.000 NA
ATOM      5  C   UNL     1       1.648   3.127  21.188  0.00  0.00    +0.000 A 
ATOM      6  N   UNL     1       1.316   2.767  19.950  0.00  0.00    +0.000 NA
ATOM      7  C   UNL     1       1.617   3.697  19.027  0.00  0.00    +0.000 A 
BRANCH   5   8
ATOM      8  O   UNL     1       1.402   2.236  22.188  0.00  0.00    +0.000 OA
ATOM      9  H   UNL     1       1.007   1.504  21.686  0.00  0.00    +0.000 HD
ENDBRANCH   5   8
BRANCH   7  10
ATOM     10  O   UNL     1       1.293   3.310  17.765  0.00  0.00    +0.000 OA
ATOM     11  H   UNL     1       0.323   3.401  17.786  0.00  0.00    +0.000 HD
ENDBRANCH   7  10
ENDBRANCH   1   2
BRANCH   1  12
ATOM     12  C   UNL     1       4.443   5.740  17.929  0.00  0.00    +0.000 C 
BRANCH  12  13
ATOM     13  C   UNL     1       4.735   4.837  16.739  0.00  0.00    +0.000 C 
ATOM     14  O   UNL     1       4.141   3.774  16.539  0.00  0.00    +0.000 OA
BRANCH  13  15
ATOM     15  C   UNL     1       5.748   5.328  15.743  0.00  0.00    +0.000 C 
BRANCH  15  16
ATOM     16  C   UNL     1       7.106   5.393  16.359  0.00  0.00    +0.000 C 
ATOM     17  O   UNL     1       7.748   4.414  16.711  0.00  0.00    +0.000 OA
BRANCH  16  18
ATOM     18  O   UNL     1       7.499   6.690  16.483  0.00  0.00    +0.000 OA
BRANCH  18  20
ATOM     19  C   UNL     1       7.980   8.634  17.787  0.00  0.00    +0.000 C 
ATOM     20  C   UNL     1       7.729   7.138  17.827  0.00  0.00    +0.000 C 
ENDBRANCH  18  20
ENDBRANCH  16  18
ENDBRANCH  15  16
ENDBRANCH  13  15
ENDBRANCH  12  13
ENDBRANCH   1  12
TORSDOF 9
ENDMDL
MODEL 3
REMARK VINA RESULT:      -6.2      1.989      2.486
REMARK  Name = 
REMARK  10 active torsions:
REMARK  status: ('A' for Active; 'I' for Inactive)
REMARK    1  A    between atoms: C_1  and  C_2
REMARK    2  A    between atoms: C_2  and  O_3
REMARK    3  A    between atoms: O_3  and  C_4
REMARK    4  A    between atoms: C_4  and  C_6
REMARK    5  A    between atoms: C_6  and  C_7
REMARK    6  A    between atoms: C_7  and  C_9
REMARK    7  A    between atoms: C_9  and  S_10
REMARK    8  A    between atoms: S_10  and  C_11
REMARK    9  A    between atoms: C_14  and  O_15
REMARK   10  A    between atoms: C_17  and  O_18
REMARK                            x       y       z     vdW  Elec       q    Type
REMARK                         _______ _______ _______ _____ _____    ______ ____
ROOT
ATOM      1  S   UNL     1       5.806   5.023  19.211  0.00  0.00    +0.000 S 
ENDROOT
BRANCH   1   2
ATOM      2  C   UNL     1       4.369   4.032  18.873  0.00  0.00    +0.000 A 
ATOM      3  N   UNL     1       3.338   4.622  18.225  0.00  0.00    +0.000 NA
ATOM      4  N   UNL     1       2.206   3.905  17.996  0.00  0.00    +0.000 NA
ATOM      5  C   UNL     1       2.164   2.625  18.415  0.00  0.00    +0.000 A 
ATOM      6  N   UNL     1       3.134   1.963  19.044  0.00  0.00    +0.000 NA
ATOM      7  C   UNL     1       4.233   2.706  19.257  0.00  0.00    +0.000 A 
BRANCH   5   8
ATOM      8  O   UNL     1       1.001   1.959  18.178  0.00  0.00    +0.000 OA
ATOM      9  H   UNL     1       1.052   1.839  17.215  0.00  0.00    +0.000 HD
ENDBRANCH   5   8
BRANCH   7  10
ATOM     10  O   UNL     1       5.207   2.026  19.917  0.00  0.00    +0.000 OA
ATOM     11  H   UNL     1       5.527   2.710  20.532  0.00  0.00    +0.000 HD
ENDBRANCH   7  10
ENDBRANCH   1   2
BRANCH   1  12
ATOM     12  C   UNL     1       5.839   6.026  17.689  0.00  0.00    +0.000 C 
BRANCH  12  13
ATOM     13  C   UNL     1       6.553   5.307  16.554  0.00  0.00    +0.000 C 
ATOM     14  O   UNL     1       7.593   4.662  16.714  0.00  0.00    +0.000 OA
BRANCH  13  15
ATOM     15  C   UNL     1       5.895   5.345  15.202  0.00  0.00    +0.000 C 
BRANCH  15  16
ATOM     16  C   UNL     1       6.830   4.855  14.146  0.00  0.00    +0.000 C 
ATOM     17  O   UNL     1       7.853   5.433  13.813  0.00  0.00    +0.000 OA
BRANCH  16  18
ATOM     18  O   UNL     1       6.359   3.696  13.610  0.00  0.00    +0.000 OA
BRANCH  18  20
ATOM     19  C   UNL     1       5.614   2.434  11.722  0.00  0.00    +0.000 C 
ATOM     20  C   UNL     1       6.504   3.572  12.188  0.00  0.00    +0.000 C 
ENDBRANCH  18  20
ENDBRANCH  16  18
ENDBRANCH  15  16
ENDBRANCH  13  15
ENDBRANCH  12  13
ENDBRANCH   1  12
TORSDOF 9
ENDMDL
MODEL 4
REMARK VINA RESULT:      -6.1      1.199      1.622
REMARK  Name = 
REMARK  10 active torsions:
REMARK  status: ('A' for Active; 'I' for Inactive)
REMARK    1  A    between atoms: C_1  and  C_2
REMARK    2  A    between atoms: C_2  and  O_3
REMARK    3  A    between atoms: O_3  and  C_4
REMARK    4  A    between atoms: C_4  and  C_6
REMARK    5  A    between atoms: C_6  and  C_7
REMARK    6  A    between atoms: C_7  and  C_9
REMARK    7  A    between atoms: C_9  and  S_10
REMARK    8  A    between atoms: S_10  and  C_11
REMARK    9  A    between atoms: C_14  and  O_15
REMARK   10  A    between atoms: C_17  and  O_18
REMARK                            x       y       z     vdW  Elec       q    Type
REMARK                         _______ _______ _______ _____ _____    ______ ____
ROOT
ATOM      1  S   UNL     1       4.070   3.399  17.673  0.00  0.00    +0.000 S 
ENDROOT
BRANCH   1   2
ATOM      2  C   UNL     1       3.116   3.116  19.146  0.00  0.00    +0.000 A 
ATOM      3  N   UNL     1       3.790   2.854  20.290  0.00  0.00    +0.000 NA
ATOM      4  N   UNL     1       3.088   2.583  21.422  0.00  0.00    +0.000 NA
ATOM      5  C   UNL     1       1.742   2.602  21.360  0.00  0.00    +0.000 A 
ATOM      6  N   UNL     1       1.000   2.864  20.285  0.00  0.00    +0.000 NA
ATOM      7  C   UNL     1       1.729   3.120  19.186  0.00  0.00    +0.000 A 
BRANCH   5   8
ATOM      8  O   UNL     1       1.088   2.306  22.516  0.00  0.00    +0.000 OA
ATOM      9  H   UNL     1       1.828   2.292  23.146  0.00  0.00    +0.000 HD
ENDBRANCH   5   8
BRANCH   7  10
ATOM     10  O   UNL     1       0.961   3.365  18.091  0.00  0.00    +0.000 OA
ATOM     11  H   UNL     1       1.536   3.975  17.594  0.00  0.00    +0.000 HD
ENDBRANCH   7  10
ENDBRANCH   1   2
BRANCH   1  12
ATOM     12  C   UNL     1       4.270   5.207  17.792  0.00  0.00    +0.000 C 
BRANCH  12  13
ATOM     13  C   UNL     1       5.608   5.588  18.408  0.00  0.00    +0.000 C 
ATOM     14  O   UNL     1       5.917   5.315  19.571  0.00  0.00    +0.000 OA
BRANCH  13  15
ATOM     15  C   UNL     1       6.605   6.264  17.509  0.00  0.00    +0.000 C 
BRANCH  15  16
ATOM     16  C   UNL     1       7.367   5.257  16.713  0.00  0.00    +0.000 C 
ATOM     17  O   UNL     1       7.990   4.325  17.200  0.00  0.00    +0.000 OA
BRANCH  16  18
ATOM     18  O   UNL     1       7.277   5.548  15.386  0.00  0.00    +0.000 OA
BRANCH  18  20
ATOM     19  C   UNL     1       6.275   3.879  14.000  0.00  0.00    +0.000 C 
ATOM     20  C   UNL     1       6.043   5.174  14.756  0.00  0.00    +0.000 C 
ENDBRANCH  18  20
ENDBRANCH  16  18
ENDBRANCH  15  16
ENDBRANCH  13  15
ENDBRANCH  12  13
ENDBRANCH   1  12
TORSDOF 9
ENDMDL
MODEL 5
REMARK VINA RESULT:      -6.1      1.566      1.908
REMARK  Name = 
REMARK  10 active torsions:
REMARK  status: ('A' for Active; 'I' for Inactive)
REMARK    1  A    between atoms: C_1  and  C_2
REMARK    2  A    between atoms: C_2  and  O_3
REMARK    3  A    between atoms: O_3  and  C_4
REMARK    4  A    between atoms: C_4  and  C_6
REMARK    5  A    between atoms: C_6  and  C_7
REMARK    6  A    between atoms: C_7  and  C_9
REMARK    7  A    between atoms: C_9  and  S_10
REMARK    8  A    between atoms: S_10  and  C_11
REMARK    9  A    between atoms: C_14  and  O_15
REMARK   10  A    between atoms: C_17  and  O_18
REMARK                            x       y       z     vdW  Elec       q    Type
REMARK                         _______ _______ _______ _____ _____    ______ ____
ROOT
ATOM      1  S   UNL     1       5.348   5.392  18.681  0.00  0.00    +0.000 S 
ENDROOT
BRANCH   1   2
ATOM      2  C   UNL     1       3.990   4.566  19.477  0.00  0.00    +0.000 A 
ATOM      3  N   UNL     1       2.946   5.326  19.884  0.00  0.00    +0.000 NA
ATOM      4  N   UNL     1       1.914   4.731  20.541  0.00  0.00    +0.000 NA
ATOM      5  C   UNL     1       1.969   3.400  20.746  0.00  0.00    +0.000 A 
ATOM      6  N   UNL     1       2.946   2.577  20.367  0.00  0.00    +0.000 NA
ATOM      7  C   UNL     1       3.949   3.202  19.728  0.00  0.00    +0.000 A 
BRANCH   5   8
ATOM      8  O   UNL     1       0.920   2.859  21.424  0.00  0.00    +0.000 OA
ATOM      9  H   UNL     1       1.188   1.925  21.458  0.00  0.00    +0.000 HD
ENDBRANCH   5   8
BRANCH   7  10
ATOM     10  O   UNL     1       4.949   2.356  19.365  0.00  0.00    +0.000 OA
ATOM     11  H   UNL     1       5.717   2.954  19.391  0.00  0.00    +0.000 HD
ENDBRANCH   7  10
ENDBRANCH   1   2
BRANCH   1  12
ATOM     12  C   UNL     1       4.439   6.245  17.351  0.00  0.00    +0.000 C 
BRANCH  12  13
ATOM     13  C   UNL     1       5.017   5.929  15.980  0.00  0.00    +0.000 C 
ATOM     14  O   UNL     1       5.233   6.793  15.125  0.00  0.00    +0.000 OA
BRANCH  13  15
ATOM     15  C   UNL     1       5.396   4.500  15.713  0.00  0.00    +0.000 C 
BRANCH  15  16
ATOM     16  C   UNL     1       6.794   4.412  15.194  0.00  0.00    +0.000 C 
ATOM     17  O   UNL     1       7.793   4.568  15.881  0.00  0.00    +0.000 OA
BRANCH  16  18
ATOM     18  O   UNL     1       6.778   4.157  13.858  0.00  0.00    +0.000 OA
BRANCH  18  20
ATOM     19  C   UNL     1       5.787   3.103  11.955  0.00  0.00    +0.000 C 
ATOM     20  C   UNL     1       5.531   3.675  13.337  0.00  0.00    +0.000 C 
ENDBRANCH  18  20
ENDBRANCH  16  18
ENDBRANCH  15  16
ENDBRANCH  13  15
ENDBRANCH  12  13
ENDBRANCH   1  12
TORSDOF 9
ENDMDL
MODEL 6
REMARK VINA RESULT:      -6.1      1.406      1.941
REMARK  Name = 
REMARK  10 active torsions:
REMARK  status: ('A' for Active; 'I' for Inactive)
REMARK    1  A    between atoms: C_1  and  C_2
REMARK    2  A    between atoms: C_2  and  O_3
REMARK    3  A    between atoms: O_3  and  C_4
REMARK    4  A    between atoms: C_4  and  C_6
REMARK    5  A    between atoms: C_6  and  C_7
REMARK    6  A    between atoms: C_7  and  C_9
REMARK    7  A    between atoms: C_9  and  S_10
REMARK    8  A    between atoms: S_10  and  C_11
REMARK    9  A    between atoms: C_14  and  O_15
REMARK   10  A    between atoms: C_17  and  O_18
REMARK                            x       y       z     vdW  Elec       q    Type
REMARK                         _______ _______ _______ _____ _____    ______ ____
ROOT
ATOM      1  S   UNL     1       4.055   4.909  17.488  0.00  0.00    +0.000 S 
ENDROOT
BRANCH   1   2
ATOM      2  C   UNL     1       3.334   4.216  18.957  0.00  0.00    +0.000 A 
ATOM      3  N   UNL     1       2.683   5.058  19.793  0.00  0.00    +0.000 NA
ATOM      4  N   UNL     1       2.164   4.568  20.951  0.00  0.00    +0.000 NA
ATOM      5  C   UNL     1       2.308   3.253  21.210  0.00  0.00    +0.000 A 
ATOM      6  N   UNL     1       2.917   2.354  20.439  0.00  0.00    +0.000 NA
ATOM      7  C   UNL     1       3.422   2.877  19.309  0.00  0.00    +0.000 A 
BRANCH   5   8
ATOM      8  O   UNL     1       1.786   2.818  22.390  0.00  0.00    +0.000 OA
ATOM      9  H   UNL     1       2.057   1.885  22.376  0.00  0.00    +0.000 HD
ENDBRANCH   5   8
BRANCH   7  10
ATOM     10  O   UNL     1       4.058   1.954  18.541  0.00  0.00    +0.000 OA
ATOM     11  H   UNL     1       4.730   2.507  18.104  0.00  0.00    +0.000 HD
ENDBRANCH   7  10
ENDBRANCH   1   2
BRANCH   1  12
ATOM     12  C   UNL     1       5.812   4.869  17.972  0.00  0.00    +0.000 C 
BRANCH  12  13
ATOM     13  C   UNL     1       6.732   4.860  16.760  0.00  0.00    +0.000 C 
ATOM     14  O   UNL     1       7.874   4.393  16.784  0.00  0.00    +0.000 OA
BRANCH  13  15
ATOM     15  C   UNL     1       6.166   5.386  15.471  0.00  0.00    +0.000 C 
BRANCH  15  16
ATOM     16  C   UNL     1       6.949   4.882  14.304  0.00  0.00    +0.000 C 
ATOM     17  O   UNL     1       7.976   5.399  13.890  0.00  0.00    +0.000 OA
BRANCH  16  18
ATOM     18  O   UNL     1       6.339   3.787  13.774  0.00  0.00    +0.000 OA
BRANCH  18  20
ATOM     19  C   UNL     1       5.217   2.957  11.833  0.00  0.00    +0.000 C 
ATOM     20  C   UNL     1       6.471   3.637  12.352  0.00  0.00    +0.000 C 
ENDBRANCH  18  20
ENDBRANCH  16  18
ENDBRANCH  15  16
ENDBRANCH  13  15
ENDBRANCH  12  13
ENDBRANCH   1  12
TORSDOF 9
ENDMDL
MODEL 7
REMARK VINA RESULT:      -6.1      2.529      3.646
REMARK  Name = 
REMARK  10 active torsions:
REMARK  status: ('A' for Active; 'I' for Inactive)
REMARK    1  A    between atoms: C_1  and  C_2
REMARK    2  A    between atoms: C_2  and  O_3
REMARK    3  A    between atoms: O_3  and  C_4
REMARK    4  A    between atoms: C_4  and  C_6
REMARK    5  A    between atoms: C_6  and  C_7
REMARK    6  A    between atoms: C_7  and  C_9
REMARK    7  A    between atoms: C_9  and  S_10
REMARK    8  A    between atoms: S_10  and  C_11
REMARK    9  A    between atoms: C_14  and  O_15
REMARK   10  A    between atoms: C_17  and  O_18
REMARK                            x       y       z     vdW  Elec       q    Type
REMARK                         _______ _______ _______ _____ _____    ______ ____
ROOT
ATOM      1  S   UNL     1       5.154   4.755  19.335  0.00  0.00    +0.000 S 
ENDROOT
BRANCH   1   2
ATOM      2  C   UNL     1       3.628   3.868  19.126  0.00  0.00    +0.000 A 
ATOM      3  N   UNL     1       2.501   4.594  18.937  0.00  0.00    +0.000 NA
ATOM      4  N   UNL     1       1.310   3.946  18.824  0.00  0.00    +0.000 NA
ATOM      5  C   UNL     1       1.306   2.600  18.891  0.00  0.00    +0.000 A 
ATOM      6  N   UNL     1       2.364   1.809  19.058  0.00  0.00    +0.000 NA
ATOM      7  C   UNL     1       3.520   2.485  19.172  0.00  0.00    +0.000 A 
BRANCH   5   8
ATOM      8  O   UNL     1       0.086   2.004  18.791  0.00  0.00    +0.000 OA
ATOM      9  H   UNL     1       0.320   1.079  18.978  0.00  0.00    +0.000 HD
ENDBRANCH   5   8
BRANCH   7  10
ATOM     10  O   UNL     1       4.590   1.669  19.363  0.00  0.00    +0.000 OA
ATOM     11  H   UNL     1       5.276   2.141  18.858  0.00  0.00    +0.000 HD
ENDBRANCH   7  10
ENDBRANCH   1   2
BRANCH   1  12
ATOM     12  C   UNL     1       5.819   4.604  17.644  0.00  0.00    +0.000 C 
BRANCH  12  13
ATOM     13  C   UNL     1       7.299   4.951  17.586  0.00  0.00    +0.000 C 
ATOM     14  O   UNL     1       8.074   4.463  16.759  0.00  0.00    +0.000 OA
BRANCH  13  15
ATOM     15  C   UNL     1       7.793   5.994  18.550  0.00  0.00    +0.000 C 
BRANCH  15  16
ATOM     16  C   UNL     1       7.743   7.351  17.931  0.00  0.00    +0.000 C 
ATOM     17  O   UNL     1       7.088   7.629  16.937  0.00  0.00    +0.000 OA
BRANCH  16  18
ATOM     18  O   UNL     1       8.542   8.208  18.623  0.00  0.00    +0.000 OA
BRANCH  18  20
ATOM     19  C   UNL     1       9.229  10.417  19.222  0.00  0.00    +0.000 C 
ATOM     20  C   UNL     1       8.499   9.575  18.192  0.00  0.00    +0.000 C 
ENDBRANCH  18  20
ENDBRANCH  16  18
ENDBRANCH  15  16
ENDBRANCH  13  15
ENDBRANCH  12  13
ENDBRANCH   1  12
TORSDOF 9
ENDMDL
MODEL 8
REMARK VINA RESULT:      -6.1      3.124      6.304
REMARK  Name = 
REMARK  10 active torsions:
REMARK  status: ('A' for Active; 'I' for Inactive)
REMARK    1  A    between atoms: C_1  and  C_2
REMARK    2  A    between atoms: C_2  and  O_3
REMARK    3  A    between atoms: O_3  and  C_4
REMARK    4  A    between atoms: C_4  and  C_6
REMARK    5  A    between atoms: C_6  and  C_7
REMARK    6  A    between atoms: C_7  and  C_9
REMARK    7  A    between atoms: C_9  and  S_10
REMARK    8  A    between atoms: S_10  and  C_11
REMARK    9  A    between atoms: C_14  and  O_15
REMARK   10  A    between atoms: C_17  and  O_18
REMARK                            x       y       z     vdW  Elec       q    Type
REMARK                         _______ _______ _______ _____ _____    ______ ____
ROOT
ATOM      1  S   UNL     1       6.013   5.365  18.962  0.00  0.00    +0.000 S 
ENDROOT
BRANCH   1   2
ATOM      2  C   UNL     1       6.212   5.013  17.232  0.00  0.00    +0.000 A 
ATOM      3  N   UNL     1       5.563   3.936  16.732  0.00  0.00    +0.000 NA
ATOM      4  N   UNL     1       5.735   3.611  15.422  0.00  0.00    +0.000 NA
ATOM      5  C   UNL     1       6.538   4.389  14.671  0.00  0.00    +0.000 A 
ATOM      6  N   UNL     1       7.200   5.472  15.075  0.00  0.00    +0.000 NA
ATOM      7  C   UNL     1       7.010   5.757  16.374  0.00  0.00    +0.000 A 
BRANCH   5   8
ATOM      8  O   UNL     1       6.691   4.009  13.372  0.00  0.00    +0.000 OA
ATOM      9  H   UNL     1       7.125   4.796  13.002  0.00  0.00    +0.000 HD
ENDBRANCH   5   8
BRANCH   7  10
ATOM     10  O   UNL     1       7.706   6.852  16.780  0.00  0.00    +0.000 OA
ATOM     11  H   UNL     1       7.568   6.813  17.744  0.00  0.00    +0.000 HD
ENDBRANCH   7  10
ENDBRANCH   1   2
BRANCH   1  12
ATOM     12  C   UNL     1       4.422   4.523  19.255  0.00  0.00    +0.000 C 
BRANCH  12  13
ATOM     13  C   UNL     1       3.241   5.460  19.053  0.00  0.00    +0.000 C 
ATOM     14  O   UNL     1       3.044   6.456  19.754  0.00  0.00    +0.000 OA
BRANCH  13  15
ATOM     15  C   UNL     1       2.333   5.171  17.891  0.00  0.00    +0.000 C 
BRANCH  15  16
ATOM     16  C   UNL     1       1.883   3.747  17.914  0.00  0.00    +0.000 C 
ATOM     17  O   UNL     1       2.218   2.907  17.092  0.00  0.00    +0.000 OA
BRANCH  16  18
ATOM     18  O   UNL     1       1.040   3.544  18.962  0.00  0.00    +0.000 OA
BRANCH  18  20
ATOM     19  C   UNL     1       1.378   2.862  21.228  0.00  0.00    +0.000 C 
ATOM     20  C   UNL     1       1.340   2.404  19.782  0.00  0.00    +0.000 C 
ENDBRANCH  18  20
ENDBRANCH  16  18
ENDBRANCH  15  16
ENDBRANCH  13  15
ENDBRANCH  12  13
ENDBRANCH   1  12
TORSDOF 9
ENDMDL
MODEL 9
REMARK VINA RESULT:      -6.1      1.904      2.003
REMARK  Name = 
REMARK  10 active torsions:
REMARK  status: ('A' for Active; 'I' for Inactive)
REMARK    1  A    between atoms: C_1  and  C_2
REMARK    2  A    between atoms: C_2  and  O_3
REMARK    3  A    between atoms: O_3  and  C_4
REMARK    4  A    between atoms: C_4  and  C_6
REMARK    5  A    between atoms: C_6  and  C_7
REMARK    6  A    between atoms: C_7  and  C_9
REMARK    7  A    between atoms: C_9  and  S_10
REMARK    8  A    between atoms: S_10  and  C_11
REMARK    9  A    between atoms: C_14  and  O_15
REMARK   10  A    between atoms: C_17  and  O_18
REMARK                            x       y       z     vdW  Elec       q    Type
REMARK                         _______ _______ _______ _____ _____    ______ ____
ROOT
ATOM      1  S   UNL     1       5.102   5.081  18.841  0.00  0.00    +0.000 S 
ENDROOT
BRANCH   1   2
ATOM      2  C   UNL     1       3.698   4.005  18.666  0.00  0.00    +0.000 A 
ATOM      3  N   UNL     1       2.584   4.516  18.091  0.00  0.00    +0.000 NA
ATOM      4  N   UNL     1       1.476   3.734  17.989  0.00  0.00    +0.000 NA
ATOM      5  C   UNL     1       1.541   2.471  18.454  0.00  0.00    +0.000 A 
ATOM      6  N   UNL     1       2.596   1.884  19.017  0.00  0.00    +0.000 NA
ATOM      7  C   UNL     1       3.667   2.690  19.106  0.00  0.00    +0.000 A 
BRANCH   5   8
ATOM      8  O   UNL     1       0.399   1.737  18.344  0.00  0.00    +0.000 OA
ATOM      9  H   UNL     1       0.131   1.676  19.276  0.00  0.00    +0.000 HD
ENDBRANCH   5   8
BRANCH   7  10
ATOM     10  O   UNL     1       4.731   2.087  19.700  0.00  0.00    +0.000 OA
ATOM     11  H   UNL     1       4.300   1.661  20.463  0.00  0.00    +0.000 HD
ENDBRANCH   7  10
ENDBRANCH   1   2
BRANCH   1  12
ATOM     12  C   UNL     1       4.718   6.286  17.528  0.00  0.00    +0.000 C 
BRANCH  12  13
ATOM     13  C   UNL     1       5.949   6.639  16.707  0.00  0.00    +0.000 C 
ATOM     14  O   UNL     1       6.794   7.459  17.077  0.00  0.00    +0.000 OA
BRANCH  13  15
ATOM     15  C   UNL     1       6.153   5.882  15.424  0.00  0.00    +0.000 C 
BRANCH  15  16
ATOM     16  C   UNL     1       6.877   4.601  15.675  0.00  0.00    +0.000 C 
ATOM     17  O   UNL     1       7.847   4.493  16.411  0.00  0.00    +0.000 OA
BRANCH  16  18
ATOM     18  O   UNL     1       6.310   3.597  14.953  0.00  0.00    +0.000 OA
BRANCH  18  20
ATOM     19  C   UNL     1       6.144   3.445  12.573  0.00  0.00    +0.000 C 
ATOM     20  C   UNL     1       5.518   4.017  13.832  0.00  0.00    +0.000 C 
ENDBRANCH  18  20
ENDBRANCH  16  18
ENDBRANCH  15  16
ENDBRANCH  13  15
ENDBRANCH  12  13
ENDBRANCH   1  12
TORSDOF 9
ENDMDL
