MODEL 1
REMARK VINA RESULT:      -7.9      0.000      0.000
REMARK  Name = 
REMARK  7 active torsions:
REMARK  status: ('A' for Active; 'I' for Inactive)
REMARK    1  A    between atoms: C_1  and  O_2
REMARK    2  A    between atoms: O_2  and  C_3
REMARK    3  A    between atoms: C_6  and  N_7
REMARK    4  A    between atoms: N_10  and  C_11
REMARK    5  A    between atoms: C_13  and  C_14
REMARK    6  A    between atoms: C_25  and  O_26
REMARK    7  A    between atoms: O_26  and  C_27
REMARK                            x       y       z     vdW  Elec       q    Type
REMARK                         _______ _______ _______ _____ _____    ______ ____
ROOT
ATOM      1  C   UNL     1       6.376   6.307  16.625  0.00  0.00    +0.000 A 
ATOM      2  C   UNL     1       5.407   5.830  17.531  0.00  0.00    +0.000 A 
ATOM      3  C   UNL     1       5.005   4.488  17.541  0.00  0.00    +0.000 A 
ATOM      4  C   UNL     1       5.577   3.626  16.598  0.00  0.00    +0.000 A 
ATOM      5  C   UNL     1       6.527   4.090  15.682  0.00  0.00    +0.000 A 
ATOM      6  C   UNL     1       6.940   5.426  15.690  0.00  0.00    +0.000 A 
ENDROOT
BRANCH   3   7
ATOM      7  C   UNL     1       4.031   3.968  18.495  0.00  0.00    +0.000 A 
ATOM      8  C   UNL     1       2.654   3.999  18.388  0.00  0.00    +0.000 A 
ATOM      9  N   UNL     1       2.188   3.448  19.556  0.00  0.00    +0.000 N 
ATOM     10  C   UNL     1       0.882   3.256  19.993  0.00  0.00    +0.000 A 
ATOM     11  C   UNL     1       0.671   2.706  21.194  0.00  0.00    +0.000 A 
ATOM     12  C   UNL     1       1.905   2.346  21.948  0.00  0.00    +0.000 A 
ATOM     13  N   UNL     1       3.130   2.510  21.551  0.00  0.00    +0.000 NA
ATOM     14  C   UNL     1       3.288   3.080  20.320  0.00  0.00    +0.000 A 
ATOM     15  N   UNL     1       4.407   3.382  19.688  0.00  0.00    +0.000 NA
ENDBRANCH   3   7
BRANCH   1  19
ATOM     16  N   UNL     1       7.936   9.465  17.477  0.00  0.00    +0.000 N 
ATOM     17  C   UNL     1       7.708   8.102  17.561  0.00  0.00    +0.000 C 
ATOM     18  O   UNL     1       8.293   7.341  18.323  0.00  0.00    +0.000 OA
ATOM     19  N   UNL     1       6.734   7.679  16.669  0.00  0.00    +0.000 N 
ATOM     20  H   UNL     1       7.176  10.018  17.108  0.00  0.00    +0.000 HD
ATOM     21  H   UNL     1       6.696   8.181  15.794  0.00  0.00    +0.000 HD
BRANCH  16  25
ATOM     22  C   UNL     1      10.843  11.637  19.655  0.00  0.00    +0.000 A 
ATOM     23  C   UNL     1       9.871  10.908  20.331  0.00  0.00    +0.000 A 
ATOM     24  C   UNL     1       8.935  10.153  19.627  0.00  0.00    +0.000 A 
ATOM     25  C   UNL     1       8.927  10.143  18.229  0.00  0.00    +0.000 A 
ATOM     26  C   UNL     1       9.926  10.846  17.549  0.00  0.00    +0.000 A 
ATOM     27  C   UNL     1      10.875  11.600  18.260  0.00  0.00    +0.000 A 
BRANCH  22  29
ATOM     28  C   UNL     1      12.280  13.504  19.856  0.00  0.00    +0.000 C 
ATOM     29  O   UNL     1      11.660  12.378  20.460  0.00  0.00    +0.000 OA
ENDBRANCH  22  29
ENDBRANCH  16  25
ENDBRANCH   1  19
BRANCH   6  30
ATOM     30  O   UNL     1       7.862   5.753  14.732  0.00  0.00    +0.000 OA
ATOM     31  C   UNL     1       7.701   5.125  13.461  0.00  0.00    +0.000 C 
ENDBRANCH   6  30
TORSDOF 5
ENDMDL
MODEL 2
REMARK VINA RESULT:      -7.7      5.397      8.221
REMARK  Name = 
REMARK  7 active torsions:
REMARK  status: ('A' for Active; 'I' for Inactive)
REMARK    1  A    between atoms: C_1  and  O_2
REMARK    2  A    between atoms: O_2  and  C_3
REMARK    3  A    between atoms: C_6  and  N_7
REMARK    4  A    between atoms: N_10  and  C_11
REMARK    5  A    between atoms: C_13  and  C_14
REMARK    6  A    between atoms: C_25  and  O_26
REMARK    7  A    between atoms: O_26  and  C_27
REMARK                            x       y       z     vdW  Elec       q    Type
REMARK                         _______ _______ _______ _____ _____    ______ ____
ROOT
ATOM      1  C   UNL     1       3.579   4.734  19.318  0.00  0.00    +0.000 A 
ATOM      2  C   UNL     1       4.312   4.953  18.133  0.00  0.00    +0.000 A 
ATOM      3  C   UNL     1       4.597   3.913  17.240  0.00  0.00    +0.000 A 
ATOM      4  C   UNL     1       4.155   2.627  17.570  0.00  0.00    +0.000 A 
ATOM      5  C   UNL     1       3.442   2.391  18.751  0.00  0.00    +0.000 A 
ATOM      6  C   UNL     1       3.142   3.437  19.629  0.00  0.00    +0.000 A 
ENDROOT
BRANCH   3   7
ATOM      7  C   UNL     1       5.322   4.127  15.992  0.00  0.00    +0.000 A 
ATOM      8  C   UNL     1       5.087   3.523  14.773  0.00  0.00    +0.000 A 
ATOM      9  N   UNL     1       6.064   4.002  13.937  0.00  0.00    +0.000 N 
ATOM     10  C   UNL     1       6.320   3.709  12.601  0.00  0.00    +0.000 A 
ATOM     11  C   UNL     1       7.356   4.297  11.991  0.00  0.00    +0.000 A 
ATOM     12  C   UNL     1       8.140   5.234  12.844  0.00  0.00    +0.000 A 
ATOM     13  N   UNL     1       7.910   5.526  14.087  0.00  0.00    +0.000 NA
ATOM     14  C   UNL     1       6.844   4.894  14.663  0.00  0.00    +0.000 A 
ATOM     15  N   UNL     1       6.401   4.984  15.903  0.00  0.00    +0.000 NA
ENDBRANCH   3   7
BRANCH   1  19
ATOM     16  N   UNL     1       2.254   7.779  20.769  0.00  0.00    +0.000 N 
ATOM     17  C   UNL     1       2.374   6.774  19.824  0.00  0.00    +0.000 C 
ATOM     18  O   UNL     1       1.717   6.705  18.791  0.00  0.00    +0.000 OA
ATOM     19  N   UNL     1       3.328   5.832  20.179  0.00  0.00    +0.000 N 
ATOM     20  H   UNL     1       3.062   7.931  21.356  0.00  0.00    +0.000 HD
ATOM     21  H   UNL     1       3.421   5.658  21.168  0.00  0.00    +0.000 HD
BRANCH  16  25
ATOM     22  C   UNL     1      -0.671  10.816  20.409  0.00  0.00    +0.000 A 
ATOM     23  C   UNL     1      -0.428  10.229  21.647  0.00  0.00    +0.000 A 
ATOM     24  C   UNL     1       0.563   9.259  21.787  0.00  0.00    +0.000 A 
ATOM     25  C   UNL     1       1.306   8.827  20.685  0.00  0.00    +0.000 A 
ATOM     26  C   UNL     1       1.087   9.441  19.448  0.00  0.00    +0.000 A 
ATOM     27  C   UNL     1       0.094  10.426  19.308  0.00  0.00    +0.000 A 
BRANCH  22  29
ATOM     28  C   UNL     1      -2.118  12.205  21.660  0.00  0.00    +0.000 C 
ATOM     29  O   UNL     1      -1.706  11.707  20.396  0.00  0.00    +0.000 OA
ENDBRANCH  22  29
ENDBRANCH  16  25
ENDBRANCH   1  19
BRANCH   6  30
ATOM     30  O   UNL     1       2.453   3.069  20.754  0.00  0.00    +0.000 OA
ATOM     31  C   UNL     1       1.035   2.981  20.624  0.00  0.00    +0.000 C 
ENDBRANCH   6  30
TORSDOF 5
ENDMDL
MODEL 3
REMARK VINA RESULT:      -7.6      6.880      8.247
REMARK  Name = 
REMARK  7 active torsions:
REMARK  status: ('A' for Active; 'I' for Inactive)
REMARK    1  A    between atoms: C_1  and  O_2
REMARK    2  A    between atoms: O_2  and  C_3
REMARK    3  A    between atoms: C_6  and  N_7
REMARK    4  A    between atoms: N_10  and  C_11
REMARK    5  A    between atoms: C_13  and  C_14
REMARK    6  A    between atoms: C_25  and  O_26
REMARK    7  A    between atoms: O_26  and  C_27
REMARK                            x       y       z     vdW  Elec       q    Type
REMARK                         _______ _______ _______ _____ _____    ______ ____
ROOT
ATOM      1  C   UNL     1       1.015   9.674  19.024  0.00  0.00    +0.000 A 
ATOM      2  C   UNL     1       1.886   8.883  18.248  0.00  0.00    +0.000 A 
ATOM      3  C   UNL     1       2.413   7.678  18.728  0.00  0.00    +0.000 A 
ATOM      4  C   UNL     1       2.069   7.284  20.027  0.00  0.00    +0.000 A 
ATOM      5  C   UNL     1       1.219   8.068  20.815  0.00  0.00    +0.000 A 
ATOM      6  C   UNL     1       0.680   9.260  20.323  0.00  0.00    +0.000 A 
ENDROOT
BRANCH   3   7
ATOM      7  C   UNL     1       3.286   6.828  17.926  0.00  0.00    +0.000 A 
ATOM      8  C   UNL     1       3.296   5.448  17.875  0.00  0.00    +0.000 A 
ATOM      9  N   UNL     1       4.331   5.124  17.033  0.00  0.00    +0.000 N 
ATOM     10  C   UNL     1       4.809   3.877  16.643  0.00  0.00    +0.000 A 
ATOM     11  C   UNL     1       5.857   3.811  15.814  0.00  0.00    +0.000 A 
ATOM     12  C   UNL     1       6.406   5.128  15.385  0.00  0.00    +0.000 A 
ATOM     13  N   UNL     1       5.968   6.299  15.732  0.00  0.00    +0.000 NA
ATOM     14  C   UNL     1       4.899   6.310  16.584  0.00  0.00    +0.000 A 
ATOM     15  N   UNL     1       4.273   7.346  17.110  0.00  0.00    +0.000 NA
ENDBRANCH   3   7
BRANCH   1  19
ATOM     16  N   UNL     1       0.433  13.177  18.299  0.00  0.00    +0.000 N 
ATOM     17  C   UNL     1       1.022  12.095  18.932  0.00  0.00    +0.000 C 
ATOM     18  O   UNL     1       1.891  12.178  19.793  0.00  0.00    +0.000 OA
ATOM     19  N   UNL     1       0.520  10.885  18.476  0.00  0.00    +0.000 N 
ATOM     20  H   UNL     1      -0.483  13.013  17.907  0.00  0.00    +0.000 HD
ATOM     21  H   UNL     1       0.254  10.862  17.504  0.00  0.00    +0.000 HD
BRANCH  16  25
ATOM     22  C   UNL     1       1.511  17.180  19.147  0.00  0.00    +0.000 A 
ATOM     23  C   UNL     1       2.481  16.272  18.737  0.00  0.00    +0.000 A 
ATOM     24  C   UNL     1       2.132  14.962  18.413  0.00  0.00    +0.000 A 
ATOM     25  C   UNL     1       0.810  14.522  18.529  0.00  0.00    +0.000 A 
ATOM     26  C   UNL     1      -0.171  15.444  18.906  0.00  0.00    +0.000 A 
ATOM     27  C   UNL     1       0.180  16.767  19.224  0.00  0.00    +0.000 A 
BRANCH  22  29
ATOM     28  C   UNL     1       2.517  18.533  20.805  0.00  0.00    +0.000 C 
ATOM     29  O   UNL     1       1.993  18.411  19.490  0.00  0.00    +0.000 OA
ENDBRANCH  22  29
ENDBRANCH  16  25
ENDBRANCH   1  19
BRANCH   6  30
ATOM     30  O   UNL     1      -0.123   9.938  21.200  0.00  0.00    +0.000 OA
ATOM     31  C   UNL     1       0.027   9.604  22.579  0.00  0.00    +0.000 C 
ENDBRANCH   6  30
TORSDOF 5
ENDMDL
MODEL 4
REMARK VINA RESULT:      -7.6      5.465      8.300
REMARK  Name = 
REMARK  7 active torsions:
REMARK  status: ('A' for Active; 'I' for Inactive)
REMARK    1  A    between atoms: C_1  and  O_2
REMARK    2  A    between atoms: O_2  and  C_3
REMARK    3  A    between atoms: C_6  and  N_7
REMARK    4  A    between atoms: N_10  and  C_11
REMARK    5  A    between atoms: C_13  and  C_14
REMARK    6  A    between atoms: C_25  and  O_26
REMARK    7  A    between atoms: O_26  and  C_27
REMARK                            x       y       z     vdW  Elec       q    Type
REMARK                         _______ _______ _______ _____ _____    ______ ____
ROOT
ATOM      1  C   UNL     1       3.385   4.787  19.212  0.00  0.00    +0.000 A 
ATOM      2  C   UNL     1       4.184   4.994  18.070  0.00  0.00    +0.000 A 
ATOM      3  C   UNL     1       4.404   3.979  17.131  0.00  0.00    +0.000 A 
ATOM      4  C   UNL     1       3.825   2.727  17.371  0.00  0.00    +0.000 A 
ATOM      5  C   UNL     1       3.044   2.502  18.509  0.00  0.00    +0.000 A 
ATOM      6  C   UNL     1       2.811   3.526  19.433  0.00  0.00    +0.000 A 
ENDROOT
BRANCH   3   7
ATOM      7  C   UNL     1       5.198   4.185  15.924  0.00  0.00    +0.000 A 
ATOM      8  C   UNL     1       5.013   3.596  14.688  0.00  0.00    +0.000 A 
ATOM      9  N   UNL     1       6.044   4.058  13.909  0.00  0.00    +0.000 N 
ATOM     10  C   UNL     1       6.362   3.769  12.586  0.00  0.00    +0.000 A 
ATOM     11  C   UNL     1       7.442   4.336  12.036  0.00  0.00    +0.000 A 
ATOM     12  C   UNL     1       8.203   5.247  12.937  0.00  0.00    +0.000 A 
ATOM     13  N   UNL     1       7.915   5.535  14.169  0.00  0.00    +0.000 NA
ATOM     14  C   UNL     1       6.805   4.925  14.683  0.00  0.00    +0.000 A 
ATOM     15  N   UNL     1       6.301   5.016  15.899  0.00  0.00    +0.000 NA
ENDBRANCH   3   7
BRANCH   1  19
ATOM     16  N   UNL     1       2.155   7.759  20.883  0.00  0.00    +0.000 N 
ATOM     17  C   UNL     1       2.191   6.778  19.906  0.00  0.00    +0.000 C 
ATOM     18  O   UNL     1       1.420   6.711  18.954  0.00  0.00    +0.000 OA
ATOM     19  N   UNL     1       3.205   5.859  20.124  0.00  0.00    +0.000 N 
ATOM     20  H   UNL     1       3.020   7.922  21.376  0.00  0.00    +0.000 HD
ATOM     21  H   UNL     1       3.418   5.665  21.091  0.00  0.00    +0.000 HD
BRANCH  16  25
ATOM     22  C   UNL     1      -0.687  10.882  21.165  0.00  0.00    +0.000 A 
ATOM     23  C   UNL     1       0.015  10.687  19.980  0.00  0.00    +0.000 A 
ATOM     24  C   UNL     1       0.922   9.636  19.860  0.00  0.00    +0.000 A 
ATOM     25  C   UNL     1       1.174   8.779  20.935  0.00  0.00    +0.000 A 
ATOM     26  C   UNL     1       0.443   8.952  22.114  0.00  0.00    +0.000 A 
ATOM     27  C   UNL     1      -0.478  10.007  22.233  0.00  0.00    +0.000 A 
BRANCH  22  29
ATOM     28  C   UNL     1      -1.721  12.586  22.436  0.00  0.00    +0.000 C 
ATOM     29  O   UNL     1      -1.498  11.981  21.172  0.00  0.00    +0.000 OA
ENDBRANCH  22  29
ENDBRANCH  16  25
ENDBRANCH   1  19
BRANCH   6  30
ATOM     30  O   UNL     1       2.042   3.170  20.510  0.00  0.00    +0.000 OA
ATOM     31  C   UNL     1       2.721   2.509  21.577  0.00  0.00    +0.000 C 
ENDBRANCH   6  30
TORSDOF 5
ENDMDL
MODEL 5
REMARK VINA RESULT:      -7.4      8.227     10.161
REMARK  Name = 
REMARK  7 active torsions:
REMARK  status: ('A' for Active; 'I' for Inactive)
REMARK    1  A    between atoms: C_1  and  O_2
REMARK    2  A    between atoms: O_2  and  C_3
REMARK    3  A    between atoms: C_6  and  N_7
REMARK    4  A    between atoms: N_10  and  C_11
REMARK    5  A    between atoms: C_13  and  C_14
REMARK    6  A    between atoms: C_25  and  O_26
REMARK    7  A    between atoms: O_26  and  C_27
REMARK                            x       y       z     vdW  Elec       q    Type
REMARK                         _______ _______ _______ _____ _____    ______ ____
ROOT
ATOM      1  C   UNL     1       1.049  10.341  20.213  0.00  0.00    +0.000 A 
ATOM      2  C   UNL     1       1.386   9.005  20.508  0.00  0.00    +0.000 A 
ATOM      3  C   UNL     1       1.876   8.134  19.527  0.00  0.00    +0.000 A 
ATOM      4  C   UNL     1       2.000   8.622  18.221  0.00  0.00    +0.000 A 
ATOM      5  C   UNL     1       1.652   9.941  17.909  0.00  0.00    +0.000 A 
ATOM      6  C   UNL     1       1.182  10.812  18.897  0.00  0.00    +0.000 A 
ENDROOT
BRANCH   3   7
ATOM      7  C   UNL     1       2.266   6.759  19.821  0.00  0.00    +0.000 A 
ATOM      8  C   UNL     1       3.243   6.013  19.194  0.00  0.00    +0.000 A 
ATOM      9  N   UNL     1       3.185   4.773  19.781  0.00  0.00    +0.000 N 
ATOM     10  C   UNL     1       3.925   3.625  19.518  0.00  0.00    +0.000 A 
ATOM     11  C   UNL     1       3.674   2.513  20.219  0.00  0.00    +0.000 A 
ATOM     12  C   UNL     1       2.596   2.641  21.240  0.00  0.00    +0.000 A 
ATOM     13  N   UNL     1       1.903   3.707  21.505  0.00  0.00    +0.000 NA
ATOM     14  C   UNL     1       2.196   4.812  20.756  0.00  0.00    +0.000 A 
ATOM     15  N   UNL     1       1.638   6.007  20.795  0.00  0.00    +0.000 NA
ENDBRANCH   3   7
BRANCH   1  19
ATOM     16  N   UNL     1      -1.109  12.300  22.367  0.00  0.00    +0.000 N 
ATOM     17  C   UNL     1      -0.794  11.485  21.293  0.00  0.00    +0.000 C 
ATOM     18  O   UNL     1      -1.602  11.075  20.466  0.00  0.00    +0.000 OA
ATOM     19  N   UNL     1       0.556  11.168  21.254  0.00  0.00    +0.000 N 
ATOM     20  H   UNL     1      -0.349  12.851  22.741  0.00  0.00    +0.000 HD
ATOM     21  H   UNL     1       1.009  11.079  22.151  0.00  0.00    +0.000 HD
BRANCH  16  25
ATOM     22  C   UNL     1      -4.991  13.590  23.451  0.00  0.00    +0.000 A 
ATOM     23  C   UNL     1      -4.347  14.166  22.361  0.00  0.00    +0.000 A 
ATOM     24  C   UNL     1      -3.087  13.720  21.967  0.00  0.00    +0.000 A 
ATOM     25  C   UNL     1      -2.427  12.714  22.679  0.00  0.00    +0.000 A 
ATOM     26  C   UNL     1      -3.088  12.110  23.751  0.00  0.00    +0.000 A 
ATOM     27  C   UNL     1      -4.363  12.553  24.143  0.00  0.00    +0.000 A 
BRANCH  22  29
ATOM     28  C   UNL     1      -7.248  13.258  24.072  0.00  0.00    +0.000 C 
ATOM     29  O   UNL     1      -6.192  14.157  23.766  0.00  0.00    +0.000 OA
ENDBRANCH  22  29
ENDBRANCH  16  25
ENDBRANCH   1  19
BRANCH   6  30
ATOM     30  O   UNL     1       0.864  12.069  18.457  0.00  0.00    +0.000 OA
ATOM     31  C   UNL     1       1.941  13.002  18.382  0.00  0.00    +0.000 C 
ENDBRANCH   6  30
TORSDOF 5
ENDMDL
MODEL 6
REMARK VINA RESULT:      -7.4      9.835     11.644
REMARK  Name = 
REMARK  7 active torsions:
REMARK  status: ('A' for Active; 'I' for Inactive)
REMARK    1  A    between atoms: C_1  and  O_2
REMARK    2  A    between atoms: O_2  and  C_3
REMARK    3  A    between atoms: C_6  and  N_7
REMARK    4  A    between atoms: N_10  and  C_11
REMARK    5  A    between atoms: C_13  and  C_14
REMARK    6  A    between atoms: C_25  and  O_26
REMARK    7  A    between atoms: O_26  and  C_27
REMARK                            x       y       z     vdW  Elec       q    Type
REMARK                         _______ _______ _______ _____ _____    ______ ____
ROOT
ATOM      1  C   UNL     1      -2.660  11.674  17.878  0.00  0.00    +0.000 A 
ATOM      2  C   UNL     1      -3.292  12.085  19.069  0.00  0.00    +0.000 A 
ATOM      3  C   UNL     1      -4.673  12.307  19.132  0.00  0.00    +0.000 A 
ATOM      4  C   UNL     1      -5.419  12.134  17.960  0.00  0.00    +0.000 A 
ATOM      5  C   UNL     1      -4.802  11.743  16.766  0.00  0.00    +0.000 A 
ATOM      6  C   UNL     1      -3.426  11.503  16.714  0.00  0.00    +0.000 A 
ENDROOT
BRANCH   3   7
ATOM      7  C   UNL     1      -5.351  12.697  20.364  0.00  0.00    +0.000 A 
ATOM      8  C   UNL     1      -6.435  12.080  20.956  0.00  0.00    +0.000 A 
ATOM      9  N   UNL     1      -6.739  12.852  22.049  0.00  0.00    +0.000 N 
ATOM     10  C   UNL     1      -7.757  12.711  22.987  0.00  0.00    +0.000 A 
ATOM     11  C   UNL     1      -7.866  13.612  23.971  0.00  0.00    +0.000 A 
ATOM     12  C   UNL     1      -6.845  14.696  23.949  0.00  0.00    +0.000 A 
ATOM     13  N   UNL     1      -5.884  14.838  23.087  0.00  0.00    +0.000 NA
ATOM     14  C   UNL     1      -5.821  13.894  22.101  0.00  0.00    +0.000 A 
ATOM     15  N   UNL     1      -4.973  13.808  21.093  0.00  0.00    +0.000 NA
ENDBRANCH   3   7
BRANCH   1  19
ATOM     16  N   UNL     1       0.639  10.228  18.279  0.00  0.00    +0.000 N 
ATOM     17  C   UNL     1      -0.744  10.262  18.335  0.00  0.00    +0.000 C 
ATOM     18  O   UNL     1      -1.451   9.340  18.728  0.00  0.00    +0.000 OA
ATOM     19  N   UNL     1      -1.256  11.470  17.884  0.00  0.00    +0.000 N 
ATOM     20  H   UNL     1       1.103  11.124  18.297  0.00  0.00    +0.000 HD
ATOM     21  H   UNL     1      -0.735  11.916  17.146  0.00  0.00    +0.000 HD
BRANCH  16  25
ATOM     22  C   UNL     1       2.799   6.741  19.320  0.00  0.00    +0.000 A 
ATOM     23  C   UNL     1       2.877   7.246  18.026  0.00  0.00    +0.000 A 
ATOM     24  C   UNL     1       2.206   8.417  17.682  0.00  0.00    +0.000 A 
ATOM     25  C   UNL     1       1.410   9.089  18.615  0.00  0.00    +0.000 A 
ATOM     26  C   UNL     1       1.360   8.602  19.924  0.00  0.00    +0.000 A 
ATOM     27  C   UNL     1       2.044   7.426  20.274  0.00  0.00    +0.000 A 
BRANCH  22  29
ATOM     28  C   UNL     1       4.852   5.569  19.254  0.00  0.00    +0.000 C 
ATOM     29  O   UNL     1       3.455   5.558  19.509  0.00  0.00    +0.000 OA
ENDBRANCH  22  29
ENDBRANCH  16  25
ENDBRANCH   1  19
BRANCH   6  30
ATOM     30  O   UNL     1      -2.947  11.141  15.483  0.00  0.00    +0.000 OA
ATOM     31  C   UNL     1      -2.961   9.746  15.187  0.00  0.00    +0.000 C 
ENDBRANCH   6  30
TORSDOF 5
ENDMDL
MODEL 7
REMARK VINA RESULT:      -7.4      7.891     10.097
REMARK  Name = 
REMARK  7 active torsions:
REMARK  status: ('A' for Active; 'I' for Inactive)
REMARK    1  A    between atoms: C_1  and  O_2
REMARK    2  A    between atoms: O_2  and  C_3
REMARK    3  A    between atoms: C_6  and  N_7
REMARK    4  A    between atoms: N_10  and  C_11
REMARK    5  A    between atoms: C_13  and  C_14
REMARK    6  A    between atoms: C_25  and  O_26
REMARK    7  A    between atoms: O_26  and  C_27
REMARK                            x       y       z     vdW  Elec       q    Type
REMARK                         _______ _______ _______ _____ _____    ______ ____
ROOT
ATOM      1  C   UNL     1       0.583  10.792  19.146  0.00  0.00    +0.000 A 
ATOM      2  C   UNL     1      -0.823  10.809  19.250  0.00  0.00    +0.000 A 
ATOM      3  C   UNL     1      -1.575  11.936  18.897  0.00  0.00    +0.000 A 
ATOM      4  C   UNL     1      -0.885  13.072  18.458  0.00  0.00    +0.000 A 
ATOM      5  C   UNL     1       0.511  13.076  18.366  0.00  0.00    +0.000 A 
ATOM      6  C   UNL     1       1.255  11.941  18.701  0.00  0.00    +0.000 A 
ENDROOT
BRANCH   3   7
ATOM      7  C   UNL     1      -3.032  11.960  18.963  0.00  0.00    +0.000 A 
ATOM      8  C   UNL     1      -3.921  11.489  18.017  0.00  0.00    +0.000 A 
ATOM      9  N   UNL     1      -5.167  11.795  18.507  0.00  0.00    +0.000 N 
ATOM     10  C   UNL     1      -6.423  11.576  17.952  0.00  0.00    +0.000 A 
ATOM     11  C   UNL     1      -7.510  11.983  18.618  0.00  0.00    +0.000 A 
ATOM     12  C   UNL     1      -7.238  12.643  19.926  0.00  0.00    +0.000 A 
ATOM     13  N   UNL     1      -6.073  12.848  20.462  0.00  0.00    +0.000 NA
ATOM     14  C   UNL     1      -4.998  12.417  19.738  0.00  0.00    +0.000 A 
ATOM     15  N   UNL     1      -3.714  12.516  20.028  0.00  0.00    +0.000 NA
ENDBRANCH   3   7
BRANCH   1  19
ATOM     16  N   UNL     1       2.450   7.687  19.075  0.00  0.00    +0.000 N 
ATOM     17  C   UNL     1       1.802   8.787  18.541  0.00  0.00    +0.000 C 
ATOM     18  O   UNL     1       1.696   9.021  17.342  0.00  0.00    +0.000 OA
ATOM     19  N   UNL     1       1.282   9.617  19.523  0.00  0.00    +0.000 N 
ATOM     20  H   UNL     1       2.163   7.415  20.005  0.00  0.00    +0.000 HD
ATOM     21  H   UNL     1       1.814   9.666  20.379  0.00  0.00    +0.000 HD
BRANCH  16  25
ATOM     22  C   UNL     1       4.335   4.776  16.650  0.00  0.00    +0.000 A 
ATOM     23  C   UNL     1       4.841   6.072  16.701  0.00  0.00    +0.000 A 
ATOM     24  C   UNL     1       4.256   7.027  17.529  0.00  0.00    +0.000 A 
ATOM     25  C   UNL     1       3.128   6.719  18.295  0.00  0.00    +0.000 A 
ATOM     26  C   UNL     1       2.641   5.409  18.272  0.00  0.00    +0.000 A 
ATOM     27  C   UNL     1       3.237   4.443  17.443  0.00  0.00    +0.000 A 
BRANCH  22  29
ATOM     28  C   UNL     1       6.299   4.300  15.423  0.00  0.00    +0.000 C 
ATOM     29  O   UNL     1       4.962   3.956  15.756  0.00  0.00    +0.000 OA
ENDBRANCH  22  29
ENDBRANCH  16  25
ENDBRANCH   1  19
BRANCH   6  30
ATOM     30  O   UNL     1       2.612  12.082  18.581  0.00  0.00    +0.000 OA
ATOM     31  C   UNL     1       3.088  13.401  18.318  0.00  0.00    +0.000 C 
ENDBRANCH   6  30
TORSDOF 5
ENDMDL
MODEL 8
REMARK VINA RESULT:      -7.4      7.985     10.201
REMARK  Name = 
REMARK  7 active torsions:
REMARK  status: ('A' for Active; 'I' for Inactive)
REMARK    1  A    between atoms: C_1  and  O_2
REMARK    2  A    between atoms: O_2  and  C_3
REMARK    3  A    between atoms: C_6  and  N_7
REMARK    4  A    between atoms: N_10  and  C_11
REMARK    5  A    between atoms: C_13  and  C_14
REMARK    6  A    between atoms: C_25  and  O_26
REMARK    7  A    between atoms: O_26  and  C_27
REMARK                            x       y       z     vdW  Elec       q    Type
REMARK                         _______ _______ _______ _____ _____    ______ ____
ROOT
ATOM      1  C   UNL     1       0.516  10.958  19.370  0.00  0.00    +0.000 A 
ATOM      2  C   UNL     1      -0.874  11.010  19.598  0.00  0.00    +0.000 A 
ATOM      3  C   UNL     1      -1.633  12.143  19.278  0.00  0.00    +0.000 A 
ATOM      4  C   UNL     1      -0.963  13.249  18.742  0.00  0.00    +0.000 A 
ATOM      5  C   UNL     1       0.419  13.219  18.526  0.00  0.00    +0.000 A 
ATOM      6  C   UNL     1       1.168  12.077  18.829  0.00  0.00    +0.000 A 
ENDROOT
BRANCH   3   7
ATOM      7  C   UNL     1      -3.077  12.201  19.473  0.00  0.00    +0.000 A 
ATOM      8  C   UNL     1      -3.755  12.662  20.585  0.00  0.00    +0.000 A 
ATOM      9  N   UNL     1      -5.084  12.453  20.312  0.00  0.00    +0.000 N 
ATOM     10  C   UNL     1      -6.207  12.707  21.093  0.00  0.00    +0.000 A 
ATOM     11  C   UNL     1      -7.417  12.399  20.613  0.00  0.00    +0.000 A 
ATOM     12  C   UNL     1      -7.421  11.803  19.248  0.00  0.00    +0.000 A 
ATOM     13  N   UNL     1      -6.385  11.568  18.502  0.00  0.00    +0.000 NA
ATOM     14  C   UNL     1      -5.173  11.896  19.042  0.00  0.00    +0.000 A 
ATOM     15  N   UNL     1      -3.970  11.746  18.522  0.00  0.00    +0.000 NA
ENDBRANCH   3   7
BRANCH   1  19
ATOM     16  N   UNL     1       2.296   7.805  19.234  0.00  0.00    +0.000 N 
ATOM     17  C   UNL     1       1.623   8.902  18.724  0.00  0.00    +0.000 C 
ATOM     18  O   UNL     1       1.403   9.095  17.533  0.00  0.00    +0.000 OA
ATOM     19  N   UNL     1       1.223   9.779  19.720  0.00  0.00    +0.000 N 
ATOM     20  H   UNL     1       2.098   7.574  20.197  0.00  0.00    +0.000 HD
ATOM     21  H   UNL     1       1.838   9.846  20.517  0.00  0.00    +0.000 HD
BRANCH  16  25
ATOM     22  C   UNL     1       4.160   4.795  16.914  0.00  0.00    +0.000 A 
ATOM     23  C   UNL     1       3.032   4.491  17.670  0.00  0.00    +0.000 A 
ATOM     24  C   UNL     1       2.384   5.482  18.404  0.00  0.00    +0.000 A 
ATOM     25  C   UNL     1       2.871   6.792  18.428  0.00  0.00    +0.000 A 
ATOM     26  C   UNL     1       3.982   7.107  17.640  0.00  0.00    +0.000 A 
ATOM     27  C   UNL     1       4.631   6.109  16.893  0.00  0.00    +0.000 A 
BRANCH  22  29
ATOM     28  C   UNL     1       6.024   3.937  15.740  0.00  0.00    +0.000 C 
ATOM     29  O   UNL     1       4.733   3.724  16.291  0.00  0.00    +0.000 OA
ENDBRANCH  22  29
ENDBRANCH  16  25
ENDBRANCH   1  19
BRANCH   6  30
ATOM     30  O   UNL     1       2.511  12.184  18.584  0.00  0.00    +0.000 OA
ATOM     31  C   UNL     1       3.000  13.497  18.314  0.00  0.00    +0.000 C 
ENDBRANCH   6  30
TORSDOF 5
ENDMDL
MODEL 9
REMARK VINA RESULT:      -7.3      5.233      8.298
REMARK  Name = 
REMARK  7 active torsions:
REMARK  status: ('A' for Active; 'I' for Inactive)
REMARK    1  A    between atoms: C_1  and  O_2
REMARK    2  A    between atoms: O_2  and  C_3
REMARK    3  A    between atoms: C_6  and  N_7
REMARK    4  A    between atoms: N_10  and  C_11
REMARK    5  A    between atoms: C_13  and  C_14
REMARK    6  A    between atoms: C_25  and  O_26
REMARK    7  A    between atoms: O_26  and  C_27
REMARK                            x       y       z     vdW  Elec       q    Type
REMARK                         _______ _______ _______ _____ _____    ______ ____
ROOT
ATOM      1  C   UNL     1       3.622   4.753  19.274  0.00  0.00    +0.000 A 
ATOM      2  C   UNL     1       4.411   4.971  18.127  0.00  0.00    +0.000 A 
ATOM      3  C   UNL     1       4.707   3.937  17.229  0.00  0.00    +0.000 A 
ATOM      4  C   UNL     1       4.216   2.659  17.517  0.00  0.00    +0.000 A 
ATOM      5  C   UNL     1       3.447   2.424  18.662  0.00  0.00    +0.000 A 
ATOM      6  C   UNL     1       3.137   3.464  19.544  0.00  0.00    +0.000 A 
ENDROOT
BRANCH   3   7
ATOM      7  C   UNL     1       5.491   4.151  16.017  0.00  0.00    +0.000 A 
ATOM      8  C   UNL     1       6.488   5.086  15.818  0.00  0.00    +0.000 A 
ATOM      9  N   UNL     1       6.870   4.934  14.509  0.00  0.00    +0.000 N 
ATOM     10  C   UNL     1       7.817   5.634  13.768  0.00  0.00    +0.000 A 
ATOM     11  C   UNL     1       8.007   5.312  12.483  0.00  0.00    +0.000 A 
ATOM     12  C   UNL     1       7.154   4.199  11.979  0.00  0.00    +0.000 A 
ATOM     13  N   UNL     1       6.273   3.531  12.658  0.00  0.00    +0.000 NA
ATOM     14  C   UNL     1       6.116   3.903  13.963  0.00  0.00    +0.000 A 
ATOM     15  N   UNL     1       5.285   3.417  14.866  0.00  0.00    +0.000 NA
ENDBRANCH   3   7
BRANCH   1  19
ATOM     16  N   UNL     1       2.221   7.735  20.784  0.00  0.00    +0.000 N 
ATOM     17  C   UNL     1       2.339   6.729  19.840  0.00  0.00    +0.000 C 
ATOM     18  O   UNL     1       1.626   6.615  18.849  0.00  0.00    +0.000 OA
ATOM     19  N   UNL     1       3.363   5.844  20.143  0.00  0.00    +0.000 N 
ATOM     20  H   UNL     1       3.053   7.936  21.321  0.00  0.00    +0.000 HD
ATOM     21  H   UNL     1       3.524   5.684  21.126  0.00  0.00    +0.000 HD
BRANCH  16  25
ATOM     22  C   UNL     1      -0.707  10.790  20.807  0.00  0.00    +0.000 A 
ATOM     23  C   UNL     1       0.030  10.543  19.653  0.00  0.00    +0.000 A 
ATOM     24  C   UNL     1       0.966   9.512  19.619  0.00  0.00    +0.000 A 
ATOM     25  C   UNL     1       1.213   8.729  20.751  0.00  0.00    +0.000 A 
ATOM     26  C   UNL     1       0.448   8.953  21.899  0.00  0.00    +0.000 A 
ATOM     27  C   UNL     1      -0.503   9.988  21.931  0.00  0.00    +0.000 A 
BRANCH  22  29
ATOM     28  C   UNL     1      -1.627  12.502  19.460  0.00  0.00    +0.000 C 
ATOM     29  O   UNL     1      -1.546  11.864  20.727  0.00  0.00    +0.000 OA
ENDBRANCH  22  29
ENDBRANCH  16  25
ENDBRANCH   1  19
BRANCH   6  30
ATOM     30  O   UNL     1       2.389   3.097  20.631  0.00  0.00    +0.000 OA
ATOM     31  C   UNL     1       0.989   2.938  20.409  0.00  0.00    +0.000 C 
ENDBRANCH   6  30
TORSDOF 5
ENDMDL
