MODEL 1
REMARK VINA RESULT:      -7.6      0.000      0.000
REMARK  Name = 
REMARK  15 active torsions:
REMARK  status: ('A' for Active; 'I' for Inactive)
REMARK    1  A    between atoms: C_1  and  C_2
REMARK    2  A    between atoms: C_2  and  C_3
REMARK    3  A    between atoms: C_3  and  C_4
REMARK    4  A    between atoms: C_4  and  C_5
REMARK    5  A    between atoms: C_5  and  N_6
REMARK    6  A    between atoms: C_5  and  C_17
REMARK    7  A    between atoms: C_7  and  O_9
REMARK    8  A    between atoms: O_9  and  C_10
REMARK    9  A    between atoms: C_10  and  C_11
REMARK   10  A    between atoms: C_11  and  C_12
REMARK   11  A    between atoms: C_12  and  C_13
REMARK   12  A    between atoms: C_17  and  C_19
REMARK   13  A    between atoms: N_21  and  C_22
REMARK   14  A    between atoms: N_26  and  C_27
REMARK   15  A    between atoms: C_27  and  C_28
REMARK                            x       y       z     vdW  Elec       q    Type
REMARK                         _______ _______ _______ _____ _____    ______ ____
ROOT
ATOM      1  C   UNL     1       7.072   4.767  17.860  0.00  0.00    +0.000 C 
ATOM      2  O   UNL     1       8.097   4.249  18.289  0.00  0.00    +0.000 OA
ENDROOT
BRANCH   1   3
ATOM      3  C   UNL     1       5.743   4.246  18.363  0.00  0.00    +0.000 C 
ATOM      4  O   UNL     1       5.652   3.515  19.328  0.00  0.00    +0.000 OA
ATOM      5  N   UNL     1       4.617   4.648  17.565  0.00  0.00    +0.000 N 
ATOM      6  H   UNL     1       4.814   5.127  16.693  0.00  0.00    +0.000 HD
BRANCH   5   7
ATOM      7  C   UNL     1       3.304   4.378  17.923  0.00  0.00    +0.000 A 
ATOM      8  C   UNL     1       2.433   3.494  17.322  0.00  0.00    +0.000 A 
ATOM      9  C   UNL     1       1.240   3.598  18.049  0.00  0.00    +0.000 A 
ATOM     10  N   UNL     1       1.324   4.483  19.043  0.00  0.00    +0.000 NA
ATOM     11  N   UNL     1       2.593   4.942  18.963  0.00  0.00    +0.000 N 
BRANCH  11  12
ATOM     12  C   UNL     1       2.976   6.086  19.779  0.00  0.00    +0.000 C 
BRANCH  12  13
ATOM     13  C   UNL     1       2.273   7.363  19.399  0.00  0.00    +0.000 A 
ATOM     14  C   UNL     1       1.578   8.112  20.363  0.00  0.00    +0.000 A 
ATOM     15  C   UNL     1       1.021   9.353  20.037  0.00  0.00    +0.000 A 
ATOM     16  C   UNL     1       1.155   9.865  18.751  0.00  0.00    +0.000 A 
ATOM     17  C   UNL     1       1.834   9.132  17.781  0.00  0.00    +0.000 A 
ATOM     18  C   UNL     1       2.386   7.889  18.102  0.00  0.00    +0.000 A 
ENDBRANCH  12  13
ENDBRANCH  11  12
ENDBRANCH   5   7
ENDBRANCH   1   3
BRANCH   1  19
ATOM     19  C   UNL     1       6.987   5.863  16.814  0.00  0.00    +0.000 C 
BRANCH  19  20
ATOM     20  N   UNL     1       7.922   6.927  17.143  0.00  0.00    +0.000 N 
ATOM     21  C   UNL     1       7.473   8.141  17.579  0.00  0.00    +0.000 C 
ATOM     22  O   UNL     1       6.302   8.381  17.833  0.00  0.00    +0.000 OA
ATOM     23  H   UNL     1       8.901   6.876  16.887  0.00  0.00    +0.000 HD
BRANCH  21  24
ATOM     24  O   UNL     1       8.485   9.037  17.557  0.00  0.00    +0.000 OA
BRANCH  24  25
ATOM     25  C   UNL     1       8.107  10.386  17.901  0.00  0.00    +0.000 C 
BRANCH  25  26
ATOM     26  C   UNL     1       9.249  11.163  18.561  0.00  0.00    +0.000 C 
ATOM     27  C   UNL     1      10.444  11.438  17.586  0.00  0.00    +0.000 C 
ATOM     28  C   UNL     1      10.475  12.890  18.099  0.00  0.00    +0.000 C 
ATOM     29  C   UNL     1       9.012  12.711  18.528  0.00  0.00    +0.000 C 
BRANCH  26  30
ATOM     30  C   UNL     1       9.695  10.607  19.928  0.00  0.00    +0.000 C 
ATOM     31  C   UNL     1       9.121  11.390  21.103  0.00  0.00    +0.000 C 
ENDBRANCH  26  30
ENDBRANCH  25  26
ENDBRANCH  24  25
ENDBRANCH  21  24
ENDBRANCH  19  20
BRANCH  19  32
ATOM     32  C   UNL     1       7.266   5.321  15.401  0.00  0.00    +0.000 C 
BRANCH  32  33
ATOM     33  C   UNL     1       6.015   5.072  14.541  0.00  0.00    +0.000 C 
BRANCH  33  35
ATOM     34  C   UNL     1       5.611   3.559  12.554  0.00  0.00    +0.000 C 
ATOM     35  C   UNL     1       5.895   3.628  14.046  0.00  0.00    +0.000 C 
ENDBRANCH  33  35
ENDBRANCH  32  33
ENDBRANCH  19  32
ENDBRANCH   1  19
TORSDOF 13
ENDMDL
MODEL 2
REMARK VINA RESULT:      -7.5      3.754      7.058
REMARK  Name = 
REMARK  15 active torsions:
REMARK  status: ('A' for Active; 'I' for Inactive)
REMARK    1  A    between atoms: C_1  and  C_2
REMARK    2  A    between atoms: C_2  and  C_3
REMARK    3  A    between atoms: C_3  and  C_4
REMARK    4  A    between atoms: C_4  and  C_5
REMARK    5  A    between atoms: C_5  and  N_6
REMARK    6  A    between atoms: C_5  and  C_17
REMARK    7  A    between atoms: C_7  and  O_9
REMARK    8  A    between atoms: O_9  and  C_10
REMARK    9  A    between atoms: C_10  and  C_11
REMARK   10  A    between atoms: C_11  and  C_12
REMARK   11  A    between atoms: C_12  and  C_13
REMARK   12  A    between atoms: C_17  and  C_19
REMARK   13  A    between atoms: N_21  and  C_22
REMARK   14  A    between atoms: N_26  and  C_27
REMARK   15  A    between atoms: C_27  and  C_28
REMARK                            x       y       z     vdW  Elec       q    Type
REMARK                         _______ _______ _______ _____ _____    ______ ____
ROOT
ATOM      1  C   UNL     1       1.480   7.888  20.662  0.00  0.00    +0.000 C 
ATOM      2  O   UNL     1       1.250   8.114  21.844  0.00  0.00    +0.000 OA
ENDROOT
BRANCH   1   3
ATOM      3  C   UNL     1       1.446   9.050  19.692  0.00  0.00    +0.000 C 
ATOM      4  O   UNL     1       1.787   8.941  18.531  0.00  0.00    +0.000 OA
ATOM      5  N   UNL     1       1.029  10.293  20.282  0.00  0.00    +0.000 N 
ATOM      6  H   UNL     1       0.916  10.312  21.290  0.00  0.00    +0.000 HD
BRANCH   5   7
ATOM      7  C   UNL     1       0.815  11.446  19.540  0.00  0.00    +0.000 A 
ATOM      8  C   UNL     1       1.731  12.429  19.231  0.00  0.00    +0.000 A 
ATOM      9  C   UNL     1       1.021  13.371  18.476  0.00  0.00    +0.000 A 
ATOM     10  N   UNL     1      -0.258  13.033  18.309  0.00  0.00    +0.000 NA
ATOM     11  N   UNL     1      -0.367  11.848  18.952  0.00  0.00    +0.000 N 
BRANCH  11  12
ATOM     12  C   UNL     1      -1.693  11.279  19.149  0.00  0.00    +0.000 C 
BRANCH  12  13
ATOM     13  C   UNL     1      -2.439  11.026  17.865  0.00  0.00    +0.000 A 
ATOM     14  C   UNL     1      -1.934  10.133  16.906  0.00  0.00    +0.000 A 
ATOM     15  C   UNL     1      -2.679   9.812  15.766  0.00  0.00    +0.000 A 
ATOM     16  C   UNL     1      -3.937  10.372  15.570  0.00  0.00    +0.000 A 
ATOM     17  C   UNL     1      -4.450  11.266  16.507  0.00  0.00    +0.000 A 
ATOM     18  C   UNL     1      -3.705  11.593  17.643  0.00  0.00    +0.000 A 
ENDBRANCH  12  13
ENDBRANCH  11  12
ENDBRANCH   5   7
ENDBRANCH   1   3
BRANCH   1  19
ATOM     19  C   UNL     1       1.751   6.531  20.040  0.00  0.00    +0.000 C 
BRANCH  19  20
ATOM     20  N   UNL     1       3.184   6.290  19.993  0.00  0.00    +0.000 N 
ATOM     21  C   UNL     1       3.761   5.721  18.894  0.00  0.00    +0.000 C 
ATOM     22  O   UNL     1       3.161   5.488  17.856  0.00  0.00    +0.000 OA
ATOM     23  H   UNL     1       3.764   6.356  20.822  0.00  0.00    +0.000 HD
BRANCH  21  24
ATOM     24  O   UNL     1       5.029   5.351  19.184  0.00  0.00    +0.000 OA
BRANCH  24  25
ATOM     25  C   UNL     1       5.695   4.605  18.144  0.00  0.00    +0.000 C 
BRANCH  25  26
ATOM     26  C   UNL     1       6.779   5.425  17.440  0.00  0.00    +0.000 C 
ATOM     27  C   UNL     1       6.306   6.870  17.065  0.00  0.00    +0.000 C 
ATOM     28  C   UNL     1       7.643   7.406  17.613  0.00  0.00    +0.000 C 
ATOM     29  C   UNL     1       7.748   6.125  18.453  0.00  0.00    +0.000 C 
BRANCH  26  30
ATOM     30  C   UNL     1       7.480   4.694  16.277  0.00  0.00    +0.000 C 
ATOM     31  C   UNL     1       6.560   4.452  15.087  0.00  0.00    +0.000 C 
ENDBRANCH  26  30
ENDBRANCH  25  26
ENDBRANCH  24  25
ENDBRANCH  21  24
ENDBRANCH  19  20
BRANCH  19  32
ATOM     32  C   UNL     1       1.042   5.403  20.811  0.00  0.00    +0.000 C 
BRANCH  32  33
ATOM     33  C   UNL     1       1.856   4.106  20.961  0.00  0.00    +0.000 C 
BRANCH  33  35
ATOM     34  C   UNL     1       2.189   2.277  19.245  0.00  0.00    +0.000 C 
ATOM     35  C   UNL     1       1.230   2.909  20.241  0.00  0.00    +0.000 C 
ENDBRANCH  33  35
ENDBRANCH  32  33
ENDBRANCH  19  32
ENDBRANCH   1  19
TORSDOF 13
ENDMDL
MODEL 3
REMARK VINA RESULT:      -7.3      4.070      8.685
REMARK  Name = 
REMARK  15 active torsions:
REMARK  status: ('A' for Active; 'I' for Inactive)
REMARK    1  A    between atoms: C_1  and  C_2
REMARK    2  A    between atoms: C_2  and  C_3
REMARK    3  A    between atoms: C_3  and  C_4
REMARK    4  A    between atoms: C_4  and  C_5
REMARK    5  A    between atoms: C_5  and  N_6
REMARK    6  A    between atoms: C_5  and  C_17
REMARK    7  A    between atoms: C_7  and  O_9
REMARK    8  A    between atoms: O_9  and  C_10
REMARK    9  A    between atoms: C_10  and  C_11
REMARK   10  A    between atoms: C_11  and  C_12
REMARK   11  A    between atoms: C_12  and  C_13
REMARK   12  A    between atoms: C_17  and  C_19
REMARK   13  A    between atoms: N_21  and  C_22
REMARK   14  A    between atoms: N_26  and  C_27
REMARK   15  A    between atoms: C_27  and  C_28
REMARK                            x       y       z     vdW  Elec       q    Type
REMARK                         _______ _______ _______ _____ _____    ______ ____
ROOT
ATOM      1  C   UNL     1       1.846   7.276  20.214  0.00  0.00    +0.000 C 
ATOM      2  O   UNL     1       1.499   6.436  21.036  0.00  0.00    +0.000 OA
ENDROOT
BRANCH   1   3
ATOM      3  C   UNL     1       2.640   6.815  19.011  0.00  0.00    +0.000 C 
ATOM      4  O   UNL     1       2.388   7.185  17.882  0.00  0.00    +0.000 OA
ATOM      5  N   UNL     1       3.672   5.863  19.320  0.00  0.00    +0.000 N 
ATOM      6  H   UNL     1       3.699   5.501  20.267  0.00  0.00    +0.000 HD
BRANCH   5   7
ATOM      7  C   UNL     1       4.586   5.410  18.380  0.00  0.00    +0.000 A 
ATOM      8  C   UNL     1       5.752   6.025  17.976  0.00  0.00    +0.000 A 
ATOM      9  C   UNL     1       6.305   5.172  17.011  0.00  0.00    +0.000 A 
ATOM     10  N   UNL     1       5.558   4.088  16.800  0.00  0.00    +0.000 NA
ATOM     11  N   UNL     1       4.518   4.239  17.652  0.00  0.00    +0.000 N 
BRANCH  11  12
ATOM     12  C   UNL     1       3.388   3.328  17.544  0.00  0.00    +0.000 C 
BRANCH  12  13
ATOM     13  C   UNL     1       2.697   3.062  18.856  0.00  0.00    +0.000 A 
ATOM     14  C   UNL     1       3.433   2.675  19.988  0.00  0.00    +0.000 A 
ATOM     15  C   UNL     1       2.810   2.537  21.232  0.00  0.00    +0.000 A 
ATOM     16  C   UNL     1       1.449   2.788  21.366  0.00  0.00    +0.000 A 
ATOM     17  C   UNL     1       0.702   3.165  20.253  0.00  0.00    +0.000 A 
ATOM     18  C   UNL     1       1.321   3.297  19.007  0.00  0.00    +0.000 A 
ENDBRANCH  12  13
ENDBRANCH  11  12
ENDBRANCH   5   7
ENDBRANCH   1   3
BRANCH   1  19
ATOM     19  C   UNL     1       1.607   8.772  20.299  0.00  0.00    +0.000 C 
BRANCH  19  20
ATOM     20  N   UNL     1       0.615   9.167  19.312  0.00  0.00    +0.000 N 
ATOM     21  C   UNL     1       0.898  10.125  18.381  0.00  0.00    +0.000 C 
ATOM     22  O   UNL     1       2.005  10.620  18.232  0.00  0.00    +0.000 OA
ATOM     23  H   UNL     1      -0.358   8.895  19.395  0.00  0.00    +0.000 HD
BRANCH  21  24
ATOM     24  O   UNL     1      -0.240  10.511  17.763  0.00  0.00    +0.000 OA
BRANCH  24  25
ATOM     25  C   UNL     1      -1.426  10.441  18.581  0.00  0.00    +0.000 C 
BRANCH  25  26
ATOM     26  C   UNL     1      -2.702  10.732  17.787  0.00  0.00    +0.000 C 
ATOM     27  C   UNL     1      -3.799   9.628  17.967  0.00  0.00    +0.000 C 
ATOM     28  C   UNL     1      -4.839  10.749  18.155  0.00  0.00    +0.000 C 
ATOM     29  C   UNL     1      -3.683  11.676  18.562  0.00  0.00    +0.000 C 
BRANCH  26  30
ATOM     30  C   UNL     1      -2.464  11.118  16.313  0.00  0.00    +0.000 C 
ATOM     31  C   UNL     1      -2.808   9.995  15.342  0.00  0.00    +0.000 C 
ENDBRANCH  26  30
ENDBRANCH  25  26
ENDBRANCH  24  25
ENDBRANCH  21  24
ENDBRANCH  19  20
BRANCH  19  32
ATOM     32  C   UNL     1       1.160   9.195  21.710  0.00  0.00    +0.000 C 
BRANCH  32  33
ATOM     33  C   UNL     1      -0.362   9.214  21.931  0.00  0.00    +0.000 C 
BRANCH  33  35
ATOM     34  C   UNL     1      -1.120  11.508  22.682  0.00  0.00    +0.000 C 
ATOM     35  C   UNL     1      -0.795  10.087  23.112  0.00  0.00    +0.000 C 
ENDBRANCH  33  35
ENDBRANCH  32  33
ENDBRANCH  19  32
ENDBRANCH   1  19
TORSDOF 13
ENDMDL
MODEL 4
REMARK VINA RESULT:      -7.3      1.132      1.877
REMARK  Name = 
REMARK  15 active torsions:
REMARK  status: ('A' for Active; 'I' for Inactive)
REMARK    1  A    between atoms: C_1  and  C_2
REMARK    2  A    between atoms: C_2  and  C_3
REMARK    3  A    between atoms: C_3  and  C_4
REMARK    4  A    between atoms: C_4  and  C_5
REMARK    5  A    between atoms: C_5  and  N_6
REMARK    6  A    between atoms: C_5  and  C_17
REMARK    7  A    between atoms: C_7  and  O_9
REMARK    8  A    between atoms: O_9  and  C_10
REMARK    9  A    between atoms: C_10  and  C_11
REMARK   10  A    between atoms: C_11  and  C_12
REMARK   11  A    between atoms: C_12  and  C_13
REMARK   12  A    between atoms: C_17  and  C_19
REMARK   13  A    between atoms: N_21  and  C_22
REMARK   14  A    between atoms: N_26  and  C_27
REMARK   15  A    between atoms: C_27  and  C_28
REMARK                            x       y       z     vdW  Elec       q    Type
REMARK                         _______ _______ _______ _____ _____    ______ ____
ROOT
ATOM      1  C   UNL     1       7.008   5.662  19.129  0.00  0.00    +0.000 C 
ATOM      2  O   UNL     1       7.846   5.395  19.983  0.00  0.00    +0.000 OA
ENDROOT
BRANCH   1   3
ATOM      3  C   UNL     1       5.726   4.858  19.109  0.00  0.00    +0.000 C 
ATOM      4  O   UNL     1       5.649   3.740  19.580  0.00  0.00    +0.000 OA
ATOM      5  N   UNL     1       4.635   5.512  18.439  0.00  0.00    +0.000 N 
ATOM      6  H   UNL     1       4.844   6.373  17.946  0.00  0.00    +0.000 HD
BRANCH   5   7
ATOM      7  C   UNL     1       3.346   4.998  18.417  0.00  0.00    +0.000 A 
ATOM      8  C   UNL     1       2.817   4.094  17.521  0.00  0.00    +0.000 A 
ATOM      9  C   UNL     1       1.488   3.908  17.925  0.00  0.00    +0.000 A 
ATOM     10  N   UNL     1       1.174   4.636  18.997  0.00  0.00    +0.000 NA
ATOM     11  N   UNL     1       2.322   5.286  19.295  0.00  0.00    +0.000 N 
BRANCH  11  12
ATOM     12  C   UNL     1       2.288   6.338  20.302  0.00  0.00    +0.000 C 
BRANCH  12  13
ATOM     13  C   UNL     1       1.927   7.693  19.751  0.00  0.00    +0.000 A 
ATOM     14  C   UNL     1       2.220   8.025  18.418  0.00  0.00    +0.000 A 
ATOM     15  C   UNL     1       1.786   9.237  17.873  0.00  0.00    +0.000 A 
ATOM     16  C   UNL     1       1.050  10.130  18.645  0.00  0.00    +0.000 A 
ATOM     17  C   UNL     1       0.757   9.820  19.970  0.00  0.00    +0.000 A 
ATOM     18  C   UNL     1       1.195   8.612  20.520  0.00  0.00    +0.000 A 
ENDBRANCH  12  13
ENDBRANCH  11  12
ENDBRANCH   5   7
ENDBRANCH   1   3
BRANCH   1  19
ATOM     19  C   UNL     1       7.143   6.698  18.029  0.00  0.00    +0.000 C 
BRANCH  19  20
ATOM     20  N   UNL     1       8.147   7.681  18.402  0.00  0.00    +0.000 N 
ATOM     21  C   UNL     1       8.039   8.980  17.993  0.00  0.00    +0.000 C 
ATOM     22  O   UNL     1       7.065   9.428  17.406  0.00  0.00    +0.000 OA
ATOM     23  H   UNL     1       9.037   7.409  18.804  0.00  0.00    +0.000 HD
BRANCH  21  24
ATOM     24  O   UNL     1       9.202   9.628  18.222  0.00  0.00    +0.000 OA
BRANCH  24  25
ATOM     25  C   UNL     1       9.317  10.219  19.534  0.00  0.00    +0.000 C 
BRANCH  25  26
ATOM     26  C   UNL     1      10.090  11.540  19.515  0.00  0.00    +0.000 C 
ATOM     27  C   UNL     1       9.157  12.792  19.390  0.00  0.00    +0.000 C 
ATOM     28  C   UNL     1       9.979  13.465  20.506  0.00  0.00    +0.000 C 
ATOM     29  C   UNL     1      10.412  12.062  20.956  0.00  0.00    +0.000 C 
BRANCH  26  30
ATOM     30  C   UNL     1      11.282  11.570  18.537  0.00  0.00    +0.000 C 
ATOM     31  C   UNL     1      11.041  12.476  17.335  0.00  0.00    +0.000 C 
ENDBRANCH  26  30
ENDBRANCH  25  26
ENDBRANCH  24  25
ENDBRANCH  21  24
ENDBRANCH  19  20
BRANCH  19  32
ATOM     32  C   UNL     1       7.501   6.049  16.680  0.00  0.00    +0.000 C 
BRANCH  32  33
ATOM     33  C   UNL     1       7.401   4.514  16.649  0.00  0.00    +0.000 C 
BRANCH  33  35
ATOM     34  C   UNL     1       5.607   5.106  14.965  0.00  0.00    +0.000 C 
ATOM     35  C   UNL     1       6.429   3.989  15.588  0.00  0.00    +0.000 C 
ENDBRANCH  33  35
ENDBRANCH  32  33
ENDBRANCH  19  32
ENDBRANCH   1  19
TORSDOF 13
ENDMDL
MODEL 5
REMARK VINA RESULT:      -7.3      3.651      7.187
REMARK  Name = 
REMARK  15 active torsions:
REMARK  status: ('A' for Active; 'I' for Inactive)
REMARK    1  A    between atoms: C_1  and  C_2
REMARK    2  A    between atoms: C_2  and  C_3
REMARK    3  A    between atoms: C_3  and  C_4
REMARK    4  A    between atoms: C_4  and  C_5
REMARK    5  A    between atoms: C_5  and  N_6
REMARK    6  A    between atoms: C_5  and  C_17
REMARK    7  A    between atoms: C_7  and  O_9
REMARK    8  A    between atoms: O_9  and  C_10
REMARK    9  A    between atoms: C_10  and  C_11
REMARK   10  A    between atoms: C_11  and  C_12
REMARK   11  A    between atoms: C_12  and  C_13
REMARK   12  A    between atoms: C_17  and  C_19
REMARK   13  A    between atoms: N_21  and  C_22
REMARK   14  A    between atoms: N_26  and  C_27
REMARK   15  A    between atoms: C_27  and  C_28
REMARK                            x       y       z     vdW  Elec       q    Type
REMARK                         _______ _______ _______ _____ _____    ______ ____
ROOT
ATOM      1  C   UNL     1       2.376   7.861  18.214  0.00  0.00    +0.000 C 
ATOM      2  O   UNL     1       3.108   8.291  17.330  0.00  0.00    +0.000 OA
ENDROOT
BRANCH   1   3
ATOM      3  C   UNL     1       1.638   8.859  19.080  0.00  0.00    +0.000 C 
ATOM      4  O   UNL     1       1.272   8.598  20.208  0.00  0.00    +0.000 OA
ATOM      5  N   UNL     1       1.363  10.110  18.428  0.00  0.00    +0.000 N 
ATOM      6  H   UNL     1       1.571  10.172  17.437  0.00  0.00    +0.000 HD
BRANCH   5   7
ATOM      7  C   UNL     1       0.806  11.197  19.085  0.00  0.00    +0.000 A 
ATOM      8  C   UNL     1       1.462  12.291  19.608  0.00  0.00    +0.000 A 
ATOM      9  C   UNL     1       0.458  13.091  20.169  0.00  0.00    +0.000 A 
ATOM     10  N   UNL     1      -0.757  12.561  20.027  0.00  0.00    +0.000 NA
ATOM     11  N   UNL     1      -0.531  11.410  19.352  0.00  0.00    +0.000 N 
BRANCH  11  12
ATOM     12  C   UNL     1      -1.627  10.463  19.199  0.00  0.00    +0.000 C 
BRANCH  12  13
ATOM     13  C   UNL     1      -2.391  10.623  17.911  0.00  0.00    +0.000 A 
ATOM     14  C   UNL     1      -2.024   9.896  16.766  0.00  0.00    +0.000 A 
ATOM     15  C   UNL     1      -2.798   9.959  15.603  0.00  0.00    +0.000 A 
ATOM     16  C   UNL     1      -3.949  10.739  15.567  0.00  0.00    +0.000 A 
ATOM     17  C   UNL     1      -4.323  11.472  16.691  0.00  0.00    +0.000 A 
ATOM     18  C   UNL     1      -3.547  11.417  17.852  0.00  0.00    +0.000 A 
ENDBRANCH  12  13
ENDBRANCH  11  12
ENDBRANCH   5   7
ENDBRANCH   1   3
BRANCH   1  19
ATOM     19  C   UNL     1       2.164   6.403  18.577  0.00  0.00    +0.000 C 
BRANCH  19  20
ATOM     20  N   UNL     1       3.098   5.572  17.834  0.00  0.00    +0.000 N 
ATOM     21  C   UNL     1       2.716   4.354  17.348  0.00  0.00    +0.000 C 
ATOM     22  O   UNL     1       1.569   3.935  17.392  0.00  0.00    +0.000 OA
ATOM     23  H   UNL     1       4.091   5.772  17.814  0.00  0.00    +0.000 HD
BRANCH  21  24
ATOM     24  O   UNL     1       3.804   3.663  16.943  0.00  0.00    +0.000 OA
BRANCH  24  25
ATOM     25  C   UNL     1       5.034   4.028  17.604  0.00  0.00    +0.000 C 
BRANCH  25  26
ATOM     26  C   UNL     1       6.128   4.440  16.616  0.00  0.00    +0.000 C 
ATOM     27  C   UNL     1       6.105   3.600  15.293  0.00  0.00    +0.000 C 
ATOM     28  C   UNL     1       6.272   4.913  14.505  0.00  0.00    +0.000 C 
ATOM     29  C   UNL     1       5.697   5.652  15.722  0.00  0.00    +0.000 C 
BRANCH  26  30
ATOM     30  C   UNL     1       7.535   4.562  17.234  0.00  0.00    +0.000 C 
ATOM     31  C   UNL     1       7.581   5.513  18.424  0.00  0.00    +0.000 C 
ENDBRANCH  26  30
ENDBRANCH  25  26
ENDBRANCH  24  25
ENDBRANCH  21  24
ENDBRANCH  19  20
BRANCH  19  32
ATOM     32  C   UNL     1       2.322   6.168  20.090  0.00  0.00    +0.000 C 
BRANCH  32  33
ATOM     33  C   UNL     1       1.419   5.068  20.674  0.00  0.00    +0.000 C 
BRANCH  33  35
ATOM     34  C   UNL     1       2.549   2.805  20.587  0.00  0.00    +0.000 C 
ATOM     35  C   UNL     1       2.190   4.000  21.456  0.00  0.00    +0.000 C 
ENDBRANCH  33  35
ENDBRANCH  32  33
ENDBRANCH  19  32
ENDBRANCH   1  19
TORSDOF 13
ENDMDL
MODEL 6
REMARK VINA RESULT:      -7.0      4.282      7.317
REMARK  Name = 
REMARK  15 active torsions:
REMARK  status: ('A' for Active; 'I' for Inactive)
REMARK    1  A    between atoms: C_1  and  C_2
REMARK    2  A    between atoms: C_2  and  C_3
REMARK    3  A    between atoms: C_3  and  C_4
REMARK    4  A    between atoms: C_4  and  C_5
REMARK    5  A    between atoms: C_5  and  N_6
REMARK    6  A    between atoms: C_5  and  C_17
REMARK    7  A    between atoms: C_7  and  O_9
REMARK    8  A    between atoms: O_9  and  C_10
REMARK    9  A    between atoms: C_10  and  C_11
REMARK   10  A    between atoms: C_11  and  C_12
REMARK   11  A    between atoms: C_12  and  C_13
REMARK   12  A    between atoms: C_17  and  C_19
REMARK   13  A    between atoms: N_21  and  C_22
REMARK   14  A    between atoms: N_26  and  C_27
REMARK   15  A    between atoms: C_27  and  C_28
REMARK                            x       y       z     vdW  Elec       q    Type
REMARK                         _______ _______ _______ _____ _____    ______ ____
ROOT
ATOM      1  C   UNL     1       1.570   9.294  18.579  0.00  0.00    +0.000 C 
ATOM      2  O   UNL     1       2.063   9.194  17.462  0.00  0.00    +0.000 OA
ENDROOT
BRANCH   1   3
ATOM      3  C   UNL     1       1.791   8.165  19.563  0.00  0.00    +0.000 C 
ATOM      4  O   UNL     1       1.647   8.305  20.761  0.00  0.00    +0.000 OA
ATOM      5  N   UNL     1       2.238   6.940  18.957  0.00  0.00    +0.000 N 
ATOM      6  H   UNL     1       2.477   6.971  17.972  0.00  0.00    +0.000 HD
BRANCH   5   7
ATOM      7  C   UNL     1       2.381   5.756  19.666  0.00  0.00    +0.000 A 
ATOM      8  C   UNL     1       1.436   5.121  20.442  0.00  0.00    +0.000 A 
ATOM      9  C   UNL     1       2.075   3.979  20.943  0.00  0.00    +0.000 A 
ATOM     10  N   UNL     1       3.338   3.878  20.530  0.00  0.00    +0.000 NA
ATOM     11  N   UNL     1       3.509   4.963  19.740  0.00  0.00    +0.000 N 
BRANCH  11  12
ATOM     12  C   UNL     1       4.851   5.286  19.275  0.00  0.00    +0.000 C 
BRANCH  12  13
ATOM     13  C   UNL     1       4.995   5.256  17.776  0.00  0.00    +0.000 A 
ATOM     14  C   UNL     1       5.027   6.449  17.035  0.00  0.00    +0.000 A 
ATOM     15  C   UNL     1       5.273   6.428  15.658  0.00  0.00    +0.000 A 
ATOM     16  C   UNL     1       5.497   5.221  15.004  0.00  0.00    +0.000 A 
ATOM     17  C   UNL     1       5.462   4.029  15.722  0.00  0.00    +0.000 A 
ATOM     18  C   UNL     1       5.209   4.046  17.096  0.00  0.00    +0.000 A 
ENDBRANCH  12  13
ENDBRANCH  11  12
ENDBRANCH   5   7
ENDBRANCH   1   3
BRANCH   1  19
ATOM     19  C   UNL     1       0.697  10.430  19.080  0.00  0.00    +0.000 C 
BRANCH  19  20
ATOM     20  N   UNL     1       1.030  11.654  18.368  0.00  0.00    +0.000 N 
ATOM     21  C   UNL     1       1.592  12.712  19.023  0.00  0.00    +0.000 C 
ATOM     22  O   UNL     1       1.958  12.672  20.188  0.00  0.00    +0.000 OA
ATOM     23  H   UNL     1       0.692  11.834  17.430  0.00  0.00    +0.000 HD
BRANCH  21  24
ATOM     24  O   UNL     1       1.557  13.808  18.234  0.00  0.00    +0.000 OA
BRANCH  24  25
ATOM     25  C   UNL     1       1.207  15.032  18.913  0.00  0.00    +0.000 C 
BRANCH  25  26
ATOM     26  C   UNL     1       2.154  16.184  18.566  0.00  0.00    +0.000 C 
ATOM     27  C   UNL     1       3.304  16.365  19.614  0.00  0.00    +0.000 C 
ATOM     28  C   UNL     1       4.295  16.504  18.442  0.00  0.00    +0.000 C 
ATOM     29  C   UNL     1       3.281  15.748  17.570  0.00  0.00    +0.000 C 
BRANCH  26  30
ATOM     30  C   UNL     1       1.448  17.506  18.204  0.00  0.00    +0.000 C 
ATOM     31  C   UNL     1      -0.039  17.327  17.920  0.00  0.00    +0.000 C 
ENDBRANCH  26  30
ENDBRANCH  25  26
ENDBRANCH  24  25
ENDBRANCH  21  24
ENDBRANCH  19  20
BRANCH  19  32
ATOM     32  C   UNL     1      -0.799  10.106  18.922  0.00  0.00    +0.000 C 
BRANCH  32  33
ATOM     33  C   UNL     1      -1.415  10.519  17.574  0.00  0.00    +0.000 C 
BRANCH  33  35
ATOM     34  C   UNL     1      -3.074   9.830  15.793  0.00  0.00    +0.000 C 
ATOM     35  C   UNL     1      -2.749   9.827  17.278  0.00  0.00    +0.000 C 
ENDBRANCH  33  35
ENDBRANCH  32  33
ENDBRANCH  19  32
ENDBRANCH   1  19
TORSDOF 13
ENDMDL
MODEL 7
REMARK VINA RESULT:      -7.0      3.754      6.964
REMARK  Name = 
REMARK  15 active torsions:
REMARK  status: ('A' for Active; 'I' for Inactive)
REMARK    1  A    between atoms: C_1  and  C_2
REMARK    2  A    between atoms: C_2  and  C_3
REMARK    3  A    between atoms: C_3  and  C_4
REMARK    4  A    between atoms: C_4  and  C_5
REMARK    5  A    between atoms: C_5  and  N_6
REMARK    6  A    between atoms: C_5  and  C_17
REMARK    7  A    between atoms: C_7  and  O_9
REMARK    8  A    between atoms: O_9  and  C_10
REMARK    9  A    between atoms: C_10  and  C_11
REMARK   10  A    between atoms: C_11  and  C_12
REMARK   11  A    between atoms: C_12  and  C_13
REMARK   12  A    between atoms: C_17  and  C_19
REMARK   13  A    between atoms: N_21  and  C_22
REMARK   14  A    between atoms: N_26  and  C_27
REMARK   15  A    between atoms: C_27  and  C_28
REMARK                            x       y       z     vdW  Elec       q    Type
REMARK                         _______ _______ _______ _____ _____    ______ ____
ROOT
ATOM      1  C   UNL     1       1.620   7.814  20.596  0.00  0.00    +0.000 C 
ATOM      2  O   UNL     1       1.785   8.134  21.767  0.00  0.00    +0.000 OA
ENDROOT
BRANCH   1   3
ATOM      3  C   UNL     1       1.152   8.874  19.623  0.00  0.00    +0.000 C 
ATOM      4  O   UNL     1       1.765   9.148  18.611  0.00  0.00    +0.000 OA
ATOM      5  N   UNL     1      -0.044   9.559  20.034  0.00  0.00    +0.000 N 
ATOM      6  H   UNL     1      -0.391   9.365  20.967  0.00  0.00    +0.000 HD
BRANCH   5   7
ATOM      7  C   UNL     1      -0.702  10.478  19.229  0.00  0.00    +0.000 A 
ATOM      8  C   UNL     1      -1.469  10.221  18.113  0.00  0.00    +0.000 A 
ATOM      9  C   UNL     1      -1.898  11.476  17.662  0.00  0.00    +0.000 A 
ATOM     10  N   UNL     1      -1.442  12.474  18.420  0.00  0.00    +0.000 NA
ATOM     11  N   UNL     1      -0.724  11.849  19.381  0.00  0.00    +0.000 N 
BRANCH  11  12
ATOM     12  C   UNL     1       0.094  12.655  20.277  0.00  0.00    +0.000 C 
BRANCH  12  13
ATOM     13  C   UNL     1       1.143  13.472  19.569  0.00  0.00    +0.000 A 
ATOM     14  C   UNL     1       2.232  12.848  18.938  0.00  0.00    +0.000 A 
ATOM     15  C   UNL     1       3.145  13.594  18.186  0.00  0.00    +0.000 A 
ATOM     16  C   UNL     1       2.981  14.968  18.046  0.00  0.00    +0.000 A 
ATOM     17  C   UNL     1       1.911  15.604  18.670  0.00  0.00    +0.000 A 
ATOM     18  C   UNL     1       1.001  14.862  19.429  0.00  0.00    +0.000 A 
ENDBRANCH  12  13
ENDBRANCH  11  12
ENDBRANCH   5   7
ENDBRANCH   1   3
BRANCH   1  19
ATOM     19  C   UNL     1       1.786   6.424  20.011  0.00  0.00    +0.000 C 
BRANCH  19  20
ATOM     20  N   UNL     1       2.745   6.464  18.919  0.00  0.00    +0.000 N 
ATOM     21  C   UNL     1       2.646   5.594  17.870  0.00  0.00    +0.000 C 
ATOM     22  O   UNL     1       1.710   4.825  17.712  0.00  0.00    +0.000 OA
ATOM     23  H   UNL     1       3.608   6.991  18.984  0.00  0.00    +0.000 HD
BRANCH  21  24
ATOM     24  O   UNL     1       3.779   5.635  17.134  0.00  0.00    +0.000 OA
BRANCH  24  25
ATOM     25  C   UNL     1       4.991   5.804  17.899  0.00  0.00    +0.000 C 
BRANCH  25  26
ATOM     26  C   UNL     1       6.242   5.807  17.017  0.00  0.00    +0.000 C 
ATOM     27  C   UNL     1       6.876   4.384  16.850  0.00  0.00    +0.000 C 
ATOM     28  C   UNL     1       7.013   4.667  15.342  0.00  0.00    +0.000 C 
ATOM     29  C   UNL     1       5.896   5.710  15.492  0.00  0.00    +0.000 C 
BRANCH  26  30
ATOM     30  C   UNL     1       7.275   6.894  17.376  0.00  0.00    +0.000 C 
ATOM     31  C   UNL     1       7.971   6.636  18.707  0.00  0.00    +0.000 C 
ENDBRANCH  26  30
ENDBRANCH  25  26
ENDBRANCH  24  25
ENDBRANCH  21  24
ENDBRANCH  19  20
BRANCH  19  32
ATOM     32  C   UNL     1       2.230   5.409  21.079  0.00  0.00    +0.000 C 
BRANCH  32  33
ATOM     33  C   UNL     1       1.508   4.052  21.027  0.00  0.00    +0.000 C 
BRANCH  33  35
ATOM     34  C   UNL     1       3.496   2.748  20.162  0.00  0.00    +0.000 C 
ATOM     35  C   UNL     1       2.440   2.857  21.250  0.00  0.00    +0.000 C 
ENDBRANCH  33  35
ENDBRANCH  32  33
ENDBRANCH  19  32
ENDBRANCH   1  19
TORSDOF 13
ENDMDL
MODEL 8
REMARK VINA RESULT:      -7.0      1.543      6.213
REMARK  Name = 
REMARK  15 active torsions:
REMARK  status: ('A' for Active; 'I' for Inactive)
REMARK    1  A    between atoms: C_1  and  C_2
REMARK    2  A    between atoms: C_2  and  C_3
REMARK    3  A    between atoms: C_3  and  C_4
REMARK    4  A    between atoms: C_4  and  C_5
REMARK    5  A    between atoms: C_5  and  N_6
REMARK    6  A    between atoms: C_5  and  C_17
REMARK    7  A    between atoms: C_7  and  O_9
REMARK    8  A    between atoms: O_9  and  C_10
REMARK    9  A    between atoms: C_10  and  C_11
REMARK   10  A    between atoms: C_11  and  C_12
REMARK   11  A    between atoms: C_12  and  C_13
REMARK   12  A    between atoms: C_17  and  C_19
REMARK   13  A    between atoms: N_21  and  C_22
REMARK   14  A    between atoms: N_26  and  C_27
REMARK   15  A    between atoms: C_27  and  C_28
REMARK                            x       y       z     vdW  Elec       q    Type
REMARK                         _______ _______ _______ _____ _____    ______ ____
ROOT
ATOM      1  C   UNL     1       6.736   5.914  18.396  0.00  0.00    +0.000 C 
ATOM      2  O   UNL     1       7.267   5.483  19.413  0.00  0.00    +0.000 OA
ENDROOT
BRANCH   1   3
ATOM      3  C   UNL     1       5.235   5.781  18.261  0.00  0.00    +0.000 C 
ATOM      4  O   UNL     1       4.559   6.592  17.660  0.00  0.00    +0.000 OA
ATOM      5  N   UNL     1       4.682   4.648  18.953  0.00  0.00    +0.000 N 
ATOM      6  H   UNL     1       5.309   4.122  19.554  0.00  0.00    +0.000 HD
BRANCH   5   7
ATOM      7  C   UNL     1       3.348   4.281  18.856  0.00  0.00    +0.000 A 
ATOM      8  C   UNL     1       2.772   3.447  17.922  0.00  0.00    +0.000 A 
ATOM      9  C   UNL     1       1.411   3.408  18.251  0.00  0.00    +0.000 A 
ATOM     10  N   UNL     1       1.120   4.160  19.313  0.00  0.00    +0.000 NA
ATOM     11  N   UNL     1       2.315   4.677  19.681  0.00  0.00    +0.000 N 
BRANCH  11  12
ATOM     12  C   UNL     1       2.343   5.720  20.697  0.00  0.00    +0.000 C 
BRANCH  12  13
ATOM     13  C   UNL     1       1.841   7.054  20.209  0.00  0.00    +0.000 A 
ATOM     14  C   UNL     1       1.213   7.949  21.090  0.00  0.00    +0.000 A 
ATOM     15  C   UNL     1       0.848   9.231  20.666  0.00  0.00    +0.000 A 
ATOM     16  C   UNL     1       1.109   9.639  19.362  0.00  0.00    +0.000 A 
ATOM     17  C   UNL     1       1.724   8.761  18.473  0.00  0.00    +0.000 A 
ATOM     18  C   UNL     1       2.084   7.477  18.892  0.00  0.00    +0.000 A 
ENDBRANCH  12  13
ENDBRANCH  11  12
ENDBRANCH   5   7
ENDBRANCH   1   3
BRANCH   1  19
ATOM     19  C   UNL     1       7.443   6.533  17.204  0.00  0.00    +0.000 C 
BRANCH  19  20
ATOM     20  N   UNL     1       6.749   6.168  15.980  0.00  0.00    +0.000 N 
ATOM     21  C   UNL     1       7.000   4.976  15.363  0.00  0.00    +0.000 C 
ATOM     22  O   UNL     1       7.710   4.102  15.837  0.00  0.00    +0.000 OA
ATOM     23  H   UNL     1       6.212   6.844  15.449  0.00  0.00    +0.000 HD
BRANCH  21  24
ATOM     24  O   UNL     1       6.456   4.979  14.126  0.00  0.00    +0.000 OA
BRANCH  24  25
ATOM     25  C   UNL     1       5.499   3.926  13.883  0.00  0.00    +0.000 C 
BRANCH  25  26
ATOM     26  C   UNL     1       5.601   3.359  12.464  0.00  0.00    +0.000 C 
ATOM     27  C   UNL     1       6.658   4.107  11.582  0.00  0.00    +0.000 C 
ATOM     28  C   UNL     1       7.174   2.735  11.108  0.00  0.00    +0.000 C 
ATOM     29  C   UNL     1       6.569   2.130  12.383  0.00  0.00    +0.000 C 
BRANCH  26  30
ATOM     30  C   UNL     1       4.247   3.163  11.754  0.00  0.00    +0.000 C 
ATOM     31  C   UNL     1       4.051   4.110  10.576  0.00  0.00    +0.000 C 
ENDBRANCH  26  30
ENDBRANCH  25  26
ENDBRANCH  24  25
ENDBRANCH  21  24
ENDBRANCH  19  20
BRANCH  19  32
ATOM     32  C   UNL     1       7.537   8.063  17.333  0.00  0.00    +0.000 C 
BRANCH  32  33
ATOM     33  C   UNL     1       8.513   8.566  18.411  0.00  0.00    +0.000 C 
BRANCH  33  35
ATOM     34  C   UNL     1       9.574  10.569  19.535  0.00  0.00    +0.000 C 
ATOM     35  C   UNL     1       8.766  10.075  18.346  0.00  0.00    +0.000 C 
ENDBRANCH  33  35
ENDBRANCH  32  33
ENDBRANCH  19  32
ENDBRANCH   1  19
TORSDOF 13
ENDMDL
MODEL 9
REMARK VINA RESULT:      -7.0      4.690      9.303
REMARK  Name = 
REMARK  15 active torsions:
REMARK  status: ('A' for Active; 'I' for Inactive)
REMARK    1  A    between atoms: C_1  and  C_2
REMARK    2  A    between atoms: C_2  and  C_3
REMARK    3  A    between atoms: C_3  and  C_4
REMARK    4  A    between atoms: C_4  and  C_5
REMARK    5  A    between atoms: C_5  and  N_6
REMARK    6  A    between atoms: C_5  and  C_17
REMARK    7  A    between atoms: C_7  and  O_9
REMARK    8  A    between atoms: O_9  and  C_10
REMARK    9  A    between atoms: C_10  and  C_11
REMARK   10  A    between atoms: C_11  and  C_12
REMARK   11  A    between atoms: C_12  and  C_13
REMARK   12  A    between atoms: C_17  and  C_19
REMARK   13  A    between atoms: N_21  and  C_22
REMARK   14  A    between atoms: N_26  and  C_27
REMARK   15  A    between atoms: C_27  and  C_28
REMARK                            x       y       z     vdW  Elec       q    Type
REMARK                         _______ _______ _______ _____ _____    ______ ____
ROOT
ATOM      1  C   UNL     1       1.173   9.484  21.972  0.00  0.00    +0.000 C 
ATOM      2  O   UNL     1       2.014   9.547  22.861  0.00  0.00    +0.000 OA
ENDROOT
BRANCH   1   3
ATOM      3  C   UNL     1       0.875   8.130  21.364  0.00  0.00    +0.000 C 
ATOM      4  O   UNL     1      -0.248   7.668  21.320  0.00  0.00    +0.000 OA
ATOM      5  N   UNL     1       2.040   7.426  20.900  0.00  0.00    +0.000 N 
ATOM      6  H   UNL     1       2.944   7.830  21.123  0.00  0.00    +0.000 HD
BRANCH   5   7
ATOM      7  C   UNL     1       1.970   6.228  20.205  0.00  0.00    +0.000 A 
ATOM      8  C   UNL     1       1.450   5.030  20.644  0.00  0.00    +0.000 A 
ATOM      9  C   UNL     1       1.625   4.137  19.579  0.00  0.00    +0.000 A 
ATOM     10  N   UNL     1       2.217   4.706  18.528  0.00  0.00    +0.000 NA
ATOM     11  N   UNL     1       2.410   5.986  18.919  0.00  0.00    +0.000 N 
BRANCH  11  12
ATOM     12  C   UNL     1       3.227   6.856  18.084  0.00  0.00    +0.000 C 
BRANCH  12  13
ATOM     13  C   UNL     1       4.563   6.264  17.719  0.00  0.00    +0.000 A 
ATOM     14  C   UNL     1       5.369   5.656  18.697  0.00  0.00    +0.000 A 
ATOM     15  C   UNL     1       6.556   5.008  18.341  0.00  0.00    +0.000 A 
ATOM     16  C   UNL     1       6.953   4.952  17.009  0.00  0.00    +0.000 A 
ATOM     17  C   UNL     1       6.170   5.556  16.029  0.00  0.00    +0.000 A 
ATOM     18  C   UNL     1       4.987   6.211  16.381  0.00  0.00    +0.000 A 
ENDBRANCH  12  13
ENDBRANCH  11  12
ENDBRANCH   5   7
ENDBRANCH   1   3
BRANCH   1  19
ATOM     19  C   UNL     1       0.420  10.650  21.361  0.00  0.00    +0.000 C 
BRANCH  19  20
ATOM     20  N   UNL     1      -0.200  10.233  20.113  0.00  0.00    +0.000 N 
ATOM     21  C   UNL     1       0.148  10.821  18.930  0.00  0.00    +0.000 C 
ATOM     22  O   UNL     1       1.059  11.626  18.814  0.00  0.00    +0.000 OA
ATOM     23  H   UNL     1      -1.026   9.646  20.097  0.00  0.00    +0.000 HD
BRANCH  21  24
ATOM     24  O   UNL     1      -0.737  10.472  17.970  0.00  0.00    +0.000 OA
BRANCH  24  25
ATOM     25  C   UNL     1      -1.840  11.387  17.802  0.00  0.00    +0.000 C 
BRANCH  25  26
ATOM     26  C   UNL     1      -3.007  10.762  17.034  0.00  0.00    +0.000 C 
ATOM     27  C   UNL     1      -3.250  11.433  15.639  0.00  0.00    +0.000 C 
ATOM     28  C   UNL     1      -3.381  10.024  15.029  0.00  0.00    +0.000 C 
ATOM     29  C   UNL     1      -2.573   9.493  16.222  0.00  0.00    +0.000 C 
BRANCH  26  30
ATOM     30  C   UNL     1      -4.297  10.589  17.859  0.00  0.00    +0.000 C 
ATOM     31  C   UNL     1      -4.932  11.917  18.253  0.00  0.00    +0.000 C 
ENDBRANCH  26  30
ENDBRANCH  25  26
ENDBRANCH  24  25
ENDBRANCH  21  24
ENDBRANCH  19  20
BRANCH  19  32
ATOM     32  C   UNL     1      -0.641  11.208  22.327  0.00  0.00    +0.000 C 
BRANCH  32  33
ATOM     33  C   UNL     1      -1.715  12.092  21.673  0.00  0.00    +0.000 C 
BRANCH  33  35
ATOM     34  C   UNL     1      -0.320  14.095  22.339  0.00  0.00    +0.000 C 
ATOM     35  C   UNL     1      -1.724  13.530  22.200  0.00  0.00    +0.000 C 
ENDBRANCH  33  35
ENDBRANCH  32  33
ENDBRANCH  19  32
ENDBRANCH   1  19
TORSDOF 13
ENDMDL
