MODEL 1
REMARK VINA RESULT:      -7.6      0.000      0.000
REMARK  Name = 
REMARK  5 active torsions:
REMARK  status: ('A' for Active; 'I' for Inactive)
REMARK    1  A    between atoms: C_1  and  O_2
REMARK    2  A    between atoms: O_2  and  C_3
REMARK    3  A    between atoms: C_3  and  C_5
REMARK    4  A    between atoms: C_8  and  C_9
REMARK    5  A    between atoms: C_12  and  C_13
REMARK                            x       y       z     vdW  Elec       q    Type
REMARK                         _______ _______ _______ _____ _____    ______ ____
ROOT
ATOM      1  C   UNL     1       3.437   6.560  17.991  0.00  0.00    +0.000 A 
ATOM      2  C   UNL     1       2.996   7.819  17.569  0.00  0.00    +0.000 A 
ATOM      3  C   UNL     1       2.204   8.619  18.402  0.00  0.00    +0.000 A 
ATOM      4  C   UNL     1       1.803   8.188  19.677  0.00  0.00    +0.000 A 
ATOM      5  C   UNL     1       2.251   6.921  20.091  0.00  0.00    +0.000 A 
ATOM      6  C   UNL     1       3.058   6.122  19.265  0.00  0.00    +0.000 A 
ENDROOT
BRANCH   4   7
ATOM      7  C   UNL     1       0.946   9.040  20.537  0.00  0.00    +0.000 A 
ATOM      8  C   UNL     1       0.910   8.862  21.935  0.00  0.00    +0.000 A 
ATOM      9  C   UNL     1       0.086   9.640  22.752  0.00  0.00    +0.000 A 
ATOM     10  C   UNL     1      -0.711  10.632  22.194  0.00  0.00    +0.000 A 
ATOM     11  C   UNL     1      -0.687  10.843  20.819  0.00  0.00    +0.000 A 
ATOM     12  C   UNL     1       0.129  10.051  20.001  0.00  0.00    +0.000 A 
ENDBRANCH   4   7
BRANCH   1  16
ATOM     13  C   UNL     1       5.583   4.854  15.690  0.00  0.00    +0.000 A 
ATOM     14  C   UNL     1       5.083   3.836  16.469  0.00  0.00    +0.000 A 
ATOM     15  O   UNL     1       4.250   4.374  17.398  0.00  0.00    +0.000 OA
ATOM     16  C   UNL     1       4.276   5.721  17.141  0.00  0.00    +0.000 A 
ATOM     17  N   UNL     1       5.063   6.060  16.138  0.00  0.00    +0.000 NA
BRANCH  13  18
ATOM     18  C   UNL     1       6.502   4.684  14.578  0.00  0.00    +0.000 C 
ATOM     19  O   UNL     1       7.504   5.374  14.430  0.00  0.00    +0.000 OA
BRANCH  18  21
ATOM     20  C   UNL     1       6.659   3.797  12.414  0.00  0.00    +0.000 C 
ATOM     21  O   UNL     1       6.125   3.683  13.732  0.00  0.00    +0.000 OA
ENDBRANCH  18  21
ENDBRANCH  13  18
ENDBRANCH   1  16
TORSDOF 4
ENDMDL
MODEL 2
REMARK VINA RESULT:      -7.6      0.132      1.487
REMARK  Name = 
REMARK  5 active torsions:
REMARK  status: ('A' for Active; 'I' for Inactive)
REMARK    1  A    between atoms: C_1  and  O_2
REMARK    2  A    between atoms: O_2  and  C_3
REMARK    3  A    between atoms: C_3  and  C_5
REMARK    4  A    between atoms: C_8  and  C_9
REMARK    5  A    between atoms: C_12  and  C_13
REMARK                            x       y       z     vdW  Elec       q    Type
REMARK                         _______ _______ _______ _____ _____    ______ ____
ROOT
ATOM      1  C   UNL     1       3.428   6.551  18.056  0.00  0.00    +0.000 A 
ATOM      2  C   UNL     1       3.043   6.103  19.324  0.00  0.00    +0.000 A 
ATOM      3  C   UNL     1       2.230   6.891  20.148  0.00  0.00    +0.000 A 
ATOM      4  C   UNL     1       1.785   8.163  19.749  0.00  0.00    +0.000 A 
ATOM      5  C   UNL     1       2.179   8.603  18.473  0.00  0.00    +0.000 A 
ATOM      6  C   UNL     1       2.982   7.809  17.638  0.00  0.00    +0.000 A 
ENDROOT
BRANCH   4   7
ATOM      7  C   UNL     1       0.941   8.992  20.642  0.00  0.00    +0.000 A 
ATOM      8  C   UNL     1       0.146  10.038  20.131  0.00  0.00    +0.000 A 
ATOM      9  C   UNL     1      -0.631  10.843  20.967  0.00  0.00    +0.000 A 
ATOM     10  C   UNL     1      -0.649  10.612  22.337  0.00  0.00    +0.000 A 
ATOM     11  C   UNL     1       0.113   9.579  22.871  0.00  0.00    +0.000 A 
ATOM     12  C   UNL     1       0.903   8.782  22.033  0.00  0.00    +0.000 A 
ENDBRANCH   4   7
BRANCH   1  16
ATOM     13  C   UNL     1       5.537   4.902  15.681  0.00  0.00    +0.000 A 
ATOM     14  C   UNL     1       5.123   3.876  16.499  0.00  0.00    +0.000 A 
ATOM     15  O   UNL     1       4.312   4.392  17.459  0.00  0.00    +0.000 OA
ATOM     16  C   UNL     1       4.263   5.735  17.180  0.00  0.00    +0.000 A 
ATOM     17  N   UNL     1       4.984   6.091  16.134  0.00  0.00    +0.000 NA
BRANCH  13  18
ATOM     18  C   UNL     1       6.408   4.753  14.527  0.00  0.00    +0.000 C 
ATOM     19  O   UNL     1       7.504   5.297  14.445  0.00  0.00    +0.000 OA
BRANCH  18  21
ATOM     20  C   UNL     1       6.725   3.738  12.439  0.00  0.00    +0.000 C 
ATOM     21  O   UNL     1       5.874   3.950  13.563  0.00  0.00    +0.000 OA
ENDBRANCH  18  21
ENDBRANCH  13  18
ENDBRANCH   1  16
TORSDOF 4
ENDMDL
MODEL 3
REMARK VINA RESULT:      -7.5      0.913      1.004
REMARK  Name = 
REMARK  5 active torsions:
REMARK  status: ('A' for Active; 'I' for Inactive)
REMARK    1  A    between atoms: C_1  and  O_2
REMARK    2  A    between atoms: O_2  and  C_3
REMARK    3  A    between atoms: C_3  and  C_5
REMARK    4  A    between atoms: C_8  and  C_9
REMARK    5  A    between atoms: C_12  and  C_13
REMARK                            x       y       z     vdW  Elec       q    Type
REMARK                         _______ _______ _______ _____ _____    ______ ____
ROOT
ATOM      1  C   UNL     1       2.854   6.988  18.548  0.00  0.00    +0.000 A 
ATOM      2  C   UNL     1       2.433   8.244  18.097  0.00  0.00    +0.000 A 
ATOM      3  C   UNL     1       1.640   9.068  18.905  0.00  0.00    +0.000 A 
ATOM      4  C   UNL     1       1.220   8.666  20.184  0.00  0.00    +0.000 A 
ATOM      5  C   UNL     1       1.648   7.402  20.626  0.00  0.00    +0.000 A 
ATOM      6  C   UNL     1       2.455   6.579  19.826  0.00  0.00    +0.000 A 
ENDROOT
BRANCH   4   7
ATOM      7  C   UNL     1       0.363   9.544  21.018  0.00  0.00    +0.000 A 
ATOM      8  C   UNL     1       0.139   9.264  22.381  0.00  0.00    +0.000 A 
ATOM      9  C   UNL     1      -0.688  10.068  23.169  0.00  0.00    +0.000 A 
ATOM     10  C   UNL     1      -1.299  11.188  22.618  0.00  0.00    +0.000 A 
ATOM     11  C   UNL     1      -1.087  11.500  21.279  0.00  0.00    +0.000 A 
ATOM     12  C   UNL     1      -0.269  10.684  20.488  0.00  0.00    +0.000 A 
ENDBRANCH   4   7
BRANCH   1  16
ATOM     13  C   UNL     1       5.152   5.208  16.461  0.00  0.00    +0.000 A 
ATOM     14  C   UNL     1       4.183   4.270  16.733  0.00  0.00    +0.000 A 
ATOM     15  O   UNL     1       3.248   4.839  17.538  0.00  0.00    +0.000 OA
ATOM     16  C   UNL     1       3.692   6.123  17.725  0.00  0.00    +0.000 A 
ATOM     17  N   UNL     1       4.829   6.391  17.110  0.00  0.00    +0.000 NA
BRANCH  13  18
ATOM     18  C   UNL     1       6.318   4.988  15.622  0.00  0.00    +0.000 C 
ATOM     19  O   UNL     1       7.214   5.815  15.496  0.00  0.00    +0.000 OA
BRANCH  18  21
ATOM     20  C   UNL     1       6.203   3.843  13.580  0.00  0.00    +0.000 C 
ATOM     21  O   UNL     1       6.300   3.773  15.002  0.00  0.00    +0.000 OA
ENDBRANCH  18  21
ENDBRANCH  13  18
ENDBRANCH   1  16
TORSDOF 4
ENDMDL
MODEL 4
REMARK VINA RESULT:      -7.5      0.143      1.058
REMARK  Name = 
REMARK  5 active torsions:
REMARK  status: ('A' for Active; 'I' for Inactive)
REMARK    1  A    between atoms: C_1  and  O_2
REMARK    2  A    between atoms: O_2  and  C_3
REMARK    3  A    between atoms: C_3  and  C_5
REMARK    4  A    between atoms: C_8  and  C_9
REMARK    5  A    between atoms: C_12  and  C_13
REMARK                            x       y       z     vdW  Elec       q    Type
REMARK                         _______ _______ _______ _____ _____    ______ ____
ROOT
ATOM      1  C   UNL     1       3.452   6.554  18.088  0.00  0.00    +0.000 A 
ATOM      2  C   UNL     1       3.012   7.817  17.679  0.00  0.00    +0.000 A 
ATOM      3  C   UNL     1       2.211   8.604  18.515  0.00  0.00    +0.000 A 
ATOM      4  C   UNL     1       1.800   8.155  19.782  0.00  0.00    +0.000 A 
ATOM      5  C   UNL     1       2.247   6.884  20.182  0.00  0.00    +0.000 A 
ATOM      6  C   UNL     1       3.064   6.098  19.353  0.00  0.00    +0.000 A 
ENDROOT
BRANCH   4   7
ATOM      7  C   UNL     1       0.934   8.994  20.645  0.00  0.00    +0.000 A 
ATOM      8  C   UNL     1       0.115  10.002  20.098  0.00  0.00    +0.000 A 
ATOM      9  C   UNL     1      -0.685  10.816  20.904  0.00  0.00    +0.000 A 
ATOM     10  C   UNL     1      -0.701  10.630  22.282  0.00  0.00    +0.000 A 
ATOM     11  C   UNL     1       0.085   9.634  22.852  0.00  0.00    +0.000 A 
ATOM     12  C   UNL     1       0.896   8.829  22.042  0.00  0.00    +0.000 A 
ENDBRANCH   4   7
BRANCH   1  16
ATOM     13  C   UNL     1       5.571   4.869  15.747  0.00  0.00    +0.000 A 
ATOM     14  C   UNL     1       5.231   3.875  16.636  0.00  0.00    +0.000 A 
ATOM     15  O   UNL     1       4.422   4.408  17.589  0.00  0.00    +0.000 OA
ATOM     16  C   UNL     1       4.301   5.728  17.235  0.00  0.00    +0.000 A 
ATOM     17  N   UNL     1       4.974   6.055  16.148  0.00  0.00    +0.000 NA
BRANCH  13  18
ATOM     18  C   UNL     1       6.415   4.693  14.578  0.00  0.00    +0.000 C 
ATOM     19  O   UNL     1       7.515   5.224  14.464  0.00  0.00    +0.000 OA
BRANCH  18  21
ATOM     20  C   UNL     1       6.634   3.723  12.456  0.00  0.00    +0.000 C 
ATOM     21  O   UNL     1       5.851   3.882  13.638  0.00  0.00    +0.000 OA
ENDBRANCH  18  21
ENDBRANCH  13  18
ENDBRANCH   1  16
TORSDOF 4
ENDMDL
MODEL 5
REMARK VINA RESULT:      -7.5      0.897      1.416
REMARK  Name = 
REMARK  5 active torsions:
REMARK  status: ('A' for Active; 'I' for Inactive)
REMARK    1  A    between atoms: C_1  and  O_2
REMARK    2  A    between atoms: O_2  and  C_3
REMARK    3  A    between atoms: C_3  and  C_5
REMARK    4  A    between atoms: C_8  and  C_9
REMARK    5  A    between atoms: C_12  and  C_13
REMARK                            x       y       z     vdW  Elec       q    Type
REMARK                         _______ _______ _______ _____ _____    ______ ____
ROOT
ATOM      1  C   UNL     1       3.089   6.884  18.480  0.00  0.00    +0.000 A 
ATOM      2  C   UNL     1       2.652   6.493  19.750  0.00  0.00    +0.000 A 
ATOM      3  C   UNL     1       1.810   7.319  20.505  0.00  0.00    +0.000 A 
ATOM      4  C   UNL     1       1.387   8.573  20.034  0.00  0.00    +0.000 A 
ATOM      5  C   UNL     1       1.834   8.956  18.757  0.00  0.00    +0.000 A 
ATOM      6  C   UNL     1       2.666   8.125  17.990  0.00  0.00    +0.000 A 
ENDROOT
BRANCH   4   7
ATOM      7  C   UNL     1       0.512   9.443  20.856  0.00  0.00    +0.000 A 
ATOM      8  C   UNL     1       0.281   9.166  22.218  0.00  0.00    +0.000 A 
ATOM      9  C   UNL     1      -0.563   9.963  22.996  0.00  0.00    +0.000 A 
ATOM     10  C   UNL     1      -1.185  11.072  22.435  0.00  0.00    +0.000 A 
ATOM     11  C   UNL     1      -0.965  11.381  21.097  0.00  0.00    +0.000 A 
ATOM     12  C   UNL     1      -0.130  10.572  20.316  0.00  0.00    +0.000 A 
ENDBRANCH   4   7
BRANCH   1  16
ATOM     13  C   UNL     1       5.472   5.119  16.476  0.00  0.00    +0.000 A 
ATOM     14  C   UNL     1       4.446   4.213  16.615  0.00  0.00    +0.000 A 
ATOM     15  O   UNL     1       3.473   4.779  17.377  0.00  0.00    +0.000 OA
ATOM     16  C   UNL     1       3.955   6.029  17.674  0.00  0.00    +0.000 A 
ATOM     17  N   UNL     1       5.147   6.278  17.167  0.00  0.00    +0.000 NA
BRANCH  13  18
ATOM     18  C   UNL     1       6.691   4.893  15.719  0.00  0.00    +0.000 C 
ATOM     19  O   UNL     1       7.722   4.467  16.228  0.00  0.00    +0.000 OA
BRANCH  18  21
ATOM     20  C   UNL     1       6.435   4.070  13.539  0.00  0.00    +0.000 C 
ATOM     21  O   UNL     1       6.557   5.203  14.398  0.00  0.00    +0.000 OA
ENDBRANCH  18  21
ENDBRANCH  13  18
ENDBRANCH   1  16
TORSDOF 4
ENDMDL
MODEL 6
REMARK VINA RESULT:      -7.4      0.984      1.532
REMARK  Name = 
REMARK  5 active torsions:
REMARK  status: ('A' for Active; 'I' for Inactive)
REMARK    1  A    between atoms: C_1  and  O_2
REMARK    2  A    between atoms: O_2  and  C_3
REMARK    3  A    between atoms: C_3  and  C_5
REMARK    4  A    between atoms: C_8  and  C_9
REMARK    5  A    between atoms: C_12  and  C_13
REMARK                            x       y       z     vdW  Elec       q    Type
REMARK                         _______ _______ _______ _____ _____    ______ ____
ROOT
ATOM      1  C   UNL     1       2.897   7.002  18.592  0.00  0.00    +0.000 A 
ATOM      2  C   UNL     1       2.450   8.236  18.107  0.00  0.00    +0.000 A 
ATOM      3  C   UNL     1       1.635   9.063  18.889  0.00  0.00    +0.000 A 
ATOM      4  C   UNL     1       1.218   8.685  20.177  0.00  0.00    +0.000 A 
ATOM      5  C   UNL     1       1.672   7.443  20.654  0.00  0.00    +0.000 A 
ATOM      6  C   UNL     1       2.502   6.618  19.879  0.00  0.00    +0.000 A 
ENDROOT
BRANCH   4   7
ATOM      7  C   UNL     1       0.338   9.565  20.984  0.00  0.00    +0.000 A 
ATOM      8  C   UNL     1      -0.238  10.726  20.430  0.00  0.00    +0.000 A 
ATOM      9  C   UNL     1      -1.046  11.577  21.188  0.00  0.00    +0.000 A 
ATOM     10  C   UNL     1      -1.317  11.278  22.518  0.00  0.00    +0.000 A 
ATOM     11  C   UNL     1      -0.776  10.131  23.090  0.00  0.00    +0.000 A 
ATOM     12  C   UNL     1       0.046   9.288  22.331  0.00  0.00    +0.000 A 
ENDBRANCH   4   7
BRANCH   1  16
ATOM     13  C   UNL     1       5.268   5.210  16.598  0.00  0.00    +0.000 A 
ATOM     14  C   UNL     1       4.250   4.301  16.769  0.00  0.00    +0.000 A 
ATOM     15  O   UNL     1       3.282   4.877  17.530  0.00  0.00    +0.000 OA
ATOM     16  C   UNL     1       3.759   6.136  17.795  0.00  0.00    +0.000 A 
ATOM     17  N   UNL     1       4.944   6.381  17.269  0.00  0.00    +0.000 NA
BRANCH  13  18
ATOM     18  C   UNL     1       6.481   4.975  15.833  0.00  0.00    +0.000 C 
ATOM     19  O   UNL     1       7.523   4.577  16.341  0.00  0.00    +0.000 OA
BRANCH  18  21
ATOM     20  C   UNL     1       6.381   4.093  13.664  0.00  0.00    +0.000 C 
ATOM     21  O   UNL     1       6.326   5.244  14.505  0.00  0.00    +0.000 OA
ENDBRANCH  18  21
ENDBRANCH  13  18
ENDBRANCH   1  16
TORSDOF 4
ENDMDL
MODEL 7
REMARK VINA RESULT:      -7.4      1.411      2.390
REMARK  Name = 
REMARK  5 active torsions:
REMARK  status: ('A' for Active; 'I' for Inactive)
REMARK    1  A    between atoms: C_1  and  O_2
REMARK    2  A    between atoms: O_2  and  C_3
REMARK    3  A    between atoms: C_3  and  C_5
REMARK    4  A    between atoms: C_8  and  C_9
REMARK    5  A    between atoms: C_12  and  C_13
REMARK                            x       y       z     vdW  Elec       q    Type
REMARK                         _______ _______ _______ _____ _____    ______ ____
ROOT
ATOM      1  C   UNL     1       2.595   7.319  18.725  0.00  0.00    +0.000 A 
ATOM      2  C   UNL     1       2.232   7.027  20.043  0.00  0.00    +0.000 A 
ATOM      3  C   UNL     1       1.400   7.889  20.767  0.00  0.00    +0.000 A 
ATOM      4  C   UNL     1       0.914   9.085  20.213  0.00  0.00    +0.000 A 
ATOM      5  C   UNL     1       1.286   9.369  18.888  0.00  0.00    +0.000 A 
ATOM      6  C   UNL     1       2.108   8.500  18.153  0.00  0.00    +0.000 A 
ENDROOT
BRANCH   4   7
ATOM      7  C   UNL     1       0.050   9.997  21.002  0.00  0.00    +0.000 A 
ATOM      8  C   UNL     1      -0.532  11.139  20.416  0.00  0.00    +0.000 A 
ATOM      9  C   UNL     1      -1.325  12.020  21.156  0.00  0.00    +0.000 A 
ATOM     10  C   UNL     1      -1.573  11.771  22.501  0.00  0.00    +0.000 A 
ATOM     11  C   UNL     1      -1.025  10.644  23.105  0.00  0.00    +0.000 A 
ATOM     12  C   UNL     1      -0.218   9.771  22.364  0.00  0.00    +0.000 A 
ENDBRANCH   4   7
BRANCH   1  16
ATOM     13  C   UNL     1       4.924   5.464  16.738  0.00  0.00    +0.000 A 
ATOM     14  C   UNL     1       3.978   4.523  17.075  0.00  0.00    +0.000 A 
ATOM     15  O   UNL     1       3.034   5.120  17.849  0.00  0.00    +0.000 OA
ATOM     16  C   UNL     1       3.450   6.424  17.951  0.00  0.00    +0.000 A 
ATOM     17  N   UNL     1       4.577   6.678  17.313  0.00  0.00    +0.000 NA
BRANCH  13  18
ATOM     18  C   UNL     1       6.090   5.217  15.907  0.00  0.00    +0.000 C 
ATOM     19  O   UNL     1       6.300   5.817  14.858  0.00  0.00    +0.000 OA
BRANCH  18  21
ATOM     20  C   UNL     1       7.584   4.645  17.620  0.00  0.00    +0.000 C 
ATOM     21  O   UNL     1       6.911   4.259  16.423  0.00  0.00    +0.000 OA
ENDBRANCH  18  21
ENDBRANCH  13  18
ENDBRANCH   1  16
TORSDOF 4
ENDMDL
MODEL 8
REMARK VINA RESULT:      -7.4      1.326      2.056
REMARK  Name = 
REMARK  5 active torsions:
REMARK  status: ('A' for Active; 'I' for Inactive)
REMARK    1  A    between atoms: C_1  and  O_2
REMARK    2  A    between atoms: O_2  and  C_3
REMARK    3  A    between atoms: C_3  and  C_5
REMARK    4  A    between atoms: C_8  and  C_9
REMARK    5  A    between atoms: C_12  and  C_13
REMARK                            x       y       z     vdW  Elec       q    Type
REMARK                         _______ _______ _______ _____ _____    ______ ____
ROOT
ATOM      1  C   UNL     1       2.682   7.104  18.744  0.00  0.00    +0.000 A 
ATOM      2  C   UNL     1       2.263   6.749  20.030  0.00  0.00    +0.000 A 
ATOM      3  C   UNL     1       1.459   7.610  20.787  0.00  0.00    +0.000 A 
ATOM      4  C   UNL     1       1.059   8.866  20.300  0.00  0.00    +0.000 A 
ATOM      5  C   UNL     1       1.487   9.213  19.007  0.00  0.00    +0.000 A 
ATOM      6  C   UNL     1       2.280   8.346  18.239  0.00  0.00    +0.000 A 
ENDROOT
BRANCH   4   7
ATOM      7  C   UNL     1       0.225   9.775  21.124  0.00  0.00    +0.000 A 
ATOM      8  C   UNL     1      -0.140   9.435  22.442  0.00  0.00    +0.000 A 
ATOM      9  C   UNL     1      -0.947  10.271  23.218  0.00  0.00    +0.000 A 
ATOM     10  C   UNL     1      -1.398  11.480  22.701  0.00  0.00    +0.000 A 
ATOM     11  C   UNL     1      -1.043  11.850  21.408  0.00  0.00    +0.000 A 
ATOM     12  C   UNL     1      -0.246  11.004  20.628  0.00  0.00    +0.000 A 
ENDBRANCH   4   7
BRANCH   1  16
ATOM     13  C   UNL     1       4.945   5.252  16.680  0.00  0.00    +0.000 A 
ATOM     14  C   UNL     1       3.983   4.323  17.004  0.00  0.00    +0.000 A 
ATOM     15  O   UNL     1       3.062   4.920  17.805  0.00  0.00    +0.000 OA
ATOM     16  C   UNL     1       3.507   6.211  17.937  0.00  0.00    +0.000 A 
ATOM     17  N   UNL     1       4.632   6.458  17.291  0.00  0.00    +0.000 NA
BRANCH  13  18
ATOM     18  C   UNL     1       6.096   5.003  15.828  0.00  0.00    +0.000 C 
ATOM     19  O   UNL     1       6.231   5.518  14.723  0.00  0.00    +0.000 OA
BRANCH  18  21
ATOM     20  C   UNL     1       7.616   4.644  17.575  0.00  0.00    +0.000 C 
ATOM     21  O   UNL     1       6.993   4.146  16.392  0.00  0.00    +0.000 OA
ENDBRANCH  18  21
ENDBRANCH  13  18
ENDBRANCH   1  16
TORSDOF 4
ENDMDL
MODEL 9
REMARK VINA RESULT:      -7.4      1.014      1.933
REMARK  Name = 
REMARK  5 active torsions:
REMARK  status: ('A' for Active; 'I' for Inactive)
REMARK    1  A    between atoms: C_1  and  O_2
REMARK    2  A    between atoms: O_2  and  C_3
REMARK    3  A    between atoms: C_3  and  C_5
REMARK    4  A    between atoms: C_8  and  C_9
REMARK    5  A    between atoms: C_12  and  C_13
REMARK                            x       y       z     vdW  Elec       q    Type
REMARK                         _______ _______ _______ _____ _____    ______ ____
ROOT
ATOM      1  C   UNL     1       2.880   7.182  18.510  0.00  0.00    +0.000 A 
ATOM      2  C   UNL     1       2.488   6.898  19.823  0.00  0.00    +0.000 A 
ATOM      3  C   UNL     1       1.628   7.758  20.517  0.00  0.00    +0.000 A 
ATOM      4  C   UNL     1       1.142   8.942  19.939  0.00  0.00    +0.000 A 
ATOM      5  C   UNL     1       1.542   9.218  18.620  0.00  0.00    +0.000 A 
ATOM      6  C   UNL     1       2.392   8.351  17.915  0.00  0.00    +0.000 A 
ENDROOT
BRANCH   4   7
ATOM      7  C   UNL     1       0.248   9.851  20.697  0.00  0.00    +0.000 A 
ATOM      8  C   UNL     1      -0.470  10.876  20.048  0.00  0.00    +0.000 A 
ATOM      9  C   UNL     1      -1.294  11.755  20.756  0.00  0.00    +0.000 A 
ATOM     10  C   UNL     1      -1.435  11.622  22.132  0.00  0.00    +0.000 A 
ATOM     11  C   UNL     1      -0.751  10.611  22.800  0.00  0.00    +0.000 A 
ATOM     12  C   UNL     1       0.085   9.740  22.090  0.00  0.00    +0.000 A 
ENDBRANCH   4   7
BRANCH   1  16
ATOM     13  C   UNL     1       5.308   5.323  16.650  0.00  0.00    +0.000 A 
ATOM     14  C   UNL     1       4.278   4.424  16.811  0.00  0.00    +0.000 A 
ATOM     15  O   UNL     1       3.289   5.026  17.521  0.00  0.00    +0.000 OA
ATOM     16  C   UNL     1       3.764   6.289  17.767  0.00  0.00    +0.000 A 
ATOM     17  N   UNL     1       4.968   6.514  17.276  0.00  0.00    +0.000 NA
BRANCH  13  18
ATOM     18  C   UNL     1       6.544   5.060  15.933  0.00  0.00    +0.000 C 
ATOM     19  O   UNL     1       7.557   4.643  16.483  0.00  0.00    +0.000 OA
BRANCH  18  21
ATOM     20  C   UNL     1       6.421   4.167  13.770  0.00  0.00    +0.000 C 
ATOM     21  O   UNL     1       6.447   5.327  14.600  0.00  0.00    +0.000 OA
ENDBRANCH  18  21
ENDBRANCH  13  18
ENDBRANCH   1  16
TORSDOF 4
ENDMDL
