MODEL 1
REMARK VINA RESULT:      -8.3      0.000      0.000
REMARK  Name = 
REMARK  6 active torsions:
REMARK  status: ('A' for Active; 'I' for Inactive)
REMARK    1  A    between atoms: C_1  and  C_2
REMARK    2  A    between atoms: C_4  and  C_5
REMARK    3  A    between atoms: C_6  and  N_7
REMARK    4  A    between atoms: C_8  and  C_10
REMARK    5  A    between atoms: N_14  and  C_15
REMARK    6  A    between atoms: C_26  and  C_27
REMARK                            x       y       z     vdW  Elec       q    Type
REMARK                         _______ _______ _______ _____ _____    ______ ____
ROOT
ATOM      1  C   UNL     1       0.869  10.358  19.677  0.00  0.00    +0.000 C 
ATOM      2  C   UNL     1       1.611  10.382  18.350  0.00  0.00    +0.000 C 
ATOM      3  C   UNL     1       2.066   8.955  18.140  0.00  0.00    +0.000 C 
ATOM      4  O   UNL     1       2.504   8.553  17.073  0.00  0.00    +0.000 OA
ATOM      5  N   UNL     1       1.870   8.259  19.341  0.00  0.00    +0.000 N 
ATOM      6  C   UNL     1       1.416   9.142  20.395  0.00  0.00    +0.000 C 
ENDROOT
BRANCH   5   7
ATOM      7  C   UNL     1       2.178   6.890  19.581  0.00  0.00    +0.000 A 
ATOM      8  C   UNL     1       1.710   6.217  20.719  0.00  0.00    +0.000 A 
ATOM      9  C   UNL     1       2.005   4.866  20.936  0.00  0.00    +0.000 A 
ATOM     10  C   UNL     1       2.780   4.166  20.022  0.00  0.00    +0.000 A 
ATOM     11  C   UNL     1       3.254   4.815  18.883  0.00  0.00    +0.000 A 
ATOM     12  C   UNL     1       2.971   6.168  18.675  0.00  0.00    +0.000 A 
ATOM     13  O   UNL     1       4.006   4.191  17.920  0.00  0.00    +0.000 OA
ATOM     14  C   UNL     1       3.920   2.768  18.034  0.00  0.00    +0.000 C 
ATOM     15  C   UNL     1       4.083   2.329  19.480  0.00  0.00    +0.000 C 
ATOM     16  O   UNL     1       3.027   2.846  20.296  0.00  0.00    +0.000 OA
ENDBRANCH   5   7
BRANCH   1  18
ATOM     17  N   UNL     1      -1.176  11.210  18.637  0.00  0.00    +0.000 N 
ATOM     18  C   UNL     1      -0.654  10.286  19.526  0.00  0.00    +0.000 C 
ATOM     19  O   UNL     1      -1.303   9.491  20.197  0.00  0.00    +0.000 OA
ATOM     20  H   UNL     1      -0.584  12.005  18.439  0.00  0.00    +0.000 HD
BRANCH  17  26
ATOM     21  C   UNL     1      -6.827  11.874  17.997  0.00  0.00    +0.000 C 
ATOM     22  C   UNL     1      -5.339  11.743  18.144  0.00  0.00    +0.000 A 
ATOM     23  C   UNL     1      -4.597  10.968  17.252  0.00  0.00    +0.000 A 
ATOM     24  C   UNL     1      -3.212  10.815  17.410  0.00  0.00    +0.000 A 
ATOM     25  C   UNL     1      -2.456  10.004  16.389  0.00  0.00    +0.000 C 
ATOM     26  C   UNL     1      -2.556  11.461  18.481  0.00  0.00    +0.000 A 
ATOM     27  C   UNL     1      -3.295  12.220  19.407  0.00  0.00    +0.000 A 
ATOM     28  C   UNL     1      -2.705  12.835  20.646  0.00  0.00    +0.000 C 
ATOM     29  C   UNL     1      -4.683  12.370  19.206  0.00  0.00    +0.000 A 
ENDBRANCH  17  26
ENDBRANCH   1  18
TORSDOF 3
ENDMDL
MODEL 2
REMARK VINA RESULT:      -8.1      0.291      1.664
REMARK  Name = 
REMARK  6 active torsions:
REMARK  status: ('A' for Active; 'I' for Inactive)
REMARK    1  A    between atoms: C_1  and  C_2
REMARK    2  A    between atoms: C_4  and  C_5
REMARK    3  A    between atoms: C_6  and  N_7
REMARK    4  A    between atoms: C_8  and  C_10
REMARK    5  A    between atoms: N_14  and  C_15
REMARK    6  A    between atoms: C_26  and  C_27
REMARK                            x       y       z     vdW  Elec       q    Type
REMARK                         _______ _______ _______ _____ _____    ______ ____
ROOT
ATOM      1  C   UNL     1       0.703  10.371  19.548  0.00  0.00    +0.000 C 
ATOM      2  C   UNL     1       1.556  10.443  18.292  0.00  0.00    +0.000 C 
ATOM      3  C   UNL     1       2.090   9.040  18.111  0.00  0.00    +0.000 C 
ATOM      4  O   UNL     1       2.637   8.669  17.083  0.00  0.00    +0.000 OA
ATOM      5  N   UNL     1       1.822   8.322  19.284  0.00  0.00    +0.000 N 
ATOM      6  C   UNL     1       1.238   9.172  20.302  0.00  0.00    +0.000 C 
ENDROOT
BRANCH   5   7
ATOM      7  C   UNL     1       2.168   6.965  19.540  0.00  0.00    +0.000 A 
ATOM      8  C   UNL     1       1.729   6.296  20.691  0.00  0.00    +0.000 A 
ATOM      9  C   UNL     1       2.061   4.956  20.923  0.00  0.00    +0.000 A 
ATOM     10  C   UNL     1       2.846   4.264  20.011  0.00  0.00    +0.000 A 
ATOM     11  C   UNL     1       3.291   4.910  18.859  0.00  0.00    +0.000 A 
ATOM     12  C   UNL     1       2.971   6.252  18.635  0.00  0.00    +0.000 A 
ATOM     13  O   UNL     1       4.050   4.293  17.897  0.00  0.00    +0.000 OA
ATOM     14  C   UNL     1       4.002   2.870  18.031  0.00  0.00    +0.000 C 
ATOM     15  C   UNL     1       4.191   2.454  19.481  0.00  0.00    +0.000 C 
ATOM     16  O   UNL     1       3.129   2.955  20.300  0.00  0.00    +0.000 OA
ENDBRANCH   5   7
BRANCH   1  18
ATOM     17  N   UNL     1      -1.317  11.256  18.488  0.00  0.00    +0.000 N 
ATOM     18  C   UNL     1      -0.796  10.235  19.264  0.00  0.00    +0.000 C 
ATOM     19  O   UNL     1      -1.434   9.307  19.749  0.00  0.00    +0.000 OA
ATOM     20  H   UNL     1      -0.771  12.106  18.463  0.00  0.00    +0.000 HD
BRANCH  17  26
ATOM     21  C   UNL     1      -6.863  12.387  17.619  0.00  0.00    +0.000 C 
ATOM     22  C   UNL     1      -5.421  12.046  17.860  0.00  0.00    +0.000 A 
ATOM     23  C   UNL     1      -4.774  12.456  19.026  0.00  0.00    +0.000 A 
ATOM     24  C   UNL     1      -3.417  12.170  19.237  0.00  0.00    +0.000 A 
ATOM     25  C   UNL     1      -2.784  12.598  20.535  0.00  0.00    +0.000 C 
ATOM     26  C   UNL     1      -2.697  11.448  18.260  0.00  0.00    +0.000 A 
ATOM     27  C   UNL     1      -3.327  11.055  17.065  0.00  0.00    +0.000 A 
ATOM     28  C   UNL     1      -2.610  10.399  15.917  0.00  0.00    +0.000 C 
ATOM     29  C   UNL     1      -4.697  11.342  16.895  0.00  0.00    +0.000 A 
ENDBRANCH  17  26
ENDBRANCH   1  18
TORSDOF 3
ENDMDL
MODEL 3
REMARK VINA RESULT:      -8.0      0.743      1.478
REMARK  Name = 
REMARK  6 active torsions:
REMARK  status: ('A' for Active; 'I' for Inactive)
REMARK    1  A    between atoms: C_1  and  C_2
REMARK    2  A    between atoms: C_4  and  C_5
REMARK    3  A    between atoms: C_6  and  N_7
REMARK    4  A    between atoms: C_8  and  C_10
REMARK    5  A    between atoms: N_14  and  C_15
REMARK    6  A    between atoms: C_26  and  C_27
REMARK                            x       y       z     vdW  Elec       q    Type
REMARK                         _______ _______ _______ _____ _____    ______ ____
ROOT
ATOM      1  C   UNL     1       0.821  10.367  19.867  0.00  0.00    +0.000 C 
ATOM      2  C   UNL     1       1.584  10.639  18.580  0.00  0.00    +0.000 C 
ATOM      3  C   UNL     1       2.088   9.283  18.140  0.00  0.00    +0.000 C 
ATOM      4  O   UNL     1       2.555   9.081  17.029  0.00  0.00    +0.000 OA
ATOM      5  N   UNL     1       1.895   8.387  19.200  0.00  0.00    +0.000 N 
ATOM      6  C   UNL     1       1.395   9.063  20.379  0.00  0.00    +0.000 C 
ENDROOT
BRANCH   5   7
ATOM      7  C   UNL     1       2.244   7.006  19.210  0.00  0.00    +0.000 A 
ATOM      8  C   UNL     1       2.995   6.427  18.178  0.00  0.00    +0.000 A 
ATOM      9  C   UNL     1       3.347   5.072  18.208  0.00  0.00    +0.000 A 
ATOM     10  C   UNL     1       2.945   4.271  19.268  0.00  0.00    +0.000 A 
ATOM     11  C   UNL     1       2.199   4.827  20.306  0.00  0.00    +0.000 A 
ATOM     12  C   UNL     1       1.837   6.177  20.267  0.00  0.00    +0.000 A 
ATOM     13  O   UNL     1       1.782   4.112  21.399  0.00  0.00    +0.000 OA
ATOM     14  C   UNL     1       2.504   2.883  21.522  0.00  0.00    +0.000 C 
ATOM     15  C   UNL     1       2.595   2.171  20.182  0.00  0.00    +0.000 C 
ATOM     16  O   UNL     1       3.327   2.956  19.234  0.00  0.00    +0.000 OA
ENDBRANCH   5   7
BRANCH   1  18
ATOM     17  N   UNL     1      -1.207  11.216  18.794  0.00  0.00    +0.000 N 
ATOM     18  C   UNL     1      -0.695  10.278  19.674  0.00  0.00    +0.000 C 
ATOM     19  O   UNL     1      -1.351   9.457  20.306  0.00  0.00    +0.000 OA
ATOM     20  H   UNL     1      -0.622  12.025  18.631  0.00  0.00    +0.000 HD
BRANCH  17  26
ATOM     21  C   UNL     1      -6.851  11.817  18.035  0.00  0.00    +0.000 C 
ATOM     22  C   UNL     1      -5.365  11.702  18.212  0.00  0.00    +0.000 A 
ATOM     23  C   UNL     1      -4.599  10.915  17.351  0.00  0.00    +0.000 A 
ATOM     24  C   UNL     1      -3.216  10.777  17.538  0.00  0.00    +0.000 A 
ATOM     25  C   UNL     1      -2.435   9.951  16.549  0.00  0.00    +0.000 C 
ATOM     26  C   UNL     1      -2.586  11.452  18.607  0.00  0.00    +0.000 A 
ATOM     27  C   UNL     1      -3.349  12.225  19.502  0.00  0.00    +0.000 A 
ATOM     28  C   UNL     1      -2.787  12.871  20.738  0.00  0.00    +0.000 C 
ATOM     29  C   UNL     1      -4.734  12.357  19.273  0.00  0.00    +0.000 A 
ENDBRANCH  17  26
ENDBRANCH   1  18
TORSDOF 3
ENDMDL
MODEL 4
REMARK VINA RESULT:      -7.8      3.174      4.859
REMARK  Name = 
REMARK  6 active torsions:
REMARK  status: ('A' for Active; 'I' for Inactive)
REMARK    1  A    between atoms: C_1  and  C_2
REMARK    2  A    between atoms: C_4  and  C_5
REMARK    3  A    between atoms: C_6  and  N_7
REMARK    4  A    between atoms: C_8  and  C_10
REMARK    5  A    between atoms: N_14  and  C_15
REMARK    6  A    between atoms: C_26  and  C_27
REMARK                            x       y       z     vdW  Elec       q    Type
REMARK                         _______ _______ _______ _____ _____    ______ ____
ROOT
ATOM      1  C   UNL     1      -0.737  11.253  21.187  0.00  0.00    +0.000 C 
ATOM      2  C   UNL     1      -0.306  10.560  22.470  0.00  0.00    +0.000 C 
ATOM      3  C   UNL     1       0.713   9.534  22.027  0.00  0.00    +0.000 C 
ATOM      4  O   UNL     1       1.436   8.940  22.813  0.00  0.00    +0.000 OA
ATOM      5  N   UNL     1       0.654   9.443  20.630  0.00  0.00    +0.000 N 
ATOM      6  C   UNL     1      -0.417  10.257  20.092  0.00  0.00    +0.000 C 
ENDROOT
BRANCH   5   7
ATOM      7  C   UNL     1       1.438   8.585  19.807  0.00  0.00    +0.000 A 
ATOM      8  C   UNL     1       1.796   8.943  18.500  0.00  0.00    +0.000 A 
ATOM      9  C   UNL     1       2.583   8.099  17.706  0.00  0.00    +0.000 A 
ATOM     10  C   UNL     1       3.018   6.879  18.204  0.00  0.00    +0.000 A 
ATOM     11  C   UNL     1       2.675   6.506  19.503  0.00  0.00    +0.000 A 
ATOM     12  C   UNL     1       1.878   7.342  20.289  0.00  0.00    +0.000 A 
ATOM     13  O   UNL     1       3.083   5.329  20.079  0.00  0.00    +0.000 OA
ATOM     14  C   UNL     1       4.169   4.745  19.355  0.00  0.00    +0.000 C 
ATOM     15  C   UNL     1       3.895   4.763  17.859  0.00  0.00    +0.000 C 
ATOM     16  O   UNL     1       3.787   6.106  17.375  0.00  0.00    +0.000 OA
ENDBRANCH   5   7
BRANCH   1  18
ATOM     17  N   UNL     1      -0.030  13.000  19.627  0.00  0.00    +0.000 N 
ATOM     18  C   UNL     1      -0.037  12.594  20.950  0.00  0.00    +0.000 C 
ATOM     19  O   UNL     1       0.494  13.187  21.883  0.00  0.00    +0.000 OA
ATOM     20  H   UNL     1      -0.184  12.269  18.946  0.00  0.00    +0.000 HD
BRANCH  17  26
ATOM     21  C   UNL     1       3.002  17.282  17.333  0.00  0.00    +0.000 C 
ATOM     22  C   UNL     1       2.226  16.170  17.977  0.00  0.00    +0.000 A 
ATOM     23  C   UNL     1       2.651  14.846  17.870  0.00  0.00    +0.000 A 
ATOM     24  C   UNL     1       1.908  13.801  18.440  0.00  0.00    +0.000 A 
ATOM     25  C   UNL     1       2.441  12.396  18.332  0.00  0.00    +0.000 C 
ATOM     26  C   UNL     1       0.717  14.095  19.141  0.00  0.00    +0.000 A 
ATOM     27  C   UNL     1       0.259  15.422  19.231  0.00  0.00    +0.000 A 
ATOM     28  C   UNL     1      -1.057  15.813  19.842  0.00  0.00    +0.000 C 
ATOM     29  C   UNL     1       1.041  16.449  18.663  0.00  0.00    +0.000 A 
ENDBRANCH  17  26
ENDBRANCH   1  18
TORSDOF 3
ENDMDL
MODEL 5
REMARK VINA RESULT:      -7.8      1.742      9.016
REMARK  Name = 
REMARK  6 active torsions:
REMARK  status: ('A' for Active; 'I' for Inactive)
REMARK    1  A    between atoms: C_1  and  C_2
REMARK    2  A    between atoms: C_4  and  C_5
REMARK    3  A    between atoms: C_6  and  N_7
REMARK    4  A    between atoms: C_8  and  C_10
REMARK    5  A    between atoms: N_14  and  C_15
REMARK    6  A    between atoms: C_26  and  C_27
REMARK                            x       y       z     vdW  Elec       q    Type
REMARK                         _______ _______ _______ _____ _____    ______ ____
ROOT
ATOM      1  C   UNL     1       1.993   9.181  19.025  0.00  0.00    +0.000 C 
ATOM      2  C   UNL     1       1.480   9.330  20.448  0.00  0.00    +0.000 C 
ATOM      3  C   UNL     1       0.016   9.678  20.293  0.00  0.00    +0.000 C 
ATOM      4  O   UNL     1      -0.770   9.657  21.228  0.00  0.00    +0.000 OA
ATOM      5  N   UNL     1      -0.213   9.987  18.946  0.00  0.00    +0.000 N 
ATOM      6  C   UNL     1       1.021   9.982  18.185  0.00  0.00    +0.000 C 
ENDROOT
BRANCH   5   7
ATOM      7  C   UNL     1      -1.454  10.380  18.370  0.00  0.00    +0.000 A 
ATOM      8  C   UNL     1      -1.867   9.911  17.115  0.00  0.00    +0.000 A 
ATOM      9  C   UNL     1      -3.098  10.291  16.566  0.00  0.00    +0.000 A 
ATOM     10  C   UNL     1      -3.934  11.154  17.262  0.00  0.00    +0.000 A 
ATOM     11  C   UNL     1      -3.544  11.630  18.513  0.00  0.00    +0.000 A 
ATOM     12  C   UNL     1      -2.309  11.261  19.052  0.00  0.00    +0.000 A 
ATOM     13  O   UNL     1      -4.320  12.466  19.274  0.00  0.00    +0.000 OA
ATOM     14  C   UNL     1      -5.676  12.475  18.819  0.00  0.00    +0.000 C 
ATOM     15  C   UNL     1      -5.739  12.606  17.305  0.00  0.00    +0.000 C 
ATOM     16  O   UNL     1      -5.125  11.481  16.668  0.00  0.00    +0.000 OA
ENDBRANCH   5   7
BRANCH   1  18
ATOM     17  N   UNL     1       2.708   6.879  19.450  0.00  0.00    +0.000 N 
ATOM     18  C   UNL     1       2.078   7.726  18.554  0.00  0.00    +0.000 C 
ATOM     19  O   UNL     1       1.650   7.408  17.449  0.00  0.00    +0.000 OA
ATOM     20  H   UNL     1       3.303   7.331  20.131  0.00  0.00    +0.000 HD
BRANCH  17  26
ATOM     21  C   UNL     1       3.857   1.428  18.126  0.00  0.00    +0.000 C 
ATOM     22  C   UNL     1       3.590   2.855  18.507  0.00  0.00    +0.000 A 
ATOM     23  C   UNL     1       2.504   3.189  19.317  0.00  0.00    +0.000 A 
ATOM     24  C   UNL     1       2.231   4.525  19.644  0.00  0.00    +0.000 A 
ATOM     25  C   UNL     1       1.072   4.820  20.560  0.00  0.00    +0.000 C 
ATOM     26  C   UNL     1       3.073   5.548  19.155  0.00  0.00    +0.000 A 
ATOM     27  C   UNL     1       4.154   5.231  18.311  0.00  0.00    +0.000 A 
ATOM     28  C   UNL     1       5.022   6.259  17.641  0.00  0.00    +0.000 C 
ATOM     29  C   UNL     1       4.410   3.876  18.020  0.00  0.00    +0.000 A 
ENDBRANCH  17  26
ENDBRANCH   1  18
TORSDOF 3
ENDMDL
MODEL 6
REMARK VINA RESULT:      -7.7      0.751      2.213
REMARK  Name = 
REMARK  6 active torsions:
REMARK  status: ('A' for Active; 'I' for Inactive)
REMARK    1  A    between atoms: C_1  and  C_2
REMARK    2  A    between atoms: C_4  and  C_5
REMARK    3  A    between atoms: C_6  and  N_7
REMARK    4  A    between atoms: C_8  and  C_10
REMARK    5  A    between atoms: N_14  and  C_15
REMARK    6  A    between atoms: C_26  and  C_27
REMARK                            x       y       z     vdW  Elec       q    Type
REMARK                         _______ _______ _______ _____ _____    ______ ____
ROOT
ATOM      1  C   UNL     1       0.683  10.413  19.809  0.00  0.00    +0.000 C 
ATOM      2  C   UNL     1       1.481  10.709  18.548  0.00  0.00    +0.000 C 
ATOM      3  C   UNL     1       2.076   9.378  18.150  0.00  0.00    +0.000 C 
ATOM      4  O   UNL     1       2.599   9.188  17.062  0.00  0.00    +0.000 OA
ATOM      5  N   UNL     1       1.891   8.486  19.216  0.00  0.00    +0.000 N 
ATOM      6  C   UNL     1       1.307   9.150  20.364  0.00  0.00    +0.000 C 
ENDROOT
BRANCH   5   7
ATOM      7  C   UNL     1       2.314   7.128  19.262  0.00  0.00    +0.000 A 
ATOM      8  C   UNL     1       3.245   6.614  18.348  0.00  0.00    +0.000 A 
ATOM      9  C   UNL     1       3.667   5.281  18.414  0.00  0.00    +0.000 A 
ATOM     10  C   UNL     1       3.159   4.436  19.391  0.00  0.00    +0.000 A 
ATOM     11  C   UNL     1       2.234   4.928  20.311  0.00  0.00    +0.000 A 
ATOM     12  C   UNL     1       1.803   6.255  20.235  0.00  0.00    +0.000 A 
ATOM     13  O   UNL     1       1.701   4.167  21.320  0.00  0.00    +0.000 OA
ATOM     14  C   UNL     1       2.466   2.978  21.536  0.00  0.00    +0.000 C 
ATOM     15  C   UNL     1       2.800   2.301  20.216  0.00  0.00    +0.000 C 
ATOM     16  O   UNL     1       3.618   3.145  19.399  0.00  0.00    +0.000 OA
ENDBRANCH   5   7
BRANCH   1  18
ATOM     17  N   UNL     1      -1.367  11.201  18.729  0.00  0.00    +0.000 N 
ATOM     18  C   UNL     1      -0.818  10.236  19.556  0.00  0.00    +0.000 C 
ATOM     19  O   UNL     1      -1.433   9.329  20.106  0.00  0.00    +0.000 OA
ATOM     20  H   UNL     1      -0.835  12.056  18.645  0.00  0.00    +0.000 HD
BRANCH  17  26
ATOM     21  C   UNL     1      -6.939  12.192  17.858  0.00  0.00    +0.000 C 
ATOM     22  C   UNL     1      -5.490  11.889  18.106  0.00  0.00    +0.000 A 
ATOM     23  C   UNL     1      -4.819  12.442  19.197  0.00  0.00    +0.000 A 
ATOM     24  C   UNL     1      -3.456  12.191  19.409  0.00  0.00    +0.000 A 
ATOM     25  C   UNL     1      -2.796  12.779  20.630  0.00  0.00    +0.000 C 
ATOM     26  C   UNL     1      -2.753  11.357  18.511  0.00  0.00    +0.000 A 
ATOM     27  C   UNL     1      -3.408  10.817  17.389  0.00  0.00    +0.000 A 
ATOM     28  C   UNL     1      -2.712  10.028  16.315  0.00  0.00    +0.000 C 
ATOM     29  C   UNL     1      -4.783  11.074  17.218  0.00  0.00    +0.000 A 
ENDBRANCH  17  26
ENDBRANCH   1  18
TORSDOF 3
ENDMDL
MODEL 7
REMARK VINA RESULT:      -7.6      1.875      8.728
REMARK  Name = 
REMARK  6 active torsions:
REMARK  status: ('A' for Active; 'I' for Inactive)
REMARK    1  A    between atoms: C_1  and  C_2
REMARK    2  A    between atoms: C_4  and  C_5
REMARK    3  A    between atoms: C_6  and  N_7
REMARK    4  A    between atoms: C_8  and  C_10
REMARK    5  A    between atoms: N_14  and  C_15
REMARK    6  A    between atoms: C_26  and  C_27
REMARK                            x       y       z     vdW  Elec       q    Type
REMARK                         _______ _______ _______ _____ _____    ______ ____
ROOT
ATOM      1  C   UNL     1       2.224   8.600  20.165  0.00  0.00    +0.000 C 
ATOM      2  C   UNL     1       1.456   8.541  21.476  0.00  0.00    +0.000 C 
ATOM      3  C   UNL     1       0.065   9.021  21.128  0.00  0.00    +0.000 C 
ATOM      4  O   UNL     1      -0.884   8.900  21.886  0.00  0.00    +0.000 OA
ATOM      5  N   UNL     1       0.110   9.575  19.841  0.00  0.00    +0.000 N 
ATOM      6  C   UNL     1       1.464   9.607  19.327  0.00  0.00    +0.000 C 
ENDROOT
BRANCH   5   7
ATOM      7  C   UNL     1      -0.981  10.156  19.135  0.00  0.00    +0.000 A 
ATOM      8  C   UNL     1      -1.711  11.232  19.660  0.00  0.00    +0.000 A 
ATOM      9  C   UNL     1      -2.771  11.807  18.949  0.00  0.00    +0.000 A 
ATOM     10  C   UNL     1      -3.124  11.310  17.702  0.00  0.00    +0.000 A 
ATOM     11  C   UNL     1      -2.410  10.243  17.160  0.00  0.00    +0.000 A 
ATOM     12  C   UNL     1      -1.361   9.660  17.877  0.00  0.00    +0.000 A 
ATOM     13  O   UNL     1      -2.679   9.708  15.925  0.00  0.00    +0.000 OA
ATOM     14  C   UNL     1      -3.489  10.588  15.142  0.00  0.00    +0.000 C 
ATOM     15  C   UNL     1      -4.645  11.136  15.963  0.00  0.00    +0.000 C 
ATOM     16  O   UNL     1      -4.168  11.922  17.060  0.00  0.00    +0.000 OA
ENDBRANCH   5   7
BRANCH   1  18
ATOM     17  N   UNL     1       2.718   6.207  20.286  0.00  0.00    +0.000 N 
ATOM     18  C   UNL     1       2.334   7.247  19.457  0.00  0.00    +0.000 C 
ATOM     19  O   UNL     1       2.133   7.163  18.250  0.00  0.00    +0.000 OA
ATOM     20  H   UNL     1       3.178   6.481  21.144  0.00  0.00    +0.000 HD
BRANCH  17  26
ATOM     21  C   UNL     1       3.865   0.999  18.200  0.00  0.00    +0.000 C 
ATOM     22  C   UNL     1       3.587   2.352  18.788  0.00  0.00    +0.000 A 
ATOM     23  C   UNL     1       2.336   2.656  19.325  0.00  0.00    +0.000 A 
ATOM     24  C   UNL     1       2.062   3.931  19.841  0.00  0.00    +0.000 A 
ATOM     25  C   UNL     1       0.708   4.187  20.450  0.00  0.00    +0.000 C 
ATOM     26  C   UNL     1       3.071   4.920  19.826  0.00  0.00    +0.000 A 
ATOM     27  C   UNL     1       4.328   4.639  19.259  0.00  0.00    +0.000 A 
ATOM     28  C   UNL     1       5.414   5.663  19.083  0.00  0.00    +0.000 C 
ATOM     29  C   UNL     1       4.575   3.341  18.768  0.00  0.00    +0.000 A 
ENDBRANCH  17  26
ENDBRANCH   1  18
TORSDOF 3
ENDMDL
MODEL 8
REMARK VINA RESULT:      -7.5      1.839      8.781
REMARK  Name = 
REMARK  6 active torsions:
REMARK  status: ('A' for Active; 'I' for Inactive)
REMARK    1  A    between atoms: C_1  and  C_2
REMARK    2  A    between atoms: C_4  and  C_5
REMARK    3  A    between atoms: C_6  and  N_7
REMARK    4  A    between atoms: C_8  and  C_10
REMARK    5  A    between atoms: N_14  and  C_15
REMARK    6  A    between atoms: C_26  and  C_27
REMARK                            x       y       z     vdW  Elec       q    Type
REMARK                         _______ _______ _______ _____ _____    ______ ____
ROOT
ATOM      1  C   UNL     1       2.216   8.597  20.152  0.00  0.00    +0.000 C 
ATOM      2  C   UNL     1       1.549   8.534  21.517  0.00  0.00    +0.000 C 
ATOM      3  C   UNL     1       0.152   9.065  21.286  0.00  0.00    +0.000 C 
ATOM      4  O   UNL     1      -0.740   8.958  22.113  0.00  0.00    +0.000 OA
ATOM      5  N   UNL     1       0.117   9.645  20.010  0.00  0.00    +0.000 N 
ATOM      6  C   UNL     1       1.428   9.645  19.394  0.00  0.00    +0.000 C 
ENDROOT
BRANCH   5   7
ATOM      7  C   UNL     1      -1.005  10.275  19.401  0.00  0.00    +0.000 A 
ATOM      8  C   UNL     1      -1.605  11.412  19.959  0.00  0.00    +0.000 A 
ATOM      9  C   UNL     1      -2.698  12.034  19.342  0.00  0.00    +0.000 A 
ATOM     10  C   UNL     1      -3.214  11.523  18.160  0.00  0.00    +0.000 A 
ATOM     11  C   UNL     1      -2.631  10.394  17.587  0.00  0.00    +0.000 A 
ATOM     12  C   UNL     1      -1.549   9.766  18.211  0.00  0.00    +0.000 A 
ATOM     13  O   UNL     1      -3.064   9.839  16.409  0.00  0.00    +0.000 OA
ATOM     14  C   UNL     1      -3.897  10.747  15.683  0.00  0.00    +0.000 C 
ATOM     15  C   UNL     1      -4.922  11.396  16.600  0.00  0.00    +0.000 C 
ATOM     16  O   UNL     1      -4.280  12.183  17.609  0.00  0.00    +0.000 OA
ENDBRANCH   5   7
BRANCH   1  18
ATOM     17  N   UNL     1       2.643   6.188  20.189  0.00  0.00    +0.000 N 
ATOM     18  C   UNL     1       2.226   7.256  19.412  0.00  0.00    +0.000 C 
ATOM     19  O   UNL     1       1.927   7.204  18.224  0.00  0.00    +0.000 OA
ATOM     20  H   UNL     1       3.179   6.431  21.011  0.00  0.00    +0.000 HD
BRANCH  17  26
ATOM     21  C   UNL     1       4.045   0.954  18.337  0.00  0.00    +0.000 C 
ATOM     22  C   UNL     1       3.656   2.335  18.780  0.00  0.00    +0.000 A 
ATOM     23  C   UNL     1       4.580   3.379  18.761  0.00  0.00    +0.000 A 
ATOM     24  C   UNL     1       4.230   4.661  19.209  0.00  0.00    +0.000 A 
ATOM     25  C   UNL     1       5.256   5.760  19.122  0.00  0.00    +0.000 C 
ATOM     26  C   UNL     1       2.919   4.902  19.677  0.00  0.00    +0.000 A 
ATOM     27  C   UNL     1       1.984   3.851  19.732  0.00  0.00    +0.000 A 
ATOM     28  C   UNL     1       0.612   3.982  20.333  0.00  0.00    +0.000 C 
ATOM     29  C   UNL     1       2.365   2.580  19.255  0.00  0.00    +0.000 A 
ENDBRANCH  17  26
ENDBRANCH   1  18
TORSDOF 3
ENDMDL
MODEL 9
REMARK VINA RESULT:      -7.5      1.747      9.026
REMARK  Name = 
REMARK  6 active torsions:
REMARK  status: ('A' for Active; 'I' for Inactive)
REMARK    1  A    between atoms: C_1  and  C_2
REMARK    2  A    between atoms: C_4  and  C_5
REMARK    3  A    between atoms: C_6  and  N_7
REMARK    4  A    between atoms: C_8  and  C_10
REMARK    5  A    between atoms: N_14  and  C_15
REMARK    6  A    between atoms: C_26  and  C_27
REMARK                            x       y       z     vdW  Elec       q    Type
REMARK                         _______ _______ _______ _____ _____    ______ ____
ROOT
ATOM      1  C   UNL     1       1.994   8.972  18.908  0.00  0.00    +0.000 C 
ATOM      2  C   UNL     1       1.539   9.180  20.344  0.00  0.00    +0.000 C 
ATOM      3  C   UNL     1       0.089   9.593  20.231  0.00  0.00    +0.000 C 
ATOM      4  O   UNL     1      -0.664   9.631  21.192  0.00  0.00    +0.000 OA
ATOM      5  N   UNL     1      -0.173   9.879  18.884  0.00  0.00    +0.000 N 
ATOM      6  C   UNL     1       1.031   9.798  18.082  0.00  0.00    +0.000 C 
ENDROOT
BRANCH   5   7
ATOM      7  C   UNL     1      -1.415  10.317  18.341  0.00  0.00    +0.000 A 
ATOM      8  C   UNL     1      -1.866   9.883  17.087  0.00  0.00    +0.000 A 
ATOM      9  C   UNL     1      -3.097  10.306  16.571  0.00  0.00    +0.000 A 
ATOM     10  C   UNL     1      -3.894  11.178  17.299  0.00  0.00    +0.000 A 
ATOM     11  C   UNL     1      -3.466  11.621  18.549  0.00  0.00    +0.000 A 
ATOM     12  C   UNL     1      -2.230  11.208  19.057  0.00  0.00    +0.000 A 
ATOM     13  O   UNL     1      -4.203  12.464  19.341  0.00  0.00    +0.000 OA
ATOM     14  C   UNL     1      -5.566  12.519  18.914  0.00  0.00    +0.000 C 
ATOM     15  C   UNL     1      -5.656  12.679  17.405  0.00  0.00    +0.000 C 
ATOM     16  O   UNL     1      -5.087  11.549  16.736  0.00  0.00    +0.000 OA
ENDBRANCH   5   7
BRANCH   1  18
ATOM     17  N   UNL     1       2.595   6.647  19.379  0.00  0.00    +0.000 N 
ATOM     18  C   UNL     1       1.995   7.504  18.472  0.00  0.00    +0.000 C 
ATOM     19  O   UNL     1       1.532   7.183  17.383  0.00  0.00    +0.000 OA
ATOM     20  H   UNL     1       3.225   7.083  20.038  0.00  0.00    +0.000 HD
BRANCH  17  26
ATOM     21  C   UNL     1       4.098   1.202  18.440  0.00  0.00    +0.000 C 
ATOM     22  C   UNL     1       3.674   2.627  18.649  0.00  0.00    +0.000 A 
ATOM     23  C   UNL     1       4.466   3.683  18.199  0.00  0.00    +0.000 A 
ATOM     24  C   UNL     1       4.090   5.015  18.425  0.00  0.00    +0.000 A 
ATOM     25  C   UNL     1       4.962   6.113  17.876  0.00  0.00    +0.000 C 
ATOM     26  C   UNL     1       2.886   5.292  19.110  0.00  0.00    +0.000 A 
ATOM     27  C   UNL     1       2.092   4.238  19.598  0.00  0.00    +0.000 A 
ATOM     28  C   UNL     1       0.866   4.437  20.446  0.00  0.00    +0.000 C 
ATOM     29  C   UNL     1       2.490   2.912  19.335  0.00  0.00    +0.000 A 
ENDBRANCH  17  26
ENDBRANCH   1  18
TORSDOF 3
ENDMDL
