MODEL 1
REMARK VINA RESULT:      -8.1      0.000      0.000
REMARK  Name = 
REMARK  5 active torsions:
REMARK  status: ('A' for Active; 'I' for Inactive)
REMARK    1  A    between atoms: C_1  and  N_2
REMARK    2  A    between atoms: C_6  and  C_7
REMARK    3  A    between atoms: N_9  and  C_10
REMARK    4  A    between atoms: C_10  and  N_12
REMARK    5  A    between atoms: N_12  and  C_13
REMARK                            x       y       z     vdW  Elec       q    Type
REMARK                         _______ _______ _______ _____ _____    ______ ____
ROOT
ATOM      1  C   UNL     1       2.539   6.178  19.698  0.00  0.00    +0.000 C 
ATOM      2  C   UNL     1       2.577   5.266  18.449  0.00  0.00    +0.000 C 
ATOM      3  N   UNL     1       2.739   3.847  18.787  0.00  0.00    +0.000 N 
ATOM      4  C   UNL     1       1.862   3.383  19.867  0.00  0.00    +0.000 C 
ATOM      5  C   UNL     1       1.964   4.332  21.069  0.00  0.00    +0.000 C 
ATOM      6  O   UNL     1       1.616   5.670  20.681  0.00  0.00    +0.000 OA
ENDROOT
BRANCH   1  12
ATOM      7  C   UNL     1      -0.475   9.818  20.460  0.00  0.00    +0.000 C 
ATOM      8  N   UNL     1       0.942   9.716  20.160  0.00  0.00    +0.000 NA
ATOM      9  C   UNL     1       1.347  10.363  18.918  0.00  0.00    +0.000 C 
ATOM     10  C   UNL     1       1.878   9.498  17.764  0.00  0.00    +0.000 C 
ATOM     11  C   UNL     1       2.269   8.103  18.122  0.00  0.00    +0.000 C 
ATOM     12  C   UNL     1       2.110   7.597  19.357  0.00  0.00    +0.000 C 
ATOM     13  C   UNL     1       1.530   8.421  20.482  0.00  0.00    +0.000 C 
ENDBRANCH   1  12
BRANCH   3  14
ATOM     14  C   UNL     1       3.841   3.081  18.420  0.00  0.00    +0.000 C 
ATOM     15  S   UNL     1       3.828   1.407  18.400  0.00  0.00    +0.000 S 
BRANCH  14  16
ATOM     16  N   UNL     1       4.936   3.899  18.173  0.00  0.00    +0.000 N 
ATOM     17  H   UNL     1       5.511   4.022  19.001  0.00  0.00    +0.000 HD
BRANCH  16  18
ATOM     18  C   UNL     1       5.582   4.161  16.947  0.00  0.00    +0.000 A 
ATOM     19  C   UNL     1       4.931   3.936  15.730  0.00  0.00    +0.000 A 
ATOM     20  C   UNL     1       5.559   4.256  14.527  0.00  0.00    +0.000 A 
ATOM     21  C   UNL     1       6.842   4.799  14.534  0.00  0.00    +0.000 A 
ATOM     22 CL   UNL     1       7.611   5.178  13.042  0.00  0.00    +0.000 Cl
ATOM     23  C   UNL     1       7.500   5.048  15.735  0.00  0.00    +0.000 A 
ATOM     24  C   UNL     1       6.864   4.744  16.938  0.00  0.00    +0.000 A 
ATOM     25 CL   UNL     1       7.702   5.074  18.416  0.00  0.00    +0.000 Cl
ENDBRANCH  16  18
ENDBRANCH  14  16
ENDBRANCH   3  14
TORSDOF 4
ENDMDL
MODEL 2
REMARK VINA RESULT:      -7.8      1.344      2.247
REMARK  Name = 
REMARK  5 active torsions:
REMARK  status: ('A' for Active; 'I' for Inactive)
REMARK    1  A    between atoms: C_1  and  N_2
REMARK    2  A    between atoms: C_6  and  C_7
REMARK    3  A    between atoms: N_9  and  C_10
REMARK    4  A    between atoms: C_10  and  N_12
REMARK    5  A    between atoms: N_12  and  C_13
REMARK                            x       y       z     vdW  Elec       q    Type
REMARK                         _______ _______ _______ _____ _____    ______ ____
ROOT
ATOM      1  C   UNL     1       2.437   6.128  19.560  0.00  0.00    +0.000 C 
ATOM      2  C   UNL     1       2.318   5.255  18.288  0.00  0.00    +0.000 C 
ATOM      3  N   UNL     1       2.449   3.821  18.570  0.00  0.00    +0.000 N 
ATOM      4  C   UNL     1       1.657   3.359  19.715  0.00  0.00    +0.000 C 
ATOM      5  C   UNL     1       1.913   4.264  20.927  0.00  0.00    +0.000 C 
ATOM      6  O   UNL     1       1.588   5.627  20.612  0.00  0.00    +0.000 OA
ENDROOT
BRANCH   1  12
ATOM      7  C   UNL     1      -0.480   9.793  20.549  0.00  0.00    +0.000 C 
ATOM      8  N   UNL     1       0.931   9.673  20.229  0.00  0.00    +0.000 NA
ATOM      9  C   UNL     1       1.341  10.376  19.020  0.00  0.00    +0.000 C 
ATOM     10  C   UNL     1       1.839   9.563  17.815  0.00  0.00    +0.000 C 
ATOM     11  C   UNL     1       2.199   8.142  18.093  0.00  0.00    +0.000 C 
ATOM     12  C   UNL     1       2.040   7.574  19.300  0.00  0.00    +0.000 C 
ATOM     13  C   UNL     1       1.490   8.348  20.475  0.00  0.00    +0.000 C 
ENDBRANCH   1  12
BRANCH   3  14
ATOM     14  C   UNL     1       3.477   3.023  18.079  0.00  0.00    +0.000 C 
ATOM     15  S   UNL     1       3.688   1.422  18.523  0.00  0.00    +0.000 S 
BRANCH  14  16
ATOM     16  N   UNL     1       4.319   3.769  17.264  0.00  0.00    +0.000 N 
ATOM     17  H   UNL     1       3.933   3.891  16.332  0.00  0.00    +0.000 HD
BRANCH  16  18
ATOM     18  C   UNL     1       5.302   4.709  17.636  0.00  0.00    +0.000 A 
ATOM     19  C   UNL     1       5.845   4.708  18.924  0.00  0.00    +0.000 A 
ATOM     20  C   UNL     1       6.860   5.604  19.260  0.00  0.00    +0.000 A 
ATOM     21  C   UNL     1       7.332   6.509  18.312  0.00  0.00    +0.000 A 
ATOM     22 CL   UNL     1       8.575   7.617  18.743  0.00  0.00    +0.000 Cl
ATOM     23  C   UNL     1       6.817   6.514  17.019  0.00  0.00    +0.000 A 
ATOM     24  C   UNL     1       5.815   5.606  16.679  0.00  0.00    +0.000 A 
ATOM     25 CL   UNL     1       5.200   5.630  15.061  0.00  0.00    +0.000 Cl
ENDBRANCH  16  18
ENDBRANCH  14  16
ENDBRANCH   3  14
TORSDOF 4
ENDMDL
MODEL 3
REMARK VINA RESULT:      -7.2      3.337      7.482
REMARK  Name = 
REMARK  5 active torsions:
REMARK  status: ('A' for Active; 'I' for Inactive)
REMARK    1  A    between atoms: C_1  and  N_2
REMARK    2  A    between atoms: C_6  and  C_7
REMARK    3  A    between atoms: N_9  and  C_10
REMARK    4  A    between atoms: C_10  and  N_12
REMARK    5  A    between atoms: N_12  and  C_13
REMARK                            x       y       z     vdW  Elec       q    Type
REMARK                         _______ _______ _______ _____ _____    ______ ____
ROOT
ATOM      1  C   UNL     1       6.556   4.275  15.926  0.00  0.00    +0.000 C 
ATOM      2  C   UNL     1       5.244   4.974  16.356  0.00  0.00    +0.000 C 
ATOM      3  N   UNL     1       5.104   5.070  17.814  0.00  0.00    +0.000 N 
ATOM      4  C   UNL     1       6.311   5.538  18.503  0.00  0.00    +0.000 C 
ATOM      5  C   UNL     1       7.527   4.724  18.040  0.00  0.00    +0.000 C 
ATOM      6  O   UNL     1       7.690   4.833  16.618  0.00  0.00    +0.000 OA
ENDROOT
BRANCH   1  12
ATOM      7  C   UNL     1       6.649   2.234  11.597  0.00  0.00    +0.000 C 
ATOM      8  N   UNL     1       6.290   3.550  12.093  0.00  0.00    +0.000 NA
ATOM      9  C   UNL     1       7.092   4.642  11.553  0.00  0.00    +0.000 C 
ATOM     10  C   UNL     1       8.007   5.435  12.498  0.00  0.00    +0.000 C 
ATOM     11  C   UNL     1       7.745   5.261  13.957  0.00  0.00    +0.000 C 
ATOM     12  C   UNL     1       6.816   4.415  14.433  0.00  0.00    +0.000 C 
ATOM     13  C   UNL     1       5.955   3.583  13.512  0.00  0.00    +0.000 C 
ENDBRANCH   1  12
BRANCH   3  14
ATOM     14  C   UNL     1       4.096   4.446  18.540  0.00  0.00    +0.000 C 
ATOM     15  S   UNL     1       4.339   3.052  19.436  0.00  0.00    +0.000 S 
BRANCH  14  16
ATOM     16  N   UNL     1       2.883   5.090  18.334  0.00  0.00    +0.000 N 
ATOM     17  H   UNL     1       2.141   4.435  18.103  0.00  0.00    +0.000 HD
BRANCH  16  18
ATOM     18  C   UNL     1       2.451   6.338  18.831  0.00  0.00    +0.000 A 
ATOM     19  C   UNL     1       2.433   7.469  18.011  0.00  0.00    +0.000 A 
ATOM     20  C   UNL     1       1.947   8.683  18.498  0.00  0.00    +0.000 A 
ATOM     21  C   UNL     1       1.480   8.771  19.808  0.00  0.00    +0.000 A 
ATOM     22 CL   UNL     1       0.895  10.276  20.400  0.00  0.00    +0.000 Cl
ATOM     23  C   UNL     1       1.473   7.651  20.634  0.00  0.00    +0.000 A 
ATOM     24  C   UNL     1       1.943   6.434  20.141  0.00  0.00    +0.000 A 
ATOM     25 CL   UNL     1       1.913   5.057  21.189  0.00  0.00    +0.000 Cl
ENDBRANCH  16  18
ENDBRANCH  14  16
ENDBRANCH   3  14
TORSDOF 4
ENDMDL
MODEL 4
REMARK VINA RESULT:      -7.1      0.667      1.399
REMARK  Name = 
REMARK  5 active torsions:
REMARK  status: ('A' for Active; 'I' for Inactive)
REMARK    1  A    between atoms: C_1  and  N_2
REMARK    2  A    between atoms: C_6  and  C_7
REMARK    3  A    between atoms: N_9  and  C_10
REMARK    4  A    between atoms: C_10  and  N_12
REMARK    5  A    between atoms: N_12  and  C_13
REMARK                            x       y       z     vdW  Elec       q    Type
REMARK                         _______ _______ _______ _____ _____    ______ ____
ROOT
ATOM      1  C   UNL     1       2.200   5.940  20.104  0.00  0.00    +0.000 C 
ATOM      2  C   UNL     1       2.386   5.298  18.709  0.00  0.00    +0.000 C 
ATOM      3  N   UNL     1       2.571   3.844  18.774  0.00  0.00    +0.000 N 
ATOM      4  C   UNL     1       1.619   3.156  19.651  0.00  0.00    +0.000 C 
ATOM      5  C   UNL     1       1.576   3.846  21.021  0.00  0.00    +0.000 C 
ATOM      6  O   UNL     1       1.212   5.227  20.874  0.00  0.00    +0.000 OA
ENDROOT
BRANCH   1  12
ATOM      7  C   UNL     1       2.542  10.181  17.909  0.00  0.00    +0.000 C 
ATOM      8  N   UNL     1       1.454   9.433  18.514  0.00  0.00    +0.000 NA
ATOM      9  C   UNL     1       0.801  10.107  19.630  0.00  0.00    +0.000 C 
ATOM     10  C   UNL     1       0.911   9.499  21.037  0.00  0.00    +0.000 C 
ATOM     11  C   UNL     1       1.378   8.084  21.101  0.00  0.00    +0.000 C 
ATOM     12  C   UNL     1       1.749   7.390  20.011  0.00  0.00    +0.000 C 
ATOM     13  C   UNL     1       1.705   8.001  18.630  0.00  0.00    +0.000 C 
ENDBRANCH   1  12
BRANCH   3  14
ATOM     14  C   UNL     1       3.730   3.190  18.370  0.00  0.00    +0.000 C 
ATOM     15  S   UNL     1       3.874   1.521  18.325  0.00  0.00    +0.000 S 
BRANCH  14  16
ATOM     16  N   UNL     1       4.738   4.110  18.110  0.00  0.00    +0.000 N 
ATOM     17  H   UNL     1       5.220   4.394  18.958  0.00  0.00    +0.000 HD
BRANCH  16  18
ATOM     18  C   UNL     1       5.454   4.318  16.913  0.00  0.00    +0.000 A 
ATOM     19  C   UNL     1       4.867   4.060  15.671  0.00  0.00    +0.000 A 
ATOM     20  C   UNL     1       5.565   4.328  14.494  0.00  0.00    +0.000 A 
ATOM     21  C   UNL     1       6.854   4.852  14.552  0.00  0.00    +0.000 A 
ATOM     22 CL   UNL     1       7.709   5.167  13.093  0.00  0.00    +0.000 Cl
ATOM     23  C   UNL     1       7.450   5.134  15.778  0.00  0.00    +0.000 A 
ATOM     24  C   UNL     1       6.745   4.881  16.955  0.00  0.00    +0.000 A 
ATOM     25 CL   UNL     1       7.507   5.250  18.464  0.00  0.00    +0.000 Cl
ENDBRANCH  16  18
ENDBRANCH  14  16
ENDBRANCH   3  14
TORSDOF 4
ENDMDL
MODEL 5
REMARK VINA RESULT:      -7.0      3.091      6.928
REMARK  Name = 
REMARK  5 active torsions:
REMARK  status: ('A' for Active; 'I' for Inactive)
REMARK    1  A    between atoms: C_1  and  N_2
REMARK    2  A    between atoms: C_6  and  C_7
REMARK    3  A    between atoms: N_9  and  C_10
REMARK    4  A    between atoms: C_10  and  N_12
REMARK    5  A    between atoms: N_12  and  C_13
REMARK                            x       y       z     vdW  Elec       q    Type
REMARK                         _______ _______ _______ _____ _____    ______ ____
ROOT
ATOM      1  C   UNL     1       4.173   3.942  17.012  0.00  0.00    +0.000 C 
ATOM      2  C   UNL     1       4.394   4.593  18.398  0.00  0.00    +0.000 C 
ATOM      3  N   UNL     1       3.465   4.088  19.416  0.00  0.00    +0.000 N 
ATOM      4  C   UNL     1       3.328   2.628  19.431  0.00  0.00    +0.000 C 
ATOM      5  C   UNL     1       3.046   2.114  18.013  0.00  0.00    +0.000 C 
ATOM      6  O   UNL     1       4.099   2.507  17.120  0.00  0.00    +0.000 OA
ENDROOT
BRANCH   1  12
ATOM      7  C   UNL     1       6.141   3.311  12.693  0.00  0.00    +0.000 C 
ATOM      8  N   UNL     1       6.016   4.439  13.599  0.00  0.00    +0.000 NA
ATOM      9  C   UNL     1       7.285   4.997  14.053  0.00  0.00    +0.000 C 
ATOM     10  C   UNL     1       7.656   4.894  15.541  0.00  0.00    +0.000 C 
ATOM     11  C   UNL     1       6.540   4.547  16.468  0.00  0.00    +0.000 C 
ATOM     12  C   UNL     1       5.297   4.272  16.040  0.00  0.00    +0.000 C 
ATOM     13  C   UNL     1       4.938   4.307  14.573  0.00  0.00    +0.000 C 
ENDBRANCH   1  12
BRANCH   3  14
ATOM     14  C   UNL     1       2.518   4.874  20.062  0.00  0.00    +0.000 C 
ATOM     15  S   UNL     1       1.062   4.274  20.632  0.00  0.00    +0.000 S 
BRANCH  14  16
ATOM     16  N   UNL     1       2.922   6.203  20.075  0.00  0.00    +0.000 N 
ATOM     17  H   UNL     1       3.903   6.303  19.831  0.00  0.00    +0.000 HD
BRANCH  16  18
ATOM     18  C   UNL     1       2.139   7.364  19.908  0.00  0.00    +0.000 A 
ATOM     19  C   UNL     1       1.363   7.863  20.958  0.00  0.00    +0.000 A 
ATOM     20  C   UNL     1       0.641   9.047  20.798  0.00  0.00    +0.000 A 
ATOM     21  C   UNL     1       0.689   9.733  19.587  0.00  0.00    +0.000 A 
ATOM     22 CL   UNL     1      -0.216  11.184  19.399  0.00  0.00    +0.000 Cl
ATOM     23  C   UNL     1       1.471   9.263  18.536  0.00  0.00    +0.000 A 
ATOM     24  C   UNL     1       2.205   8.089  18.702  0.00  0.00    +0.000 A 
ATOM     25 CL   UNL     1       3.176   7.534  17.381  0.00  0.00    +0.000 Cl
ENDBRANCH  16  18
ENDBRANCH  14  16
ENDBRANCH   3  14
TORSDOF 4
ENDMDL
MODEL 6
REMARK VINA RESULT:      -7.0      1.354      1.556
REMARK  Name = 
REMARK  5 active torsions:
REMARK  status: ('A' for Active; 'I' for Inactive)
REMARK    1  A    between atoms: C_1  and  N_2
REMARK    2  A    between atoms: C_6  and  C_7
REMARK    3  A    between atoms: N_9  and  C_10
REMARK    4  A    between atoms: C_10  and  N_12
REMARK    5  A    between atoms: N_12  and  C_13
REMARK                            x       y       z     vdW  Elec       q    Type
REMARK                         _______ _______ _______ _____ _____    ______ ____
ROOT
ATOM      1  C   UNL     1       1.993   6.914  20.473  0.00  0.00    +0.000 C 
ATOM      2  C   UNL     1       2.572   6.633  19.065  0.00  0.00    +0.000 C 
ATOM      3  N   UNL     1       2.827   5.207  18.831  0.00  0.00    +0.000 N 
ATOM      4  C   UNL     1       1.727   4.326  19.236  0.00  0.00    +0.000 C 
ATOM      5  C   UNL     1       1.289   4.660  20.669  0.00  0.00    +0.000 C 
ATOM      6  O   UNL     1       0.888   6.035  20.762  0.00  0.00    +0.000 OA
ENDROOT
BRANCH   1  12
ATOM      7  C   UNL     1      -0.592  10.106  22.931  0.00  0.00    +0.000 C 
ATOM      8  N   UNL     1       0.655  10.161  22.190  0.00  0.00    +0.000 NA
ATOM      9  C   UNL     1       0.650  11.084  21.061  0.00  0.00    +0.000 C 
ATOM     10  C   UNL     1       0.779  10.523  19.637  0.00  0.00    +0.000 C 
ATOM     11  C   UNL     1       1.252   9.112  19.533  0.00  0.00    +0.000 C 
ATOM     12  C   UNL     1       1.490   8.343  20.609  0.00  0.00    +0.000 C 
ATOM     13  C   UNL     1       1.304   8.867  22.014  0.00  0.00    +0.000 C 
ENDBRANCH   1  12
BRANCH   3  14
ATOM     14  C   UNL     1       4.090   4.670  18.607  0.00  0.00    +0.000 C 
ATOM     15  S   UNL     1       4.637   3.271  19.347  0.00  0.00    +0.000 S 
BRANCH  14  16
ATOM     16  N   UNL     1       4.826   5.501  17.771  0.00  0.00    +0.000 N 
ATOM     17  H   UNL     1       5.224   6.288  18.276  0.00  0.00    +0.000 HD
BRANCH  16  18
ATOM     18  C   UNL     1       5.456   5.189  16.549  0.00  0.00    +0.000 A 
ATOM     19  C   UNL     1       4.795   4.441  15.571  0.00  0.00    +0.000 A 
ATOM     20  C   UNL     1       5.408   4.191  14.343  0.00  0.00    +0.000 A 
ATOM     21  C   UNL     1       6.686   4.684  14.089  0.00  0.00    +0.000 A 
ATOM     22 CL   UNL     1       7.435   4.358  12.575  0.00  0.00    +0.000 Cl
ATOM     23  C   UNL     1       7.354   5.446  15.043  0.00  0.00    +0.000 A 
ATOM     24  C   UNL     1       6.734   5.710  16.264  0.00  0.00    +0.000 A 
ATOM     25 CL   UNL     1       7.585   6.668  17.427  0.00  0.00    +0.000 Cl
ENDBRANCH  16  18
ENDBRANCH  14  16
ENDBRANCH   3  14
TORSDOF 4
ENDMDL
MODEL 7
REMARK VINA RESULT:      -6.9      1.521      2.653
REMARK  Name = 
REMARK  5 active torsions:
REMARK  status: ('A' for Active; 'I' for Inactive)
REMARK    1  A    between atoms: C_1  and  N_2
REMARK    2  A    between atoms: C_6  and  C_7
REMARK    3  A    between atoms: N_9  and  C_10
REMARK    4  A    between atoms: C_10  and  N_12
REMARK    5  A    between atoms: N_12  and  C_13
REMARK                            x       y       z     vdW  Elec       q    Type
REMARK                         _______ _______ _______ _____ _____    ______ ____
ROOT
ATOM      1  C   UNL     1       2.395   5.951  19.940  0.00  0.00    +0.000 C 
ATOM      2  C   UNL     1       2.150   5.149  18.640  0.00  0.00    +0.000 C 
ATOM      3  N   UNL     1       2.451   3.720  18.790  0.00  0.00    +0.000 N 
ATOM      4  C   UNL     1       1.898   3.115  20.006  0.00  0.00    +0.000 C 
ATOM      5  C   UNL     1       2.265   3.967  21.228  0.00  0.00    +0.000 C 
ATOM      6  O   UNL     1       1.775   5.307  21.070  0.00  0.00    +0.000 OA
ENDROOT
BRANCH   1  12
ATOM      7  C   UNL     1       2.507  10.258  17.852  0.00  0.00    +0.000 C 
ATOM      8  N   UNL     1       1.453   9.414  18.386  0.00  0.00    +0.000 NA
ATOM      9  C   UNL     1       0.696  10.007  19.482  0.00  0.00    +0.000 C 
ATOM     10  C   UNL     1       0.785   9.376  20.879  0.00  0.00    +0.000 C 
ATOM     11  C   UNL     1       1.359   8.000  20.938  0.00  0.00    +0.000 C 
ATOM     12  C   UNL     1       1.836   7.364  19.854  0.00  0.00    +0.000 C 
ATOM     13  C   UNL     1       1.810   8.003  18.485  0.00  0.00    +0.000 C 
ENDBRANCH   1  12
BRANCH   3  14
ATOM     14  C   UNL     1       3.453   3.059  18.088  0.00  0.00    +0.000 C 
ATOM     15  S   UNL     1       3.789   1.430  18.284  0.00  0.00    +0.000 S 
BRANCH  14  16
ATOM     16  N   UNL     1       4.160   3.956  17.296  0.00  0.00    +0.000 N 
ATOM     17  H   UNL     1       3.633   4.228  16.471  0.00  0.00    +0.000 HD
BRANCH  16  18
ATOM     18  C   UNL     1       5.191   4.842  17.672  0.00  0.00    +0.000 A 
ATOM     19  C   UNL     1       5.736   4.803  18.958  0.00  0.00    +0.000 A 
ATOM     20  C   UNL     1       6.797   5.643  19.298  0.00  0.00    +0.000 A 
ATOM     21  C   UNL     1       7.313   6.529  18.355  0.00  0.00    +0.000 A 
ATOM     22 CL   UNL     1       8.613   7.568  18.791  0.00  0.00    +0.000 Cl
ATOM     23  C   UNL     1       6.796   6.570  17.064  0.00  0.00    +0.000 A 
ATOM     24  C   UNL     1       5.747   5.717  16.719  0.00  0.00    +0.000 A 
ATOM     25 CL   UNL     1       5.131   5.784  15.104  0.00  0.00    +0.000 Cl
ENDBRANCH  16  18
ENDBRANCH  14  16
ENDBRANCH   3  14
TORSDOF 4
ENDMDL
MODEL 8
REMARK VINA RESULT:      -6.8      3.499      7.476
REMARK  Name = 
REMARK  5 active torsions:
REMARK  status: ('A' for Active; 'I' for Inactive)
REMARK    1  A    between atoms: C_1  and  N_2
REMARK    2  A    between atoms: C_6  and  C_7
REMARK    3  A    between atoms: N_9  and  C_10
REMARK    4  A    between atoms: C_10  and  N_12
REMARK    5  A    between atoms: N_12  and  C_13
REMARK                            x       y       z     vdW  Elec       q    Type
REMARK                         _______ _______ _______ _____ _____    ______ ____
ROOT
ATOM      1  C   UNL     1       5.426   4.766  15.716  0.00  0.00    +0.000 C 
ATOM      2  C   UNL     1       4.921   6.210  15.946  0.00  0.00    +0.000 C 
ATOM      3  N   UNL     1       4.489   6.447  17.328  0.00  0.00    +0.000 N 
ATOM      4  C   UNL     1       5.423   5.948  18.343  0.00  0.00    +0.000 C 
ATOM      5  C   UNL     1       5.794   4.490  18.040  0.00  0.00    +0.000 C 
ATOM      6  O   UNL     1       6.374   4.382  16.731  0.00  0.00    +0.000 OA
ENDROOT
BRANCH   1  12
ATOM      7  C   UNL     1       6.201   2.079  11.830  0.00  0.00    +0.000 C 
ATOM      8  N   UNL     1       6.052   3.503  12.069  0.00  0.00    +0.000 NA
ATOM      9  C   UNL     1       7.211   4.305  11.698  0.00  0.00    +0.000 C 
ATOM     10  C   UNL     1       7.997   5.036  12.798  0.00  0.00    +0.000 C 
ATOM     11  C   UNL     1       7.312   5.156  14.118  0.00  0.00    +0.000 C 
ATOM     12  C   UNL     1       6.111   4.607  14.366  0.00  0.00    +0.000 C 
ATOM     13  C   UNL     1       5.359   3.832  13.310  0.00  0.00    +0.000 C 
ENDBRANCH   1  12
BRANCH   3  14
ATOM     14  C   UNL     1       3.184   6.762  17.692  0.00  0.00    +0.000 C 
ATOM     15  S   UNL     1       2.689   8.315  18.075  0.00  0.00    +0.000 S 
BRANCH  14  16
ATOM     16  N   UNL     1       2.413   5.610  17.769  0.00  0.00    +0.000 N 
ATOM     17  H   UNL     1       2.303   5.166  16.862  0.00  0.00    +0.000 HD
BRANCH  16  18
ATOM     18  C   UNL     1       2.191   4.770  18.881  0.00  0.00    +0.000 A 
ATOM     19  C   UNL     1       1.889   5.306  20.136  0.00  0.00    +0.000 A 
ATOM     20  C   UNL     1       1.612   4.463  21.212  0.00  0.00    +0.000 A 
ATOM     21  C   UNL     1       1.639   3.081  21.040  0.00  0.00    +0.000 A 
ATOM     22 CL   UNL     1       1.308   2.052  22.378  0.00  0.00    +0.000 Cl
ATOM     23  C   UNL     1       1.919   2.528  19.793  0.00  0.00    +0.000 A 
ATOM     24  C   UNL     1       2.179   3.371  18.714  0.00  0.00    +0.000 A 
ATOM     25 CL   UNL     1       2.515   2.655  17.174  0.00  0.00    +0.000 Cl
ENDBRANCH  16  18
ENDBRANCH  14  16
ENDBRANCH   3  14
TORSDOF 4
ENDMDL
MODEL 9
REMARK VINA RESULT:      -6.8      1.743      1.931
REMARK  Name = 
REMARK  5 active torsions:
REMARK  status: ('A' for Active; 'I' for Inactive)
REMARK    1  A    between atoms: C_1  and  N_2
REMARK    2  A    between atoms: C_6  and  C_7
REMARK    3  A    between atoms: N_9  and  C_10
REMARK    4  A    between atoms: C_10  and  N_12
REMARK    5  A    between atoms: N_12  and  C_13
REMARK                            x       y       z     vdW  Elec       q    Type
REMARK                         _______ _______ _______ _____ _____    ______ ____
ROOT
ATOM      1  C   UNL     1       2.412   6.383  19.440  0.00  0.00    +0.000 C 
ATOM      2  C   UNL     1       2.012   5.477  18.251  0.00  0.00    +0.000 C 
ATOM      3  N   UNL     1       2.137   4.048  18.560  0.00  0.00    +0.000 N 
ATOM      4  C   UNL     1       1.565   3.661  19.854  0.00  0.00    +0.000 C 
ATOM      5  C   UNL     1       2.089   4.591  20.957  0.00  0.00    +0.000 C 
ATOM      6  O   UNL     1       1.765   5.957  20.655  0.00  0.00    +0.000 OA
ENDROOT
BRANCH   1  12
ATOM      7  C   UNL     1      -0.541  10.029  20.393  0.00  0.00    +0.000 C 
ATOM      8  N   UNL     1       0.884   9.914  20.139  0.00  0.00    +0.000 NA
ATOM      9  C   UNL     1       1.354  10.650  18.972  0.00  0.00    +0.000 C 
ATOM     10  C   UNL     1       1.908   9.870  17.770  0.00  0.00    +0.000 C 
ATOM     11  C   UNL     1       2.251   8.440  18.023  0.00  0.00    +0.000 C 
ATOM     12  C   UNL     1       2.031   7.838  19.204  0.00  0.00    +0.000 C 
ATOM     13  C   UNL     1       1.427   8.580  20.372  0.00  0.00    +0.000 C 
ENDBRANCH   1  12
BRANCH   3  14
ATOM     14  C   UNL     1       3.017   3.187  17.913  0.00  0.00    +0.000 C 
ATOM     15  S   UNL     1       3.191   1.573  18.325  0.00  0.00    +0.000 S 
BRANCH  14  16
ATOM     16  N   UNL     1       3.763   3.880  16.968  0.00  0.00    +0.000 N 
ATOM     17  H   UNL     1       3.265   3.973  16.087  0.00  0.00    +0.000 HD
BRANCH  16  18
ATOM     18  C   UNL     1       4.801   4.812  17.175  0.00  0.00    +0.000 A 
ATOM     19  C   UNL     1       5.019   5.855  16.271  0.00  0.00    +0.000 A 
ATOM     20  C   UNL     1       6.010   6.805  16.519  0.00  0.00    +0.000 A 
ATOM     21  C   UNL     1       6.789   6.715  17.670  0.00  0.00    +0.000 A 
ATOM     22 CL   UNL     1       8.016   7.886  17.957  0.00  0.00    +0.000 Cl
ATOM     23  C   UNL     1       6.575   5.694  18.592  0.00  0.00    +0.000 A 
ATOM     24  C   UNL     1       5.573   4.755  18.352  0.00  0.00    +0.000 A 
ATOM     25 CL   UNL     1       5.324   3.503  19.520  0.00  0.00    +0.000 Cl
ENDBRANCH  16  18
ENDBRANCH  14  16
ENDBRANCH   3  14
TORSDOF 4
ENDMDL
