MODEL 1
REMARK VINA RESULT:      -7.5      0.000      0.000
REMARK  Name = 
REMARK  4 active torsions:
REMARK  status: ('A' for Active; 'I' for Inactive)
REMARK    1  A    between atoms: C_2  and  C_15
REMARK    2  A    between atoms: N_3  and  C_4
REMARK    3  A    between atoms: C_4  and  N_6
REMARK    4  A    between atoms: N_6  and  C_7
REMARK                            x       y       z     vdW  Elec       q    Type
REMARK                         _______ _______ _______ _____ _____    ______ ____
ROOT
ATOM      1  C   UNL     1       6.491   4.604  18.206  0.00  0.00    +0.000 C 
ATOM      2  S   UNL     1       7.393   5.603  19.189  0.00  0.00    +0.000 S 
ENDROOT
BRANCH   1   5
ATOM      3  O   UNL     1       5.906   6.511  16.003  0.00  0.00    +0.000 OA
ATOM      4  C   UNL     1       6.319   5.372  15.819  0.00  0.00    +0.000 C 
ATOM      5  N   UNL     1       6.591   4.463  16.828  0.00  0.00    +0.000 N 
ATOM      6  H   UNL     1       6.935   3.567  16.508  0.00  0.00    +0.000 HD
BRANCH   4   7
ATOM      7  C   UNL     1       6.479   4.833  14.481  0.00  0.00    +0.000 A 
ATOM      8  C   UNL     1       5.781   3.825  13.848  0.00  0.00    +0.000 A 
ATOM      9  C   UNL     1       6.376   3.641  12.584  0.00  0.00    +0.000 A 
ATOM     10  C   UNL     1       7.396   4.561  12.508  0.00  0.00    +0.000 A 
ATOM     11  O   UNL     1       7.472   5.290  13.655  0.00  0.00    +0.000 OA
ENDBRANCH   4   7
ENDBRANCH   1   5
BRANCH   1  12
ATOM     12  N   UNL     1       5.578   3.769  18.808  0.00  0.00    +0.000 N 
ATOM     13  H   UNL     1       5.973   2.933  19.237  0.00  0.00    +0.000 HD
BRANCH  12  14
ATOM     14  C   UNL     1       4.206   4.005  19.061  0.00  0.00    +0.000 A 
ATOM     15  C   UNL     1       3.762   5.238  19.556  0.00  0.00    +0.000 A 
ATOM     16  C   UNL     1       2.410   5.445  19.819  0.00  0.00    +0.000 A 
ATOM     17 CL   UNL     1       1.890   6.962  20.443  0.00  0.00    +0.000 Cl
ATOM     18  C   UNL     1       1.483   4.432  19.593  0.00  0.00    +0.000 A 
ATOM     19  C   UNL     1       1.917   3.190  19.124  0.00  0.00    +0.000 A 
ATOM     20  C   UNL     1       3.276   2.970  18.879  0.00  0.00    +0.000 A 
ATOM     21 CL   UNL     1       3.763   1.420  18.291  0.00  0.00    +0.000 Cl
ENDBRANCH  12  14
ENDBRANCH   1  12
TORSDOF 4
ENDMDL
MODEL 2
REMARK VINA RESULT:      -7.3      1.720      2.811
REMARK  Name = 
REMARK  4 active torsions:
REMARK  status: ('A' for Active; 'I' for Inactive)
REMARK    1  A    between atoms: C_2  and  C_15
REMARK    2  A    between atoms: N_3  and  C_4
REMARK    3  A    between atoms: C_4  and  N_6
REMARK    4  A    between atoms: N_6  and  C_7
REMARK                            x       y       z     vdW  Elec       q    Type
REMARK                         _______ _______ _______ _____ _____    ______ ____
ROOT
ATOM      1  C   UNL     1       6.496   6.727  17.230  0.00  0.00    +0.000 C 
ATOM      2  S   UNL     1       7.574   7.950  17.579  0.00  0.00    +0.000 S 
ENDROOT
BRANCH   1   5
ATOM      3  O   UNL     1       7.946   4.329  16.240  0.00  0.00    +0.000 OA
ATOM      4  C   UNL     1       7.065   4.896  15.604  0.00  0.00    +0.000 C 
ATOM      5  N   UNL     1       6.381   6.020  16.041  0.00  0.00    +0.000 N 
ATOM      6  H   UNL     1       5.676   6.360  15.400  0.00  0.00    +0.000 HD
BRANCH   4   7
ATOM      7  C   UNL     1       6.714   4.478  14.260  0.00  0.00    +0.000 A 
ATOM      8  C   UNL     1       5.640   3.731  13.823  0.00  0.00    +0.000 A 
ATOM      9  C   UNL     1       5.801   3.547  12.435  0.00  0.00    +0.000 A 
ATOM     10  C   UNL     1       6.959   4.209  12.098  0.00  0.00    +0.000 A 
ATOM     11  O   UNL     1       7.526   4.777  13.198  0.00  0.00    +0.000 OA
ENDBRANCH   4   7
ENDBRANCH   1   5
BRANCH   1  12
ATOM     12  N   UNL     1       5.655   6.311  18.235  0.00  0.00    +0.000 N 
ATOM     13  H   UNL     1       5.807   6.755  19.139  0.00  0.00    +0.000 HD
BRANCH  12  14
ATOM     14  C   UNL     1       4.507   5.490  18.135  0.00  0.00    +0.000 A 
ATOM     15  C   UNL     1       4.612   4.093  18.155  0.00  0.00    +0.000 A 
ATOM     16  C   UNL     1       3.473   3.300  18.034  0.00  0.00    +0.000 A 
ATOM     17 CL   UNL     1       3.627   1.586  18.042  0.00  0.00    +0.000 Cl
ATOM     18  C   UNL     1       2.217   3.884  17.892  0.00  0.00    +0.000 A 
ATOM     19  C   UNL     1       2.103   5.275  17.845  0.00  0.00    +0.000 A 
ATOM     20  C   UNL     1       3.245   6.075  17.945  0.00  0.00    +0.000 A 
ATOM     21 CL   UNL     1       3.052   7.791  17.891  0.00  0.00    +0.000 Cl
ENDBRANCH  12  14
ENDBRANCH   1  12
TORSDOF 4
ENDMDL
MODEL 3
REMARK VINA RESULT:      -7.1      1.046      1.046
REMARK  Name = 
REMARK  4 active torsions:
REMARK  status: ('A' for Active; 'I' for Inactive)
REMARK    1  A    between atoms: C_2  and  C_15
REMARK    2  A    between atoms: N_3  and  C_4
REMARK    3  A    between atoms: C_4  and  N_6
REMARK    4  A    between atoms: N_6  and  C_7
REMARK                            x       y       z     vdW  Elec       q    Type
REMARK                         _______ _______ _______ _____ _____    ______ ____
ROOT
ATOM      1  C   UNL     1       6.792   4.903  18.486  0.00  0.00    +0.000 C 
ATOM      2  S   UNL     1       7.972   5.546  19.474  0.00  0.00    +0.000 S 
ENDROOT
BRANCH   1   5
ATOM      3  O   UNL     1       6.475   6.828  16.244  0.00  0.00    +0.000 OA
ATOM      4  C   UNL     1       6.709   5.636  16.083  0.00  0.00    +0.000 C 
ATOM      5  N   UNL     1       6.852   4.718  17.112  0.00  0.00    +0.000 N 
ATOM      6  H   UNL     1       7.053   3.774  16.809  0.00  0.00    +0.000 HD
BRANCH   4   7
ATOM      7  C   UNL     1       6.769   5.049  14.757  0.00  0.00    +0.000 A 
ATOM      8  C   UNL     1       6.000   4.048  14.202  0.00  0.00    +0.000 A 
ATOM      9  C   UNL     1       6.510   3.802  12.911  0.00  0.00    +0.000 A 
ATOM     10  C   UNL     1       7.554   4.682  12.744  0.00  0.00    +0.000 A 
ATOM     11  O   UNL     1       7.725   5.444  13.859  0.00  0.00    +0.000 OA
ENDBRANCH   4   7
ENDBRANCH   1   5
BRANCH   1  12
ATOM     12  N   UNL     1       5.642   4.440  19.083  0.00  0.00    +0.000 N 
ATOM     13  H   UNL     1       5.778   3.958  19.970  0.00  0.00    +0.000 HD
BRANCH  12  14
ATOM     14  C   UNL     1       4.299   4.698  18.718  0.00  0.00    +0.000 A 
ATOM     15  C   UNL     1       3.837   6.007  18.533  0.00  0.00    +0.000 A 
ATOM     16  C   UNL     1       2.506   6.242  18.195  0.00  0.00    +0.000 A 
ATOM     17 CL   UNL     1       1.957   7.859  17.990  0.00  0.00    +0.000 Cl
ATOM     18  C   UNL     1       1.620   5.181  18.036  0.00  0.00    +0.000 A 
ATOM     19  C   UNL     1       2.063   3.873  18.244  0.00  0.00    +0.000 A 
ATOM     20  C   UNL     1       3.392   3.633  18.604  0.00  0.00    +0.000 A 
ATOM     21 CL   UNL     1       3.895   1.997  18.840  0.00  0.00    +0.000 Cl
ENDBRANCH  12  14
ENDBRANCH   1  12
TORSDOF 4
ENDMDL
MODEL 4
REMARK VINA RESULT:      -7.0      1.708      2.786
REMARK  Name = 
REMARK  4 active torsions:
REMARK  status: ('A' for Active; 'I' for Inactive)
REMARK    1  A    between atoms: C_2  and  C_15
REMARK    2  A    between atoms: N_3  and  C_4
REMARK    3  A    between atoms: C_4  and  N_6
REMARK    4  A    between atoms: N_6  and  C_7
REMARK                            x       y       z     vdW  Elec       q    Type
REMARK                         _______ _______ _______ _____ _____    ______ ____
ROOT
ATOM      1  C   UNL     1       6.018   6.789  16.837  0.00  0.00    +0.000 C 
ATOM      2  S   UNL     1       7.310   7.446  17.661  0.00  0.00    +0.000 S 
ENDROOT
BRANCH   1   5
ATOM      3  O   UNL     1       7.773   4.520  16.059  0.00  0.00    +0.000 OA
ATOM      4  C   UNL     1       6.883   4.963  15.342  0.00  0.00    +0.000 C 
ATOM      5  N   UNL     1       6.058   6.024  15.680  0.00  0.00    +0.000 N 
ATOM      6  H   UNL     1       5.366   6.259  14.980  0.00  0.00    +0.000 HD
BRANCH   4   7
ATOM      7  C   UNL     1       6.669   4.453  14.000  0.00  0.00    +0.000 A 
ATOM      8  C   UNL     1       5.696   3.596  13.529  0.00  0.00    +0.000 A 
ATOM      9  C   UNL     1       5.975   3.363  12.168  0.00  0.00    +0.000 A 
ATOM     10  C   UNL     1       7.096   4.107  11.878  0.00  0.00    +0.000 A 
ATOM     11  O   UNL     1       7.530   4.772  12.984  0.00  0.00    +0.000 OA
ENDBRANCH   4   7
ENDBRANCH   1   5
BRANCH   1  12
ATOM     12  N   UNL     1       4.764   6.958  17.377  0.00  0.00    +0.000 N 
ATOM     13  H   UNL     1       4.208   7.701  16.956  0.00  0.00    +0.000 HD
BRANCH  12  14
ATOM     14  C   UNL     1       4.089   6.131  18.306  0.00  0.00    +0.000 A 
ATOM     15  C   UNL     1       4.572   4.854  18.623  0.00  0.00    +0.000 A 
ATOM     16  C   UNL     1       3.883   4.046  19.524  0.00  0.00    +0.000 A 
ATOM     17 CL   UNL     1       4.484   2.475  19.885  0.00  0.00    +0.000 Cl
ATOM     18  C   UNL     1       2.708   4.495  20.121  0.00  0.00    +0.000 A 
ATOM     19  C   UNL     1       2.204   5.755  19.792  0.00  0.00    +0.000 A 
ATOM     20  C   UNL     1       2.880   6.562  18.873  0.00  0.00    +0.000 A 
ATOM     21 CL   UNL     1       2.222   8.117  18.506  0.00  0.00    +0.000 Cl
ENDBRANCH  12  14
ENDBRANCH   1  12
TORSDOF 4
ENDMDL
MODEL 5
REMARK VINA RESULT:      -7.0      1.371      2.338
REMARK  Name = 
REMARK  4 active torsions:
REMARK  status: ('A' for Active; 'I' for Inactive)
REMARK    1  A    between atoms: C_2  and  C_15
REMARK    2  A    between atoms: N_3  and  C_4
REMARK    3  A    between atoms: C_4  and  N_6
REMARK    4  A    between atoms: N_6  and  C_7
REMARK                            x       y       z     vdW  Elec       q    Type
REMARK                         _______ _______ _______ _____ _____    ______ ____
ROOT
ATOM      1  C   UNL     1       6.565   5.323  18.702  0.00  0.00    +0.000 C 
ATOM      2  S   UNL     1       7.925   5.471  19.656  0.00  0.00    +0.000 S 
ENDROOT
BRANCH   1   5
ATOM      3  O   UNL     1       7.643   6.655  16.274  0.00  0.00    +0.000 OA
ATOM      4  C   UNL     1       7.029   5.595  16.247  0.00  0.00    +0.000 C 
ATOM      5  N   UNL     1       6.510   4.959  17.364  0.00  0.00    +0.000 N 
ATOM      6  H   UNL     1       6.039   4.085  17.170  0.00  0.00    +0.000 HD
BRANCH   4   7
ATOM      7  C   UNL     1       6.706   4.940  14.993  0.00  0.00    +0.000 A 
ATOM      8  C   UNL     1       5.711   4.030  14.706  0.00  0.00    +0.000 A 
ATOM      9  C   UNL     1       5.873   3.651  13.358  0.00  0.00    +0.000 A 
ATOM     10  C   UNL     1       6.952   4.366  12.891  0.00  0.00    +0.000 A 
ATOM     11  O   UNL     1       7.470   5.151  13.875  0.00  0.00    +0.000 OA
ENDBRANCH   4   7
ENDBRANCH   1   5
BRANCH   1  12
ATOM     12  N   UNL     1       5.342   5.518  19.300  0.00  0.00    +0.000 N 
ATOM     13  H   UNL     1       5.322   6.236  20.022  0.00  0.00    +0.000 HD
BRANCH  12  14
ATOM     14  C   UNL     1       4.086   4.984  18.924  0.00  0.00    +0.000 A 
ATOM     15  C   UNL     1       3.718   3.680  19.281  0.00  0.00    +0.000 A 
ATOM     16  C   UNL     1       2.486   3.164  18.884  0.00  0.00    +0.000 A 
ATOM     17 CL   UNL     1       2.062   1.554  19.318  0.00  0.00    +0.000 Cl
ATOM     18  C   UNL     1       1.607   3.936  18.131  0.00  0.00    +0.000 A 
ATOM     19  C   UNL     1       1.974   5.228  17.748  0.00  0.00    +0.000 A 
ATOM     20  C   UNL     1       3.217   5.743  18.125  0.00  0.00    +0.000 A 
ATOM     21 CL   UNL     1       3.623   7.349  17.635  0.00  0.00    +0.000 Cl
ENDBRANCH  12  14
ENDBRANCH   1  12
TORSDOF 4
ENDMDL
MODEL 6
REMARK VINA RESULT:      -6.9      1.658      2.371
REMARK  Name = 
REMARK  4 active torsions:
REMARK  status: ('A' for Active; 'I' for Inactive)
REMARK    1  A    between atoms: C_2  and  C_15
REMARK    2  A    between atoms: N_3  and  C_4
REMARK    3  A    between atoms: C_4  and  N_6
REMARK    4  A    between atoms: N_6  and  C_7
REMARK                            x       y       z     vdW  Elec       q    Type
REMARK                         _______ _______ _______ _____ _____    ______ ____
ROOT
ATOM      1  C   UNL     1       5.196   4.614  17.384  0.00  0.00    +0.000 C 
ATOM      2  S   UNL     1       6.124   4.714  18.766  0.00  0.00    +0.000 S 
ENDROOT
BRANCH   1   5
ATOM      3  O   UNL     1       7.386   5.964  15.894  0.00  0.00    +0.000 OA
ATOM      4  C   UNL     1       6.674   5.093  15.408  0.00  0.00    +0.000 C 
ATOM      5  N   UNL     1       5.643   4.455  16.079  0.00  0.00    +0.000 N 
ATOM      6  H   UNL     1       5.158   3.751  15.538  0.00  0.00    +0.000 HD
BRANCH   4   7
ATOM      7  C   UNL     1       6.799   4.705  14.015  0.00  0.00    +0.000 A 
ATOM      8  C   UNL     1       6.167   3.693  13.323  0.00  0.00    +0.000 A 
ATOM      9  C   UNL     1       6.691   3.696  12.015  0.00  0.00    +0.000 A 
ATOM     10  C   UNL     1       7.604   4.724  11.976  0.00  0.00    +0.000 A 
ATOM     11  O   UNL     1       7.682   5.344  13.186  0.00  0.00    +0.000 OA
ENDBRANCH   4   7
ENDBRANCH   1   5
BRANCH   1  12
ATOM     12  N   UNL     1       3.829   4.628  17.530  0.00  0.00    +0.000 N 
ATOM     13  H   UNL     1       3.303   4.291  16.725  0.00  0.00    +0.000 HD
BRANCH  12  14
ATOM     14  C   UNL     1       3.073   4.878  18.700  0.00  0.00    +0.000 A 
ATOM     15  C   UNL     1       2.672   3.831  19.541  0.00  0.00    +0.000 A 
ATOM     16  C   UNL     1       1.910   4.094  20.678  0.00  0.00    +0.000 A 
ATOM     17 CL   UNL     1       1.413   2.791  21.685  0.00  0.00    +0.000 Cl
ATOM     18  C   UNL     1       1.540   5.398  20.993  0.00  0.00    +0.000 A 
ATOM     19  C   UNL     1       1.912   6.447  20.149  0.00  0.00    +0.000 A 
ATOM     20  C   UNL     1       2.658   6.186  18.996  0.00  0.00    +0.000 A 
ATOM     21 CL   UNL     1       3.103   7.516  17.988  0.00  0.00    +0.000 Cl
ENDBRANCH  12  14
ENDBRANCH   1  12
TORSDOF 4
ENDMDL
MODEL 7
REMARK VINA RESULT:      -6.9      1.914      3.086
REMARK  Name = 
REMARK  4 active torsions:
REMARK  status: ('A' for Active; 'I' for Inactive)
REMARK    1  A    between atoms: C_2  and  C_15
REMARK    2  A    between atoms: N_3  and  C_4
REMARK    3  A    between atoms: C_4  and  N_6
REMARK    4  A    between atoms: N_6  and  C_7
REMARK                            x       y       z     vdW  Elec       q    Type
REMARK                         _______ _______ _______ _____ _____    ______ ____
ROOT
ATOM      1  C   UNL     1       3.625   6.775  17.873  0.00  0.00    +0.000 C 
ATOM      2  S   UNL     1       2.743   8.188  17.783  0.00  0.00    +0.000 S 
ENDROOT
BRANCH   1   5
ATOM      3  O   UNL     1       6.511   6.088  17.691  0.00  0.00    +0.000 OA
ATOM      4  C   UNL     1       5.702   5.853  16.800  0.00  0.00    +0.000 C 
ATOM      5  N   UNL     1       4.355   6.171  16.859  0.00  0.00    +0.000 N 
ATOM      6  H   UNL     1       3.821   5.900  16.043  0.00  0.00    +0.000 HD
BRANCH   4   7
ATOM      7  C   UNL     1       6.119   5.284  15.531  0.00  0.00    +0.000 A 
ATOM      8  C   UNL     1       5.497   4.335  14.746  0.00  0.00    +0.000 A 
ATOM      9  C   UNL     1       6.349   4.080  13.653  0.00  0.00    +0.000 A 
ATOM     10  C   UNL     1       7.439   4.902  13.824  0.00  0.00    +0.000 A 
ATOM     11  O   UNL     1       7.314   5.637  14.964  0.00  0.00    +0.000 OA
ENDBRANCH   4   7
ENDBRANCH   1   5
BRANCH   1  12
ATOM     12  N   UNL     1       3.704   6.149  19.095  0.00  0.00    +0.000 N 
ATOM     13  H   UNL     1       4.127   6.702  19.839  0.00  0.00    +0.000 HD
BRANCH  12  14
ATOM     14  C   UNL     1       3.125   4.920  19.491  0.00  0.00    +0.000 A 
ATOM     15  C   UNL     1       3.615   3.699  19.009  0.00  0.00    +0.000 A 
ATOM     16  C   UNL     1       3.017   2.500  19.394  0.00  0.00    +0.000 A 
ATOM     17 CL   UNL     1       3.624   1.014  18.775  0.00  0.00    +0.000 Cl
ATOM     18  C   UNL     1       1.929   2.500  20.261  0.00  0.00    +0.000 A 
ATOM     19  C   UNL     1       1.416   3.712  20.727  0.00  0.00    +0.000 A 
ATOM     20  C   UNL     1       1.997   4.919  20.328  0.00  0.00    +0.000 A 
ATOM     21 CL   UNL     1       1.333   6.392  20.939  0.00  0.00    +0.000 Cl
ENDBRANCH  12  14
ENDBRANCH   1  12
TORSDOF 4
ENDMDL
MODEL 8
REMARK VINA RESULT:      -6.9      3.432      6.392
REMARK  Name = 
REMARK  4 active torsions:
REMARK  status: ('A' for Active; 'I' for Inactive)
REMARK    1  A    between atoms: C_2  and  C_15
REMARK    2  A    between atoms: N_3  and  C_4
REMARK    3  A    between atoms: C_4  and  N_6
REMARK    4  A    between atoms: N_6  and  C_7
REMARK                            x       y       z     vdW  Elec       q    Type
REMARK                         _______ _______ _______ _____ _____    ______ ____
ROOT
ATOM      1  C   UNL     1       3.475   7.020  18.235  0.00  0.00    +0.000 C 
ATOM      2  S   UNL     1       2.459   8.229  17.700  0.00  0.00    +0.000 S 
ENDROOT
BRANCH   1   5
ATOM      3  O   UNL     1       1.856   4.605  17.617  0.00  0.00    +0.000 OA
ATOM      4  C   UNL     1       2.389   4.802  18.703  0.00  0.00    +0.000 C 
ATOM      5  N   UNL     1       3.141   5.923  19.017  0.00  0.00    +0.000 N 
ATOM      6  H   UNL     1       3.521   5.927  19.955  0.00  0.00    +0.000 HD
BRANCH   4   7
ATOM      7  C   UNL     1       2.197   3.890  19.816  0.00  0.00    +0.000 A 
ATOM      8  C   UNL     1       1.049   3.584  20.515  0.00  0.00    +0.000 A 
ATOM      9  C   UNL     1       1.416   2.694  21.545  0.00  0.00    +0.000 A 
ATOM     10  C   UNL     1       2.770   2.492  21.405  0.00  0.00    +0.000 A 
ATOM     11  O   UNL     1       3.259   3.216  20.359  0.00  0.00    +0.000 OA
ENDBRANCH   4   7
ENDBRANCH   1   5
BRANCH   1  12
ATOM     12  N   UNL     1       4.786   7.056  17.818  0.00  0.00    +0.000 N 
ATOM     13  H   UNL     1       5.335   7.832  18.183  0.00  0.00    +0.000 HD
BRANCH  12  14
ATOM     14  C   UNL     1       5.507   6.071  17.102  0.00  0.00    +0.000 A 
ATOM     15  C   UNL     1       5.085   5.641  15.837  0.00  0.00    +0.000 A 
ATOM     16  C   UNL     1       5.795   4.655  15.155  0.00  0.00    +0.000 A 
ATOM     17 CL   UNL     1       5.249   4.130  13.611  0.00  0.00    +0.000 Cl
ATOM     18  C   UNL     1       6.932   4.086  15.722  0.00  0.00    +0.000 A 
ATOM     19  C   UNL     1       7.347   4.487  16.993  0.00  0.00    +0.000 A 
ATOM     20  C   UNL     1       6.626   5.461  17.690  0.00  0.00    +0.000 A 
ATOM     21 CL   UNL     1       7.184   5.932  19.256  0.00  0.00    +0.000 Cl
ENDBRANCH  12  14
ENDBRANCH   1  12
TORSDOF 4
ENDMDL
MODEL 9
REMARK VINA RESULT:      -6.9      1.329      2.604
REMARK  Name = 
REMARK  4 active torsions:
REMARK  status: ('A' for Active; 'I' for Inactive)
REMARK    1  A    between atoms: C_2  and  C_15
REMARK    2  A    between atoms: N_3  and  C_4
REMARK    3  A    between atoms: C_4  and  N_6
REMARK    4  A    between atoms: N_6  and  C_7
REMARK                            x       y       z     vdW  Elec       q    Type
REMARK                         _______ _______ _______ _____ _____    ______ ____
ROOT
ATOM      1  C   UNL     1       6.569   5.714  17.913  0.00  0.00    +0.000 C 
ATOM      2  S   UNL     1       7.843   5.983  18.954  0.00  0.00    +0.000 S 
ENDROOT
BRANCH   1   5
ATOM      3  O   UNL     1       5.280   6.697  15.422  0.00  0.00    +0.000 OA
ATOM      4  C   UNL     1       6.026   5.726  15.458  0.00  0.00    +0.000 C 
ATOM      5  N   UNL     1       6.632   5.245  16.608  0.00  0.00    +0.000 N 
ATOM      6  H   UNL     1       7.229   4.440  16.465  0.00  0.00    +0.000 HD
BRANCH   4   7
ATOM      7  C   UNL     1       6.277   4.920  14.278  0.00  0.00    +0.000 A 
ATOM      8  C   UNL     1       7.368   4.911  13.434  0.00  0.00    +0.000 A 
ATOM      9  C   UNL     1       7.085   3.995  12.401  0.00  0.00    +0.000 A 
ATOM     10  C   UNL     1       5.840   3.481  12.683  0.00  0.00    +0.000 A 
ATOM     11  O   UNL     1       5.336   4.037  13.819  0.00  0.00    +0.000 OA
ENDBRANCH   4   7
ENDBRANCH   1   5
BRANCH   1  12
ATOM     12  N   UNL     1       5.296   5.915  18.394  0.00  0.00    +0.000 N 
ATOM     13  H   UNL     1       5.101   6.860  18.723  0.00  0.00    +0.000 HD
BRANCH  12  14
ATOM     14  C   UNL     1       4.186   5.041  18.331  0.00  0.00    +0.000 A 
ATOM     15  C   UNL     1       4.348   3.654  18.446  0.00  0.00    +0.000 A 
ATOM     16  C   UNL     1       3.245   2.807  18.360  0.00  0.00    +0.000 A 
ATOM     17 CL   UNL     1       3.470   1.106  18.486  0.00  0.00    +0.000 Cl
ATOM     18  C   UNL     1       1.970   3.327  18.158  0.00  0.00    +0.000 A 
ATOM     19  C   UNL     1       1.799   4.706  18.016  0.00  0.00    +0.000 A 
ATOM     20  C   UNL     1       2.905   5.558  18.081  0.00  0.00    +0.000 A 
ATOM     21 CL   UNL     1       2.643   7.257  17.908  0.00  0.00    +0.000 Cl
ENDBRANCH  12  14
ENDBRANCH   1  12
TORSDOF 4
ENDMDL
