MODEL 1
REMARK VINA RESULT:      -7.8      0.000      0.000
REMARK  Name = 
REMARK  8 active torsions:
REMARK  status: ('A' for Active; 'I' for Inactive)
REMARK    1  A    between atoms: C_1  and  O_2
REMARK    2  A    between atoms: O_2  and  C_3
REMARK    3  A    between atoms: C_3  and  C_4
REMARK    4  A    between atoms: C_4  and  O_5
REMARK    5  A    between atoms: O_5  and  C_6
REMARK    6  A    between atoms: C_8  and  C_9
REMARK    7  A    between atoms: N_17  and  C_18
REMARK    8  A    between atoms: C_21  and  N_22
REMARK                            x       y       z     vdW  Elec       q    Type
REMARK                         _______ _______ _______ _____ _____    ______ ____
ROOT
ATOM      1  C   UNL     1       7.373   7.049  17.805  0.00  0.00    +0.000 A 
ATOM      2  N   UNL     1       6.189   6.701  18.379  0.00  0.00    +0.000 NA
ATOM      3  C   UNL     1       5.657   5.861  17.507  0.00  0.00    +0.000 A 
ATOM      4  N   UNL     1       6.471   5.834  16.371  0.00  0.00    +0.000 N 
ATOM      5  N   UNL     1       7.616   6.516  16.610  0.00  0.00    +0.000 NA
ENDROOT
BRANCH   3   6
ATOM      6  C   UNL     1       4.483   5.019  17.781  0.00  0.00    +0.000 A 
ATOM      7  C   UNL     1       3.199   5.575  17.755  0.00  0.00    +0.000 A 
ATOM      8  C   UNL     1       2.072   4.780  18.000  0.00  0.00    +0.000 A 
ATOM      9  C   UNL     1       2.213   3.415  18.263  0.00  0.00    +0.000 A 
ATOM     10 CL   UNL     1       0.783   2.485  18.524  0.00  0.00    +0.000 Cl
ATOM     11  C   UNL     1       3.490   2.852  18.313  0.00  0.00    +0.000 A 
ATOM     12 CL   UNL     1       3.760   1.168  18.586  0.00  0.00    +0.000 Cl
ATOM     13  C   UNL     1       4.614   3.659  18.111  0.00  0.00    +0.000 A 
ENDBRANCH   3   6
BRANCH   4  14
ATOM     14  C   UNL     1       6.275   5.153  15.138  0.00  0.00    +0.000 A 
ATOM     15  C   UNL     1       5.090   4.441  14.893  0.00  0.00    +0.000 A 
ATOM     16  C   UNL     1       4.983   3.628  13.761  0.00  0.00    +0.000 A 
ATOM     17  C   UNL     1       6.056   3.545  12.864  0.00  0.00    +0.000 A 
ATOM     18  C   UNL     1       7.216   4.305  13.071  0.00  0.00    +0.000 A 
ATOM     19  C   UNL     1       7.317   5.126  14.199  0.00  0.00    +0.000 A 
BRANCH  17  20
ATOM     20  N   UNL     1       5.964   2.642  11.708  0.00  0.00    +0.000 N 
ATOM     21  O   UNL     1       7.015   2.134  11.293  0.00  0.00    +0.000 OA
ATOM     22  O   UNL     1       4.845   2.448  11.216  0.00  0.00    +0.000 OA
ENDBRANCH  17  20
ENDBRANCH   4  14
BRANCH   1  23
ATOM     23  O   UNL     1       8.343   7.828  18.317  0.00  0.00    +0.000 OA
BRANCH  23  24
ATOM     24  C   UNL     1       8.171   9.189  17.924  0.00  0.00    +0.000 C 
BRANCH  24  25
ATOM     25  C   UNL     1       9.054  10.085  18.790  0.00  0.00    +0.000 C 
BRANCH  25  27
ATOM     26  C   UNL     1      10.539  11.656  17.835  0.00  0.00    +0.000 C 
ATOM     27  O   UNL     1       9.187  11.358  18.156  0.00  0.00    +0.000 OA
ENDBRANCH  25  27
ENDBRANCH  24  25
ENDBRANCH  23  24
ENDBRANCH   1  23
TORSDOF 7
ENDMDL
MODEL 2
REMARK VINA RESULT:      -7.3      3.561      5.428
REMARK  Name = 
REMARK  8 active torsions:
REMARK  status: ('A' for Active; 'I' for Inactive)
REMARK    1  A    between atoms: C_1  and  O_2
REMARK    2  A    between atoms: O_2  and  C_3
REMARK    3  A    between atoms: C_3  and  C_4
REMARK    4  A    between atoms: C_4  and  O_5
REMARK    5  A    between atoms: O_5  and  C_6
REMARK    6  A    between atoms: C_8  and  C_9
REMARK    7  A    between atoms: N_17  and  C_18
REMARK    8  A    between atoms: C_21  and  N_22
REMARK                            x       y       z     vdW  Elec       q    Type
REMARK                         _______ _______ _______ _____ _____    ______ ____
ROOT
ATOM      1  C   UNL     1       7.566   6.789  17.976  0.00  0.00    +0.000 A 
ATOM      2  N   UNL     1       7.780   6.198  16.769  0.00  0.00    +0.000 NA
ATOM      3  C   UNL     1       6.703   5.451  16.595  0.00  0.00    +0.000 A 
ATOM      4  N   UNL     1       5.937   5.506  17.763  0.00  0.00    +0.000 N 
ATOM      5  N   UNL     1       6.444   6.442  18.600  0.00  0.00    +0.000 NA
ENDROOT
BRANCH   3   6
ATOM      6  C   UNL     1       6.345   4.800  15.326  0.00  0.00    +0.000 A 
ATOM      7  C   UNL     1       5.246   3.935  15.266  0.00  0.00    +0.000 A 
ATOM      8  C   UNL     1       4.887   3.320  14.060  0.00  0.00    +0.000 A 
ATOM      9  C   UNL     1       5.615   3.571  12.894  0.00  0.00    +0.000 A 
ATOM     10 CL   UNL     1       5.101   2.807  11.434  0.00  0.00    +0.000 Cl
ATOM     11  C   UNL     1       6.727   4.415  12.944  0.00  0.00    +0.000 A 
ATOM     12 CL   UNL     1       7.658   4.819  11.547  0.00  0.00    +0.000 Cl
ATOM     13  C   UNL     1       7.107   4.992  14.160  0.00  0.00    +0.000 A 
ENDBRANCH   3   6
BRANCH   4  14
ATOM     14  C   UNL     1       4.743   4.807  18.090  0.00  0.00    +0.000 A 
ATOM     15  C   UNL     1       3.488   5.324  17.733  0.00  0.00    +0.000 A 
ATOM     16  C   UNL     1       2.321   4.727  18.217  0.00  0.00    +0.000 A 
ATOM     17  C   UNL     1       2.411   3.600  19.043  0.00  0.00    +0.000 A 
ATOM     18  C   UNL     1       3.660   3.041  19.351  0.00  0.00    +0.000 A 
ATOM     19  C   UNL     1       4.827   3.634  18.855  0.00  0.00    +0.000 A 
BRANCH  17  20
ATOM     20  N   UNL     1       1.186   3.011  19.601  0.00  0.00    +0.000 N 
ATOM     21  O   UNL     1       0.422   2.427  18.819  0.00  0.00    +0.000 OA
ATOM     22  O   UNL     1       0.987   3.139  20.817  0.00  0.00    +0.000 OA
ENDBRANCH  17  20
ENDBRANCH   4  14
BRANCH   1  23
ATOM     23  O   UNL     1       8.328   7.711  18.593  0.00  0.00    +0.000 OA
BRANCH  23  24
ATOM     24  C   UNL     1       8.170   8.995  17.992  0.00  0.00    +0.000 C 
BRANCH  24  25
ATOM     25  C   UNL     1       8.991  10.025  18.765  0.00  0.00    +0.000 C 
BRANCH  25  27
ATOM     26  C   UNL     1      10.531  11.589  17.890  0.00  0.00    +0.000 C 
ATOM     27  O   UNL     1       9.171  11.183  17.949  0.00  0.00    +0.000 OA
ENDBRANCH  25  27
ENDBRANCH  24  25
ENDBRANCH  23  24
ENDBRANCH   1  23
TORSDOF 7
ENDMDL
MODEL 3
REMARK VINA RESULT:      -7.2      2.548      6.987
REMARK  Name = 
REMARK  8 active torsions:
REMARK  status: ('A' for Active; 'I' for Inactive)
REMARK    1  A    between atoms: C_1  and  O_2
REMARK    2  A    between atoms: O_2  and  C_3
REMARK    3  A    between atoms: C_3  and  C_4
REMARK    4  A    between atoms: C_4  and  O_5
REMARK    5  A    between atoms: O_5  and  C_6
REMARK    6  A    between atoms: C_8  and  C_9
REMARK    7  A    between atoms: N_17  and  C_18
REMARK    8  A    between atoms: C_21  and  N_22
REMARK                            x       y       z     vdW  Elec       q    Type
REMARK                         _______ _______ _______ _____ _____    ______ ____
ROOT
ATOM      1  C   UNL     1       6.299   4.468  15.542  0.00  0.00    +0.000 A 
ATOM      2  N   UNL     1       5.207   4.379  16.350  0.00  0.00    +0.000 NA
ATOM      3  C   UNL     1       5.325   5.427  17.147  0.00  0.00    +0.000 A 
ATOM      4  N   UNL     1       6.556   6.039  16.888  0.00  0.00    +0.000 N 
ATOM      5  N   UNL     1       7.124   5.481  15.793  0.00  0.00    +0.000 NA
ENDROOT
BRANCH   3   6
ATOM      6  C   UNL     1       4.263   5.909  18.042  0.00  0.00    +0.000 A 
ATOM      7  C   UNL     1       3.976   5.220  19.226  0.00  0.00    +0.000 A 
ATOM      8  C   UNL     1       2.976   5.677  20.094  0.00  0.00    +0.000 A 
ATOM      9  C   UNL     1       2.257   6.837  19.796  0.00  0.00    +0.000 A 
ATOM     10 CL   UNL     1       1.061   7.366  20.922  0.00  0.00    +0.000 Cl
ATOM     11  C   UNL     1       2.519   7.523  18.607  0.00  0.00    +0.000 A 
ATOM     12 CL   UNL     1       1.714   8.989  18.176  0.00  0.00    +0.000 Cl
ATOM     13  C   UNL     1       3.488   7.037  17.724  0.00  0.00    +0.000 A 
ENDBRANCH   3   6
BRANCH   4  14
ATOM     14  C   UNL     1       7.169   7.141  17.543  0.00  0.00    +0.000 A 
ATOM     15  C   UNL     1       6.973   8.452  17.079  0.00  0.00    +0.000 A 
ATOM     16  C   UNL     1       7.723   9.503  17.613  0.00  0.00    +0.000 A 
ATOM     17  C   UNL     1       8.653   9.245  18.628  0.00  0.00    +0.000 A 
ATOM     18  C   UNL     1       8.806   7.948  19.140  0.00  0.00    +0.000 A 
ATOM     19  C   UNL     1       8.047   6.899  18.611  0.00  0.00    +0.000 A 
BRANCH  17  20
ATOM     20  N   UNL     1       9.484  10.342  19.145  0.00  0.00    +0.000 N 
ATOM     21  O   UNL     1      10.151  10.991  18.327  0.00  0.00    +0.000 OA
ATOM     22  O   UNL     1       9.471  10.547  20.366  0.00  0.00    +0.000 OA
ENDBRANCH  17  20
ENDBRANCH   4  14
BRANCH   1  23
ATOM     23  O   UNL     1       6.620   3.684  14.496  0.00  0.00    +0.000 OA
BRANCH  23  24
ATOM     24  C   UNL     1       6.369   4.348  13.259  0.00  0.00    +0.000 C 
BRANCH  24  25
ATOM     25  C   UNL     1       6.584   3.372  12.104  0.00  0.00    +0.000 C 
BRANCH  25  27
ATOM     26  C   UNL     1       4.353   3.158  11.354  0.00  0.00    +0.000 C 
ATOM     27  O   UNL     1       5.444   2.518  12.001  0.00  0.00    +0.000 OA
ENDBRANCH  25  27
ENDBRANCH  24  25
ENDBRANCH  23  24
ENDBRANCH   1  23
TORSDOF 7
ENDMDL
MODEL 4
REMARK VINA RESULT:      -7.2      2.191      6.895
REMARK  Name = 
REMARK  8 active torsions:
REMARK  status: ('A' for Active; 'I' for Inactive)
REMARK    1  A    between atoms: C_1  and  O_2
REMARK    2  A    between atoms: O_2  and  C_3
REMARK    3  A    between atoms: C_3  and  C_4
REMARK    4  A    between atoms: C_4  and  O_5
REMARK    5  A    between atoms: O_5  and  C_6
REMARK    6  A    between atoms: C_8  and  C_9
REMARK    7  A    between atoms: N_17  and  C_18
REMARK    8  A    between atoms: C_21  and  N_22
REMARK                            x       y       z     vdW  Elec       q    Type
REMARK                         _______ _______ _______ _____ _____    ______ ____
ROOT
ATOM      1  C   UNL     1       6.361   4.540  15.432  0.00  0.00    +0.000 A 
ATOM      2  N   UNL     1       5.281   4.399  16.248  0.00  0.00    +0.000 NA
ATOM      3  C   UNL     1       5.386   5.421  17.079  0.00  0.00    +0.000 A 
ATOM      4  N   UNL     1       6.599   6.069  16.829  0.00  0.00    +0.000 N 
ATOM      5  N   UNL     1       7.167   5.561  15.709  0.00  0.00    +0.000 NA
ENDROOT
BRANCH   3   6
ATOM      6  C   UNL     1       4.324   5.848  18.002  0.00  0.00    +0.000 A 
ATOM      7  C   UNL     1       3.661   7.064  17.796  0.00  0.00    +0.000 A 
ATOM      8  C   UNL     1       2.639   7.475  18.660  0.00  0.00    +0.000 A 
ATOM      9  C   UNL     1       2.256   6.671  19.737  0.00  0.00    +0.000 A 
ATOM     10 CL   UNL     1       0.967   7.219  20.745  0.00  0.00    +0.000 Cl
ATOM     11  C   UNL     1       2.924   5.466  19.967  0.00  0.00    +0.000 A 
ATOM     12 CL   UNL     1       2.492   4.386  21.244  0.00  0.00    +0.000 Cl
ATOM     13  C   UNL     1       3.974   5.081  19.126  0.00  0.00    +0.000 A 
ENDBRANCH   3   6
BRANCH   4  14
ATOM     14  C   UNL     1       7.196   7.161  17.516  0.00  0.00    +0.000 A 
ATOM     15  C   UNL     1       7.004   8.479  17.072  0.00  0.00    +0.000 A 
ATOM     16  C   UNL     1       7.740   9.523  17.639  0.00  0.00    +0.000 A 
ATOM     17  C   UNL     1       8.652   9.249  18.666  0.00  0.00    +0.000 A 
ATOM     18  C   UNL     1       8.800   7.944  19.158  0.00  0.00    +0.000 A 
ATOM     19  C   UNL     1       8.055   6.902  18.595  0.00  0.00    +0.000 A 
BRANCH  17  20
ATOM     20  N   UNL     1       9.469  10.339  19.219  0.00  0.00    +0.000 N 
ATOM     21  O   UNL     1      10.174  10.984  18.430  0.00  0.00    +0.000 OA
ATOM     22  O   UNL     1       9.407  10.543  20.439  0.00  0.00    +0.000 OA
ENDBRANCH  17  20
ENDBRANCH   4  14
BRANCH   1  23
ATOM     23  O   UNL     1       6.687   3.800  14.356  0.00  0.00    +0.000 OA
BRANCH  23  24
ATOM     24  C   UNL     1       5.570   3.642  13.482  0.00  0.00    +0.000 C 
BRANCH  24  25
ATOM     25  C   UNL     1       6.063   3.243  12.093  0.00  0.00    +0.000 C 
BRANCH  25  27
ATOM     26  C   UNL     1       3.941   3.269  11.053  0.00  0.00    +0.000 C 
ATOM     27  O   UNL     1       5.050   2.472  11.445  0.00  0.00    +0.000 OA
ENDBRANCH  25  27
ENDBRANCH  24  25
ENDBRANCH  23  24
ENDBRANCH   1  23
TORSDOF 7
ENDMDL
MODEL 5
REMARK VINA RESULT:      -7.1      3.513      5.238
REMARK  Name = 
REMARK  8 active torsions:
REMARK  status: ('A' for Active; 'I' for Inactive)
REMARK    1  A    between atoms: C_1  and  O_2
REMARK    2  A    between atoms: O_2  and  C_3
REMARK    3  A    between atoms: C_3  and  C_4
REMARK    4  A    between atoms: C_4  and  O_5
REMARK    5  A    between atoms: O_5  and  C_6
REMARK    6  A    between atoms: C_8  and  C_9
REMARK    7  A    between atoms: N_17  and  C_18
REMARK    8  A    between atoms: C_21  and  N_22
REMARK                            x       y       z     vdW  Elec       q    Type
REMARK                         _______ _______ _______ _____ _____    ______ ____
ROOT
ATOM      1  C   UNL     1       7.708   7.185  17.875  0.00  0.00    +0.000 A 
ATOM      2  N   UNL     1       7.870   6.546  16.684  0.00  0.00    +0.000 NA
ATOM      3  C   UNL     1       6.816   5.752  16.614  0.00  0.00    +0.000 A 
ATOM      4  N   UNL     1       6.122   5.834  17.825  0.00  0.00    +0.000 N 
ATOM      5  N   UNL     1       6.642   6.827  18.585  0.00  0.00    +0.000 NA
ENDROOT
BRANCH   3   6
ATOM      6  C   UNL     1       6.406   5.028  15.401  0.00  0.00    +0.000 A 
ATOM      7  C   UNL     1       5.269   4.211  15.422  0.00  0.00    +0.000 A 
ATOM      8  C   UNL     1       4.861   3.527  14.270  0.00  0.00    +0.000 A 
ATOM      9  C   UNL     1       5.576   3.661  13.077  0.00  0.00    +0.000 A 
ATOM     10 CL   UNL     1       5.002   2.818  11.685  0.00  0.00    +0.000 Cl
ATOM     11  C   UNL     1       6.724   4.456  13.048  0.00  0.00    +0.000 A 
ATOM     12 CL   UNL     1       7.646   4.716  11.611  0.00  0.00    +0.000 Cl
ATOM     13  C   UNL     1       7.152   5.101  14.213  0.00  0.00    +0.000 A 
ENDBRANCH   3   6
BRANCH   4  14
ATOM     14  C   UNL     1       4.980   5.108  18.260  0.00  0.00    +0.000 A 
ATOM     15  C   UNL     1       5.122   3.876  18.918  0.00  0.00    +0.000 A 
ATOM     16  C   UNL     1       3.998   3.087  19.176  0.00  0.00    +0.000 A 
ATOM     17  C   UNL     1       2.729   3.541  18.792  0.00  0.00    +0.000 A 
ATOM     18  C   UNL     1       2.576   4.799  18.193  0.00  0.00    +0.000 A 
ATOM     19  C   UNL     1       3.702   5.593  17.946  0.00  0.00    +0.000 A 
BRANCH  17  20
ATOM     20  N   UNL     1       1.557   2.682  19.009  0.00  0.00    +0.000 N 
ATOM     21  O   UNL     1       1.524   2.007  20.047  0.00  0.00    +0.000 OA
ATOM     22  O   UNL     1       0.675   2.681  18.139  0.00  0.00    +0.000 OA
ENDBRANCH  17  20
ENDBRANCH   4  14
BRANCH   1  23
ATOM     23  O   UNL     1       8.470   8.164  18.399  0.00  0.00    +0.000 OA
BRANCH  23  24
ATOM     24  C   UNL     1       8.137   9.432  17.836  0.00  0.00    +0.000 C 
BRANCH  24  25
ATOM     25  C   UNL     1       9.074  10.500  18.398  0.00  0.00    +0.000 C 
BRANCH  25  27
ATOM     26  C   UNL     1       9.620  11.351  20.534  0.00  0.00    +0.000 C 
ATOM     27  O   UNL     1       9.373  10.186  19.759  0.00  0.00    +0.000 OA
ENDBRANCH  25  27
ENDBRANCH  24  25
ENDBRANCH  23  24
ENDBRANCH   1  23
TORSDOF 7
ENDMDL
MODEL 6
REMARK VINA RESULT:      -7.1      0.873      1.388
REMARK  Name = 
REMARK  8 active torsions:
REMARK  status: ('A' for Active; 'I' for Inactive)
REMARK    1  A    between atoms: C_1  and  O_2
REMARK    2  A    between atoms: O_2  and  C_3
REMARK    3  A    between atoms: C_3  and  C_4
REMARK    4  A    between atoms: C_4  and  O_5
REMARK    5  A    between atoms: O_5  and  C_6
REMARK    6  A    between atoms: C_8  and  C_9
REMARK    7  A    between atoms: N_17  and  C_18
REMARK    8  A    between atoms: C_21  and  N_22
REMARK                            x       y       z     vdW  Elec       q    Type
REMARK                         _______ _______ _______ _____ _____    ______ ____
ROOT
ATOM      1  C   UNL     1       7.539   7.471  17.573  0.00  0.00    +0.000 A 
ATOM      2  N   UNL     1       6.388   7.202  18.246  0.00  0.00    +0.000 NA
ATOM      3  C   UNL     1       5.851   6.211  17.557  0.00  0.00    +0.000 A 
ATOM      4  N   UNL     1       6.624   6.003  16.410  0.00  0.00    +0.000 N 
ATOM      5  N   UNL     1       7.755   6.744  16.481  0.00  0.00    +0.000 NA
ENDROOT
BRANCH   3   6
ATOM      6  C   UNL     1       4.713   5.403  18.020  0.00  0.00    +0.000 A 
ATOM      7  C   UNL     1       3.407   5.760  17.666  0.00  0.00    +0.000 A 
ATOM      8  C   UNL     1       2.316   4.990  18.089  0.00  0.00    +0.000 A 
ATOM      9  C   UNL     1       2.517   3.845  18.864  0.00  0.00    +0.000 A 
ATOM     10 CL   UNL     1       1.134   2.922  19.326  0.00  0.00    +0.000 Cl
ATOM     11  C   UNL     1       3.814   3.490  19.244  0.00  0.00    +0.000 A 
ATOM     12 CL   UNL     1       4.163   2.068  20.161  0.00  0.00    +0.000 Cl
ATOM     13  C   UNL     1       4.895   4.286  18.854  0.00  0.00    +0.000 A 
ENDBRANCH   3   6
BRANCH   4  14
ATOM     14  C   UNL     1       6.404   5.113  15.325  0.00  0.00    +0.000 A 
ATOM     15  C   UNL     1       7.252   5.122  14.206  0.00  0.00    +0.000 A 
ATOM     16  C   UNL     1       6.921   4.377  13.070  0.00  0.00    +0.000 A 
ATOM     17  C   UNL     1       5.752   3.606  13.064  0.00  0.00    +0.000 A 
ATOM     18  C   UNL     1       4.936   3.542  14.203  0.00  0.00    +0.000 A 
ATOM     19  C   UNL     1       5.274   4.280  15.342  0.00  0.00    +0.000 A 
BRANCH  17  20
ATOM     20  N   UNL     1       5.375   2.873  11.848  0.00  0.00    +0.000 N 
ATOM     21  O   UNL     1       4.370   3.256  11.234  0.00  0.00    +0.000 OA
ATOM     22  O   UNL     1       6.082   1.912  11.512  0.00  0.00    +0.000 OA
ENDBRANCH  17  20
ENDBRANCH   4  14
BRANCH   1  23
ATOM     23  O   UNL     1       8.504   8.352  17.901  0.00  0.00    +0.000 OA
BRANCH  23  24
ATOM     24  C   UNL     1       7.977   9.672  18.020  0.00  0.00    +0.000 C 
BRANCH  24  25
ATOM     25  C   UNL     1       9.118  10.655  18.274  0.00  0.00    +0.000 C 
BRANCH  25  27
ATOM     26  C   UNL     1      10.476  11.562  19.983  0.00  0.00    +0.000 C 
ATOM     27  O   UNL     1       9.418  10.666  19.671  0.00  0.00    +0.000 OA
ENDBRANCH  25  27
ENDBRANCH  24  25
ENDBRANCH  23  24
ENDBRANCH   1  23
TORSDOF 7
ENDMDL
MODEL 7
REMARK VINA RESULT:      -6.9      0.950      1.834
REMARK  Name = 
REMARK  8 active torsions:
REMARK  status: ('A' for Active; 'I' for Inactive)
REMARK    1  A    between atoms: C_1  and  O_2
REMARK    2  A    between atoms: O_2  and  C_3
REMARK    3  A    between atoms: C_3  and  C_4
REMARK    4  A    between atoms: C_4  and  O_5
REMARK    5  A    between atoms: O_5  and  C_6
REMARK    6  A    between atoms: C_8  and  C_9
REMARK    7  A    between atoms: N_17  and  C_18
REMARK    8  A    between atoms: C_21  and  N_22
REMARK                            x       y       z     vdW  Elec       q    Type
REMARK                         _______ _______ _______ _____ _____    ______ ____
ROOT
ATOM      1  C   UNL     1       7.583   7.194  17.750  0.00  0.00    +0.000 A 
ATOM      2  N   UNL     1       6.477   6.793  18.433  0.00  0.00    +0.000 NA
ATOM      3  C   UNL     1       5.987   5.820  17.685  0.00  0.00    +0.000 A 
ATOM      4  N   UNL     1       6.733   5.755  16.504  0.00  0.00    +0.000 N 
ATOM      5  N   UNL     1       7.812   6.568  16.599  0.00  0.00    +0.000 NA
ENDROOT
BRANCH   3   6
ATOM      6  C   UNL     1       4.924   4.900  18.117  0.00  0.00    +0.000 A 
ATOM      7  C   UNL     1       5.211   3.871  19.022  0.00  0.00    +0.000 A 
ATOM      8  C   UNL     1       4.205   2.997  19.451  0.00  0.00    +0.000 A 
ATOM      9  C   UNL     1       2.894   3.146  18.991  0.00  0.00    +0.000 A 
ATOM     10 CL   UNL     1       1.693   2.057  19.583  0.00  0.00    +0.000 Cl
ATOM     11  C   UNL     1       2.598   4.155  18.071  0.00  0.00    +0.000 A 
ATOM     12 CL   UNL     1       1.001   4.445  17.481  0.00  0.00    +0.000 Cl
ATOM     13  C   UNL     1       3.616   4.998  17.612  0.00  0.00    +0.000 A 
ENDBRANCH   3   6
BRANCH   4  14
ATOM     14  C   UNL     1       6.538   4.935  15.359  0.00  0.00    +0.000 A 
ATOM     15  C   UNL     1       7.296   5.137  14.195  0.00  0.00    +0.000 A 
ATOM     16  C   UNL     1       6.972   4.452  13.021  0.00  0.00    +0.000 A 
ATOM     17  C   UNL     1       5.901   3.549  13.019  0.00  0.00    +0.000 A 
ATOM     18  C   UNL     1       5.182   3.295  14.196  0.00  0.00    +0.000 A 
ATOM     19  C   UNL     1       5.516   3.974  15.373  0.00  0.00    +0.000 A 
BRANCH  17  20
ATOM     20  N   UNL     1       5.524   2.876  11.768  0.00  0.00    +0.000 N 
ATOM     21  O   UNL     1       4.424   3.160  11.273  0.00  0.00    +0.000 OA
ATOM     22  O   UNL     1       6.325   2.063  11.287  0.00  0.00    +0.000 OA
ENDBRANCH  17  20
ENDBRANCH   4  14
BRANCH   1  23
ATOM     23  O   UNL     1       8.495   8.113  18.118  0.00  0.00    +0.000 OA
BRANCH  23  24
ATOM     24  C   UNL     1       8.007   9.436  17.904  0.00  0.00    +0.000 C 
BRANCH  24  25
ATOM     25  C   UNL     1       9.082  10.447  18.298  0.00  0.00    +0.000 C 
BRANCH  25  27
ATOM     26  C   UNL     1      10.120  11.459  20.165  0.00  0.00    +0.000 C 
ATOM     27  O   UNL     1       9.116  10.556  19.722  0.00  0.00    +0.000 OA
ENDBRANCH  25  27
ENDBRANCH  24  25
ENDBRANCH  23  24
ENDBRANCH   1  23
TORSDOF 7
ENDMDL
MODEL 8
REMARK VINA RESULT:      -6.8      3.943      7.213
REMARK  Name = 
REMARK  8 active torsions:
REMARK  status: ('A' for Active; 'I' for Inactive)
REMARK    1  A    between atoms: C_1  and  O_2
REMARK    2  A    between atoms: O_2  and  C_3
REMARK    3  A    between atoms: C_3  and  C_4
REMARK    4  A    between atoms: C_4  and  O_5
REMARK    5  A    between atoms: O_5  and  C_6
REMARK    6  A    between atoms: C_8  and  C_9
REMARK    7  A    between atoms: N_17  and  C_18
REMARK    8  A    between atoms: C_21  and  N_22
REMARK                            x       y       z     vdW  Elec       q    Type
REMARK                         _______ _______ _______ _____ _____    ______ ____
ROOT
ATOM      1  C   UNL     1       5.050   6.325  16.456  0.00  0.00    +0.000 A 
ATOM      2  N   UNL     1       4.890   5.296  17.332  0.00  0.00    +0.000 NA
ATOM      3  C   UNL     1       3.871   5.682  18.080  0.00  0.00    +0.000 A 
ATOM      4  N   UNL     1       3.534   6.991  17.723  0.00  0.00    +0.000 N 
ATOM      5  N   UNL     1       4.226   7.356  16.617  0.00  0.00    +0.000 NA
ENDROOT
BRANCH   3   6
ATOM      6  C   UNL     1       3.157   4.805  19.020  0.00  0.00    +0.000 A 
ATOM      7  C   UNL     1       3.407   4.897  20.394  0.00  0.00    +0.000 A 
ATOM      8  C   UNL     1       2.723   4.078  21.301  0.00  0.00    +0.000 A 
ATOM      9  C   UNL     1       1.770   3.162  20.847  0.00  0.00    +0.000 A 
ATOM     10 CL   UNL     1       0.939   2.204  22.018  0.00  0.00    +0.000 Cl
ATOM     11  C   UNL     1       1.527   3.044  19.476  0.00  0.00    +0.000 A 
ATOM     12 CL   UNL     1       0.337   1.974  18.826  0.00  0.00    +0.000 Cl
ATOM     13  C   UNL     1       2.244   3.835  18.573  0.00  0.00    +0.000 A 
ENDBRANCH   3   6
BRANCH   4  14
ATOM     14  C   UNL     1       2.569   7.862  18.297  0.00  0.00    +0.000 A 
ATOM     15  C   UNL     1       2.102   8.981  17.591  0.00  0.00    +0.000 A 
ATOM     16  C   UNL     1       1.296   9.927  18.231  0.00  0.00    +0.000 A 
ATOM     17  C   UNL     1       0.942   9.741  19.573  0.00  0.00    +0.000 A 
ATOM     18  C   UNL     1       1.352   8.591  20.264  0.00  0.00    +0.000 A 
ATOM     19  C   UNL     1       2.149   7.640  19.618  0.00  0.00    +0.000 A 
BRANCH  17  20
ATOM     20  N   UNL     1       0.146  10.767  20.261  0.00  0.00    +0.000 N 
ATOM     21  O   UNL     1       0.052  10.689  21.494  0.00  0.00    +0.000 OA
ATOM     22  O   UNL     1      -0.386  11.645  19.567  0.00  0.00    +0.000 OA
ENDBRANCH  17  20
ENDBRANCH   4  14
BRANCH   1  23
ATOM     23  O   UNL     1       5.909   6.406  15.422  0.00  0.00    +0.000 OA
BRANCH  23  24
ATOM     24  C   UNL     1       6.805   5.296  15.410  0.00  0.00    +0.000 C 
BRANCH  24  25
ATOM     25  C   UNL     1       6.997   4.813  13.974  0.00  0.00    +0.000 C 
BRANCH  25  27
ATOM     26  C   UNL     1       5.893   3.416  12.419  0.00  0.00    +0.000 C 
ATOM     27  O   UNL     1       6.241   3.616  13.782  0.00  0.00    +0.000 OA
ENDBRANCH  25  27
ENDBRANCH  24  25
ENDBRANCH  23  24
ENDBRANCH   1  23
TORSDOF 7
ENDMDL
MODEL 9
REMARK VINA RESULT:      -6.8      7.823     10.308
REMARK  Name = 
REMARK  8 active torsions:
REMARK  status: ('A' for Active; 'I' for Inactive)
REMARK    1  A    between atoms: C_1  and  O_2
REMARK    2  A    between atoms: O_2  and  C_3
REMARK    3  A    between atoms: C_3  and  C_4
REMARK    4  A    between atoms: C_4  and  O_5
REMARK    5  A    between atoms: O_5  and  C_6
REMARK    6  A    between atoms: C_8  and  C_9
REMARK    7  A    between atoms: N_17  and  C_18
REMARK    8  A    between atoms: C_21  and  N_22
REMARK                            x       y       z     vdW  Elec       q    Type
REMARK                         _______ _______ _______ _____ _____    ______ ____
ROOT
ATOM      1  C   UNL     1      -1.888  11.381  17.789  0.00  0.00    +0.000 A 
ATOM      2  N   UNL     1      -1.231  12.421  18.371  0.00  0.00    +0.000 NA
ATOM      3  C   UNL     1      -0.069  11.897  18.719  0.00  0.00    +0.000 A 
ATOM      4  N   UNL     1      -0.112  10.523  18.462  0.00  0.00    +0.000 N 
ATOM      5  N   UNL     1      -1.239  10.220  17.775  0.00  0.00    +0.000 NA
ENDROOT
BRANCH   3   6
ATOM      6  C   UNL     1       1.091  12.681  19.169  0.00  0.00    +0.000 A 
ATOM      7  C   UNL     1       1.475  12.656  20.515  0.00  0.00    +0.000 A 
ATOM      8  C   UNL     1       2.586  13.388  20.954  0.00  0.00    +0.000 A 
ATOM      9  C   UNL     1       3.335  14.146  20.050  0.00  0.00    +0.000 A 
ATOM     10 CL   UNL     1       4.712  14.999  20.647  0.00  0.00    +0.000 Cl
ATOM     11  C   UNL     1       2.949  14.197  18.708  0.00  0.00    +0.000 A 
ATOM     12 CL   UNL     1       3.839  15.068  17.512  0.00  0.00    +0.000 Cl
ATOM     13  C   UNL     1       1.814  13.499  18.285  0.00  0.00    +0.000 A 
ENDBRANCH   3   6
BRANCH   4  14
ATOM     14  C   UNL     1       0.857   9.522  18.746  0.00  0.00    +0.000 A 
ATOM     15  C   UNL     1       1.677   9.009  17.729  0.00  0.00    +0.000 A 
ATOM     16  C   UNL     1       2.494   7.902  17.979  0.00  0.00    +0.000 A 
ATOM     17  C   UNL     1       2.504   7.324  19.255  0.00  0.00    +0.000 A 
ATOM     18  C   UNL     1       1.736   7.873  20.292  0.00  0.00    +0.000 A 
ATOM     19  C   UNL     1       0.928   8.987  20.041  0.00  0.00    +0.000 A 
BRANCH  17  20
ATOM     20  N   UNL     1       3.316   6.124  19.499  0.00  0.00    +0.000 N 
ATOM     21  O   UNL     1       4.309   5.947  18.779  0.00  0.00    +0.000 OA
ATOM     22  O   UNL     1       2.957   5.359  20.404  0.00  0.00    +0.000 OA
ENDBRANCH  17  20
ENDBRANCH   4  14
BRANCH   1  23
ATOM     23  O   UNL     1      -3.093  11.395  17.189  0.00  0.00    +0.000 OA
BRANCH  23  24
ATOM     24  C   UNL     1      -2.961  11.389  15.769  0.00  0.00    +0.000 C 
BRANCH  24  25
ATOM     25  C   UNL     1      -3.425  10.041  15.220  0.00  0.00    +0.000 C 
BRANCH  25  27
ATOM     26  C   UNL     1      -3.973   9.856  12.928  0.00  0.00    +0.000 C 
ATOM     27  O   UNL     1      -2.927   9.885  13.890  0.00  0.00    +0.000 OA
ENDBRANCH  25  27
ENDBRANCH  24  25
ENDBRANCH  23  24
ENDBRANCH   1  23
TORSDOF 7
ENDMDL
