MODEL 1
REMARK VINA RESULT:      -5.9      0.000      0.000
REMARK  Name = 
REMARK  6 active torsions:
REMARK  status: ('A' for Active; 'I' for Inactive)
REMARK    1  A    between atoms: C_1  and  C_2
REMARK    2  A    between atoms: C_2  and  C_3
REMARK    3  A    between atoms: C_3  and  C_4
REMARK    4  A    between atoms: C_4  and  N_5
REMARK    5  A    between atoms: N_5  and  C_6
REMARK    6  A    between atoms: C_6  and  C_7
REMARK                            x       y       z     vdW  Elec       q    Type
REMARK                         _______ _______ _______ _____ _____    ______ ____
ROOT
ATOM      1  C   UNL     1       4.757   3.642  17.486  0.00  0.00    +0.000 A 
ATOM      2  C   UNL     1       5.169   3.828  16.157  0.00  0.00    +0.000 A 
ATOM      3  C   UNL     1       6.306   4.591  15.873  0.00  0.00    +0.000 A 
ATOM      4 CL   UNL     1       6.823   4.809  14.211  0.00  0.00    +0.000 Cl
ATOM      5  C   UNL     1       7.036   5.176  16.913  0.00  0.00    +0.000 A 
ATOM      6  C   UNL     1       6.629   4.998  18.239  0.00  0.00    +0.000 A 
ATOM      7 CL   UNL     1       7.546   5.730  19.545  0.00  0.00    +0.000 Cl
ATOM      8  C   UNL     1       5.493   4.235  18.526  0.00  0.00    +0.000 A 
ENDROOT
BRANCH   1   9
ATOM      9  C   UNL     1       3.549   2.803  17.808  0.00  0.00    +0.000 C 
BRANCH   9  10
ATOM     10  N   UNL     1       2.390   3.339  17.091  0.00  0.00    +0.000 NA
ATOM     11  H   UNL     1       2.727   4.037  16.386  0.00  0.00    +0.000 HD
BRANCH  10  12
ATOM     12  C   UNL     1       1.450   4.002  17.999  0.00  0.00    +0.000 C 
BRANCH  12  13
ATOM     13  C   UNL     1       1.018   3.037  19.110  0.00  0.00    +0.000 C 
BRANCH  13  15
ATOM     14  C   UNL     1       1.605   2.742  21.547  0.00  0.00    +0.000 C 
ATOM     15  C   UNL     1       1.068   3.704  20.492  0.00  0.00    +0.000 C 
ENDBRANCH  13  15
ENDBRANCH  12  13
ENDBRANCH  10  12
ENDBRANCH   9  10
ENDBRANCH   1   9
TORSDOF 5
ENDMDL
MODEL 2
REMARK VINA RESULT:      -5.9      2.106      2.524
REMARK  Name = 
REMARK  6 active torsions:
REMARK  status: ('A' for Active; 'I' for Inactive)
REMARK    1  A    between atoms: C_1  and  C_2
REMARK    2  A    between atoms: C_2  and  C_3
REMARK    3  A    between atoms: C_3  and  C_4
REMARK    4  A    between atoms: C_4  and  N_5
REMARK    5  A    between atoms: N_5  and  C_6
REMARK    6  A    between atoms: C_6  and  C_7
REMARK                            x       y       z     vdW  Elec       q    Type
REMARK                         _______ _______ _______ _____ _____    ______ ____
ROOT
ATOM      1  C   UNL     1       3.508   4.064  17.535  0.00  0.00    +0.000 A 
ATOM      2  C   UNL     1       2.957   5.351  17.646  0.00  0.00    +0.000 A 
ATOM      3  C   UNL     1       3.791   6.474  17.669  0.00  0.00    +0.000 A 
ATOM      4 CL   UNL     1       3.096   8.080  17.795  0.00  0.00    +0.000 Cl
ATOM      5  C   UNL     1       5.178   6.319  17.586  0.00  0.00    +0.000 A 
ATOM      6  C   UNL     1       5.735   5.040  17.479  0.00  0.00    +0.000 A 
ATOM      7 CL   UNL     1       7.475   4.846  17.373  0.00  0.00    +0.000 Cl
ATOM      8  C   UNL     1       4.903   3.916  17.455  0.00  0.00    +0.000 A 
ENDROOT
BRANCH   1   9
ATOM      9  C   UNL     1       2.622   2.849  17.483  0.00  0.00    +0.000 C 
BRANCH   9  10
ATOM     10  N   UNL     1       1.259   3.235  17.853  0.00  0.00    +0.000 NA
ATOM     11  H   UNL     1       1.282   4.204  18.252  0.00  0.00    +0.000 HD
BRANCH  10  12
ATOM     12  C   UNL     1       0.691   2.327  18.854  0.00  0.00    +0.000 C 
BRANCH  12  13
ATOM     13  C   UNL     1       1.188   2.708  20.255  0.00  0.00    +0.000 C 
BRANCH  13  15
ATOM     14  C   UNL     1       2.277   4.851  21.025  0.00  0.00    +0.000 C 
ATOM     15  C   UNL     1       0.984   4.203  20.541  0.00  0.00    +0.000 C 
ENDBRANCH  13  15
ENDBRANCH  12  13
ENDBRANCH  10  12
ENDBRANCH   9  10
ENDBRANCH   1   9
TORSDOF 5
ENDMDL
MODEL 3
REMARK VINA RESULT:      -5.8      1.841      2.054
REMARK  Name = 
REMARK  6 active torsions:
REMARK  status: ('A' for Active; 'I' for Inactive)
REMARK    1  A    between atoms: C_1  and  C_2
REMARK    2  A    between atoms: C_2  and  C_3
REMARK    3  A    between atoms: C_3  and  C_4
REMARK    4  A    between atoms: C_4  and  N_5
REMARK    5  A    between atoms: N_5  and  C_6
REMARK    6  A    between atoms: C_6  and  C_7
REMARK                            x       y       z     vdW  Elec       q    Type
REMARK                         _______ _______ _______ _____ _____    ______ ____
ROOT
ATOM      1  C   UNL     1       4.075   3.788  17.275  0.00  0.00    +0.000 A 
ATOM      2  C   UNL     1       5.149   3.787  16.369  0.00  0.00    +0.000 A 
ATOM      3  C   UNL     1       5.665   4.995  15.889  0.00  0.00    +0.000 A 
ATOM      4 CL   UNL     1       7.015   4.987  14.767  0.00  0.00    +0.000 Cl
ATOM      5  C   UNL     1       5.111   6.209  16.305  0.00  0.00    +0.000 A 
ATOM      6  C   UNL     1       4.040   6.219  17.203  0.00  0.00    +0.000 A 
ATOM      7 CL   UNL     1       3.346   7.743  17.728  0.00  0.00    +0.000 Cl
ATOM      8  C   UNL     1       3.522   5.012  17.686  0.00  0.00    +0.000 A 
ENDROOT
BRANCH   1   9
ATOM      9  C   UNL     1       3.526   2.497  17.819  0.00  0.00    +0.000 C 
BRANCH   9  10
ATOM     10  N   UNL     1       2.067   2.504  17.686  0.00  0.00    +0.000 NA
ATOM     11  H   UNL     1       1.756   3.482  17.475  0.00  0.00    +0.000 HD
BRANCH  10  12
ATOM     12  C   UNL     1       1.409   2.057  18.917  0.00  0.00    +0.000 C 
BRANCH  12  13
ATOM     13  C   UNL     1       0.757   3.247  19.630  0.00  0.00    +0.000 C 
BRANCH  13  15
ATOM     14  C   UNL     1       1.916   5.127  20.853  0.00  0.00    +0.000 C 
ATOM     15  C   UNL     1       1.537   3.650  20.891  0.00  0.00    +0.000 C 
ENDBRANCH  13  15
ENDBRANCH  12  13
ENDBRANCH  10  12
ENDBRANCH   9  10
ENDBRANCH   1   9
TORSDOF 5
ENDMDL
MODEL 4
REMARK VINA RESULT:      -5.8      2.286      2.514
REMARK  Name = 
REMARK  6 active torsions:
REMARK  status: ('A' for Active; 'I' for Inactive)
REMARK    1  A    between atoms: C_1  and  C_2
REMARK    2  A    between atoms: C_2  and  C_3
REMARK    3  A    between atoms: C_3  and  C_4
REMARK    4  A    between atoms: C_4  and  N_5
REMARK    5  A    between atoms: N_5  and  C_6
REMARK    6  A    between atoms: C_6  and  C_7
REMARK                            x       y       z     vdW  Elec       q    Type
REMARK                         _______ _______ _______ _____ _____    ______ ____
ROOT
ATOM      1  C   UNL     1       3.858   4.248  17.593  0.00  0.00    +0.000 A 
ATOM      2  C   UNL     1       5.202   4.539  17.311  0.00  0.00    +0.000 A 
ATOM      3  C   UNL     1       5.636   5.867  17.249  0.00  0.00    +0.000 A 
ATOM      4 CL   UNL     1       7.320   6.225  16.908  0.00  0.00    +0.000 Cl
ATOM      5  C   UNL     1       4.732   6.912  17.464  0.00  0.00    +0.000 A 
ATOM      6  C   UNL     1       3.391   6.630  17.742  0.00  0.00    +0.000 A 
ATOM      7 CL   UNL     1       2.255   7.940  18.015  0.00  0.00    +0.000 Cl
ATOM      8  C   UNL     1       2.954   5.302  17.806  0.00  0.00    +0.000 A 
ENDROOT
BRANCH   1   9
ATOM      9  C   UNL     1       3.382   2.823  17.688  0.00  0.00    +0.000 C 
BRANCH   9  10
ATOM     10  N   UNL     1       1.918   2.809  17.714  0.00  0.00    +0.000 NA
ATOM     11  H   UNL     1       1.574   3.799  17.703  0.00  0.00    +0.000 HD
BRANCH  10  12
ATOM     12  C   UNL     1       1.404   2.145  18.915  0.00  0.00    +0.000 C 
BRANCH  12  13
ATOM     13  C   UNL     1       0.609   3.140  19.770  0.00  0.00    +0.000 C 
BRANCH  13  15
ATOM     14  C   UNL     1       2.308   2.796  21.605  0.00  0.00    +0.000 C 
ATOM     15  C   UNL     1       1.497   3.823  20.819  0.00  0.00    +0.000 C 
ENDBRANCH  13  15
ENDBRANCH  12  13
ENDBRANCH  10  12
ENDBRANCH   9  10
ENDBRANCH   1   9
TORSDOF 5
ENDMDL
MODEL 5
REMARK VINA RESULT:      -5.7      2.137      2.975
REMARK  Name = 
REMARK  6 active torsions:
REMARK  status: ('A' for Active; 'I' for Inactive)
REMARK    1  A    between atoms: C_1  and  C_2
REMARK    2  A    between atoms: C_2  and  C_3
REMARK    3  A    between atoms: C_3  and  C_4
REMARK    4  A    between atoms: C_4  and  N_5
REMARK    5  A    between atoms: N_5  and  C_6
REMARK    6  A    between atoms: C_6  and  C_7
REMARK                            x       y       z     vdW  Elec       q    Type
REMARK                         _______ _______ _______ _____ _____    ______ ____
ROOT
ATOM      1  C   UNL     1       3.828   3.895  17.362  0.00  0.00    +0.000 A 
ATOM      2  C   UNL     1       3.289   5.137  17.734  0.00  0.00    +0.000 A 
ATOM      3  C   UNL     1       3.883   6.323  17.292  0.00  0.00    +0.000 A 
ATOM      4 CL   UNL     1       3.197   7.872  17.750  0.00  0.00    +0.000 Cl
ATOM      5  C   UNL     1       5.021   6.277  16.480  0.00  0.00    +0.000 A 
ATOM      6  C   UNL     1       5.566   5.044  16.108  0.00  0.00    +0.000 A 
ATOM      7 CL   UNL     1       6.992   4.986  15.087  0.00  0.00    +0.000 Cl
ATOM      8  C   UNL     1       4.973   3.856  16.548  0.00  0.00    +0.000 A 
ENDROOT
BRANCH   1   9
ATOM      9  C   UNL     1       3.184   2.610  17.810  0.00  0.00    +0.000 C 
BRANCH   9  10
ATOM     10  N   UNL     1       4.060   1.949  18.779  0.00  0.00    +0.000 NA
ATOM     11  H   UNL     1       3.669   1.001  18.992  0.00  0.00    +0.000 HD
BRANCH  10  12
ATOM     12  C   UNL     1       4.156   2.710  20.029  0.00  0.00    +0.000 C 
BRANCH  12  13
ATOM     13  C   UNL     1       2.884   2.518  20.863  0.00  0.00    +0.000 C 
BRANCH  13  15
ATOM     14  C   UNL     1       0.963   4.091  20.405  0.00  0.00    +0.000 C 
ATOM     15  C   UNL     1       2.231   3.862  21.220  0.00  0.00    +0.000 C 
ENDBRANCH  13  15
ENDBRANCH  12  13
ENDBRANCH  10  12
ENDBRANCH   9  10
ENDBRANCH   1   9
TORSDOF 5
ENDMDL
MODEL 6
REMARK VINA RESULT:      -5.7      1.606      1.989
REMARK  Name = 
REMARK  6 active torsions:
REMARK  status: ('A' for Active; 'I' for Inactive)
REMARK    1  A    between atoms: C_1  and  C_2
REMARK    2  A    between atoms: C_2  and  C_3
REMARK    3  A    between atoms: C_3  and  C_4
REMARK    4  A    between atoms: C_4  and  N_5
REMARK    5  A    between atoms: N_5  and  C_6
REMARK    6  A    between atoms: C_6  and  C_7
REMARK                            x       y       z     vdW  Elec       q    Type
REMARK                         _______ _______ _______ _____ _____    ______ ____
ROOT
ATOM      1  C   UNL     1       4.353   5.342  17.999  0.00  0.00    +0.000 A 
ATOM      2  C   UNL     1       4.572   4.771  16.734  0.00  0.00    +0.000 A 
ATOM      3  C   UNL     1       5.871   4.463  16.318  0.00  0.00    +0.000 A 
ATOM      4 CL   UNL     1       6.137   3.739  14.742  0.00  0.00    +0.000 Cl
ATOM      5  C   UNL     1       6.958   4.726  17.157  0.00  0.00    +0.000 A 
ATOM      6  C   UNL     1       6.748   5.298  18.416  0.00  0.00    +0.000 A 
ATOM      7 CL   UNL     1       8.111   5.626  19.471  0.00  0.00    +0.000 Cl
ATOM      8  C   UNL     1       5.449   5.606  18.836  0.00  0.00    +0.000 A 
ENDROOT
BRANCH   1   9
ATOM      9  C   UNL     1       2.958   5.655  18.471  0.00  0.00    +0.000 C 
BRANCH   9  10
ATOM     10  N   UNL     1       2.997   5.972  19.900  0.00  0.00    +0.000 NA
ATOM     11  H   UNL     1       3.890   5.598  20.302  0.00  0.00    +0.000 HD
BRANCH  10  12
ATOM     12  C   UNL     1       1.869   5.372  20.619  0.00  0.00    +0.000 C 
BRANCH  12  13
ATOM     13  C   UNL     1       2.275   4.010  21.195  0.00  0.00    +0.000 C 
BRANCH  13  15
ATOM     14  C   UNL     1       0.871   2.788  19.489  0.00  0.00    +0.000 C 
ATOM     15  C   UNL     1       1.183   2.953  20.973  0.00  0.00    +0.000 C 
ENDBRANCH  13  15
ENDBRANCH  12  13
ENDBRANCH  10  12
ENDBRANCH   9  10
ENDBRANCH   1   9
TORSDOF 5
ENDMDL
MODEL 7
REMARK VINA RESULT:      -5.7      1.620      1.861
REMARK  Name = 
REMARK  6 active torsions:
REMARK  status: ('A' for Active; 'I' for Inactive)
REMARK    1  A    between atoms: C_1  and  C_2
REMARK    2  A    between atoms: C_2  and  C_3
REMARK    3  A    between atoms: C_3  and  C_4
REMARK    4  A    between atoms: C_4  and  N_5
REMARK    5  A    between atoms: N_5  and  C_6
REMARK    6  A    between atoms: C_6  and  C_7
REMARK                            x       y       z     vdW  Elec       q    Type
REMARK                         _______ _______ _______ _____ _____    ______ ____
ROOT
ATOM      1  C   UNL     1       5.142   4.802  18.226  0.00  0.00    +0.000 A 
ATOM      2  C   UNL     1       5.195   4.138  16.990  0.00  0.00    +0.000 A 
ATOM      3  C   UNL     1       6.057   4.589  15.985  0.00  0.00    +0.000 A 
ATOM      4 CL   UNL     1       6.127   3.747  14.447  0.00  0.00    +0.000 Cl
ATOM      5  C   UNL     1       6.868   5.706  16.206  0.00  0.00    +0.000 A 
ATOM      6  C   UNL     1       6.819   6.376  17.433  0.00  0.00    +0.000 A 
ATOM      7 CL   UNL     1       7.838   7.776  17.712  0.00  0.00    +0.000 Cl
ATOM      8  C   UNL     1       5.958   5.926  18.440  0.00  0.00    +0.000 A 
ENDROOT
BRANCH   1   9
ATOM      9  C   UNL     1       4.238   4.314  19.325  0.00  0.00    +0.000 C 
BRANCH   9  10
ATOM     10  N   UNL     1       3.595   5.465  19.963  0.00  0.00    +0.000 NA
ATOM     11  H   UNL     1       4.191   5.779  20.765  0.00  0.00    +0.000 HD
BRANCH  10  12
ATOM     12  C   UNL     1       2.261   5.128  20.470  0.00  0.00    +0.000 C 
BRANCH  12  13
ATOM     13  C   UNL     1       1.518   4.248  19.458  0.00  0.00    +0.000 C 
BRANCH  13  15
ATOM     14  C   UNL     1       1.517   2.745  21.486  0.00  0.00    +0.000 C 
ATOM     15  C   UNL     1       0.873   3.029  20.133  0.00  0.00    +0.000 C 
ENDBRANCH  13  15
ENDBRANCH  12  13
ENDBRANCH  10  12
ENDBRANCH   9  10
ENDBRANCH   1   9
TORSDOF 5
ENDMDL
MODEL 8
REMARK VINA RESULT:      -5.7      3.304      5.720
REMARK  Name = 
REMARK  6 active torsions:
REMARK  status: ('A' for Active; 'I' for Inactive)
REMARK    1  A    between atoms: C_1  and  C_2
REMARK    2  A    between atoms: C_2  and  C_3
REMARK    3  A    between atoms: C_3  and  C_4
REMARK    4  A    between atoms: C_4  and  N_5
REMARK    5  A    between atoms: N_5  and  C_6
REMARK    6  A    between atoms: C_6  and  C_7
REMARK                            x       y       z     vdW  Elec       q    Type
REMARK                         _______ _______ _______ _____ _____    ______ ____
ROOT
ATOM      1  C   UNL     1       5.843   4.585  15.844  0.00  0.00    +0.000 A 
ATOM      2  C   UNL     1       4.740   3.951  16.437  0.00  0.00    +0.000 A 
ATOM      3  C   UNL     1       4.642   3.864  17.830  0.00  0.00    +0.000 A 
ATOM      4 CL   UNL     1       3.255   3.082  18.565  0.00  0.00    +0.000 Cl
ATOM      5  C   UNL     1       5.647   4.406  18.638  0.00  0.00    +0.000 A 
ATOM      6  C   UNL     1       6.751   5.036  18.055  0.00  0.00    +0.000 A 
ATOM      7 CL   UNL     1       8.010   5.717  19.069  0.00  0.00    +0.000 Cl
ATOM      8  C   UNL     1       6.850   5.124  16.662  0.00  0.00    +0.000 A 
ENDROOT
BRANCH   1   9
ATOM      9  C   UNL     1       5.949   4.708  14.348  0.00  0.00    +0.000 C 
BRANCH   9  10
ATOM     10  N   UNL     1       6.386   3.425  13.793  0.00  0.00    +0.000 NA
ATOM     11  H   UNL     1       7.333   3.199  14.179  0.00  0.00    +0.000 HD
BRANCH  10  12
ATOM     12  C   UNL     1       6.473   3.470  12.330  0.00  0.00    +0.000 C 
BRANCH  12  13
ATOM     13  C   UNL     1       5.325   2.664  11.708  0.00  0.00    +0.000 C 
BRANCH  13  15
ATOM     14  C   UNL     1       3.395   3.332  10.225  0.00  0.00    +0.000 C 
ATOM     15  C   UNL     1       4.042   3.500  11.596  0.00  0.00    +0.000 C 
ENDBRANCH  13  15
ENDBRANCH  12  13
ENDBRANCH  10  12
ENDBRANCH   9  10
ENDBRANCH   1   9
TORSDOF 5
ENDMDL
MODEL 9
REMARK VINA RESULT:      -5.7      1.255      2.599
REMARK  Name = 
REMARK  6 active torsions:
REMARK  status: ('A' for Active; 'I' for Inactive)
REMARK    1  A    between atoms: C_1  and  C_2
REMARK    2  A    between atoms: C_2  and  C_3
REMARK    3  A    between atoms: C_3  and  C_4
REMARK    4  A    between atoms: C_4  and  N_5
REMARK    5  A    between atoms: N_5  and  C_6
REMARK    6  A    between atoms: C_6  and  C_7
REMARK                            x       y       z     vdW  Elec       q    Type
REMARK                         _______ _______ _______ _____ _____    ______ ____
ROOT
ATOM      1  C   UNL     1       4.776   4.678  17.480  0.00  0.00    +0.000 A 
ATOM      2  C   UNL     1       5.634   5.717  17.877  0.00  0.00    +0.000 A 
ATOM      3  C   UNL     1       6.647   6.159  17.019  0.00  0.00    +0.000 A 
ATOM      4 CL   UNL     1       7.708   7.465  17.515  0.00  0.00    +0.000 Cl
ATOM      5  C   UNL     1       6.812   5.565  15.764  0.00  0.00    +0.000 A 
ATOM      6  C   UNL     1       5.964   4.527  15.363  0.00  0.00    +0.000 A 
ATOM      7 CL   UNL     1       6.169   3.784  13.787  0.00  0.00    +0.000 Cl
ATOM      8  C   UNL     1       4.949   4.085  16.219  0.00  0.00    +0.000 A 
ENDROOT
BRANCH   1   9
ATOM      9  C   UNL     1       3.666   4.210  18.382  0.00  0.00    +0.000 C 
BRANCH   9  10
ATOM     10  N   UNL     1       3.136   2.944  17.870  0.00  0.00    +0.000 NA
ATOM     11  H   UNL     1       2.460   3.153  17.097  0.00  0.00    +0.000 HD
BRANCH  10  12
ATOM     12  C   UNL     1       2.438   2.188  18.914  0.00  0.00    +0.000 C 
BRANCH  12  13
ATOM     13  C   UNL     1       1.044   2.781  19.154  0.00  0.00    +0.000 C 
BRANCH  13  15
ATOM     14  C   UNL     1       2.009   2.769  21.487  0.00  0.00    +0.000 C 
ATOM     15  C   UNL     1       0.884   3.285  20.596  0.00  0.00    +0.000 C 
ENDBRANCH  13  15
ENDBRANCH  12  13
ENDBRANCH  10  12
ENDBRANCH   9  10
ENDBRANCH   1   9
TORSDOF 5
ENDMDL
