MODEL 1
REMARK VINA RESULT:      -7.0      0.000      0.000
REMARK  Name = 
REMARK  3 active torsions:
REMARK  status: ('A' for Active; 'I' for Inactive)
REMARK    1  A    between atoms: C_1  and  C_2
REMARK    2  A    between atoms: C_14  and  C_15
REMARK    3  A    between atoms: C_18  and  N_19
REMARK                            x       y       z     vdW  Elec       q    Type
REMARK                         _______ _______ _______ _____ _____    ______ ____
ROOT
ATOM      1  C   UNL     1       5.616   7.388  17.988  0.00  0.00    +0.000 C 
ATOM      2  C   UNL     1       5.090   6.123  17.402  0.00  0.00    +0.000 A 
ATOM      3  C   UNL     1       3.987   5.376  17.803  0.00  0.00    +0.000 A 
ATOM      4  N   UNL     1       3.940   4.260  16.988  0.00  0.00    +0.000 N 
ATOM      5  C   UNL     1       4.917   4.310  16.023  0.00  0.00    +0.000 A 
ATOM      6  C   UNL     1       5.219   3.439  14.963  0.00  0.00    +0.000 A 
ATOM      7  C   UNL     1       6.290   3.767  14.127  0.00  0.00    +0.000 A 
ATOM      8  C   UNL     1       7.039   4.922  14.345  0.00  0.00    +0.000 A 
ATOM      9  C   UNL     1       6.735   5.775  15.409  0.00  0.00    +0.000 A 
ATOM     10  C   UNL     1       5.654   5.467  16.258  0.00  0.00    +0.000 A 
ATOM     11  C   UNL     1       2.949   3.211  17.140  0.00  0.00    +0.000 C 
ATOM     12  C   UNL     1       2.287   3.270  18.514  0.00  0.00    +0.000 C 
ATOM     13  N   UNL     1       1.850   4.629  18.815  0.00  0.00    +0.000 NA
ATOM     14  C   UNL     1       2.993   5.559  18.922  0.00  0.00    +0.000 C 
ATOM     15  H   UNL     1       1.335   4.656  19.691  0.00  0.00    +0.000 HD
ENDROOT
BRANCH  14  16
ATOM     16  C   UNL     1       2.432   6.974  19.008  0.00  0.00    +0.000 A 
ATOM     17  C   UNL     1       2.001   7.493  20.241  0.00  0.00    +0.000 A 
ATOM     18  C   UNL     1       1.374   8.738  20.308  0.00  0.00    +0.000 A 
ATOM     19  C   UNL     1       1.168   9.469  19.131  0.00  0.00    +0.000 A 
ATOM     20  C   UNL     1       1.645   8.998  17.903  0.00  0.00    +0.000 A 
ATOM     21  C   UNL     1       2.282   7.758  17.849  0.00  0.00    +0.000 A 
BRANCH  19  22
ATOM     22  N   UNL     1       0.397  10.717  19.179  0.00  0.00    +0.000 N 
ATOM     23  O   UNL     1       0.899  11.725  18.661  0.00  0.00    +0.000 OA
ATOM     24  O   UNL     1      -0.702  10.695  19.751  0.00  0.00    +0.000 OA
ENDBRANCH  19  22
ENDBRANCH  14  16
TORSDOF 2
ENDMDL
MODEL 2
REMARK VINA RESULT:      -6.7      3.691      5.832
REMARK  Name = 
REMARK  3 active torsions:
REMARK  status: ('A' for Active; 'I' for Inactive)
REMARK    1  A    between atoms: C_1  and  C_2
REMARK    2  A    between atoms: C_14  and  C_15
REMARK    3  A    between atoms: C_18  and  N_19
REMARK                            x       y       z     vdW  Elec       q    Type
REMARK                         _______ _______ _______ _____ _____    ______ ____
ROOT
ATOM      1  C   UNL     1       3.815   7.721  17.900  0.00  0.00    +0.000 C 
ATOM      2  C   UNL     1       4.092   6.303  17.537  0.00  0.00    +0.000 A 
ATOM      3  C   UNL     1       5.188   5.781  16.856  0.00  0.00    +0.000 A 
ATOM      4  N   UNL     1       4.962   4.425  16.712  0.00  0.00    +0.000 N 
ATOM      5  C   UNL     1       3.808   4.044  17.352  0.00  0.00    +0.000 A 
ATOM      6  C   UNL     1       3.212   2.783  17.515  0.00  0.00    +0.000 A 
ATOM      7  C   UNL     1       2.017   2.709  18.238  0.00  0.00    +0.000 A 
ATOM      8  C   UNL     1       1.434   3.856  18.775  0.00  0.00    +0.000 A 
ATOM      9  C   UNL     1       2.033   5.106  18.597  0.00  0.00    +0.000 A 
ATOM     10  C   UNL     1       3.242   5.201  17.878  0.00  0.00    +0.000 A 
ATOM     11  C   UNL     1       5.870   3.544  15.999  0.00  0.00    +0.000 C 
ATOM     12  C   UNL     1       6.815   4.334  15.098  0.00  0.00    +0.000 C 
ATOM     13  N   UNL     1       7.421   5.439  15.834  0.00  0.00    +0.000 NA
ATOM     14  C   UNL     1       6.412   6.430  16.260  0.00  0.00    +0.000 C 
ATOM     15  H   UNL     1       8.113   5.915  15.262  0.00  0.00    +0.000 HD
ENDROOT
BRANCH  14  16
ATOM     16  C   UNL     1       7.097   7.412  17.204  0.00  0.00    +0.000 A 
ATOM     17  C   UNL     1       6.990   8.797  16.987  0.00  0.00    +0.000 A 
ATOM     18  C   UNL     1       7.714   9.697  17.772  0.00  0.00    +0.000 A 
ATOM     19  C   UNL     1       8.559   9.209  18.777  0.00  0.00    +0.000 A 
ATOM     20  C   UNL     1       8.631   7.839  19.048  0.00  0.00    +0.000 A 
ATOM     21  C   UNL     1       7.894   6.948  18.268  0.00  0.00    +0.000 A 
BRANCH  19  22
ATOM     22  N   UNL     1       9.417  10.142  19.517  0.00  0.00    +0.000 N 
ATOM     23  O   UNL     1       9.168  10.324  20.718  0.00  0.00    +0.000 OA
ATOM     24  O   UNL     1      10.326  10.708  18.894  0.00  0.00    +0.000 OA
ENDBRANCH  19  22
ENDBRANCH  14  16
TORSDOF 2
ENDMDL
MODEL 3
REMARK VINA RESULT:      -6.7      4.101      6.991
REMARK  Name = 
REMARK  3 active torsions:
REMARK  status: ('A' for Active; 'I' for Inactive)
REMARK    1  A    between atoms: C_1  and  C_2
REMARK    2  A    between atoms: C_14  and  C_15
REMARK    3  A    between atoms: C_18  and  N_19
REMARK                            x       y       z     vdW  Elec       q    Type
REMARK                         _______ _______ _______ _____ _____    ______ ____
ROOT
ATOM      1  C   UNL     1       5.842   3.460  18.788  0.00  0.00    +0.000 C 
ATOM      2  C   UNL     1       4.567   4.203  18.993  0.00  0.00    +0.000 A 
ATOM      3  C   UNL     1       4.151   5.390  18.398  0.00  0.00    +0.000 A 
ATOM      4  N   UNL     1       2.926   5.709  18.952  0.00  0.00    +0.000 N 
ATOM      5  C   UNL     1       2.500   4.726  19.811  0.00  0.00    +0.000 A 
ATOM      6  C   UNL     1       1.315   4.594  20.554  0.00  0.00    +0.000 A 
ATOM      7  C   UNL     1       1.162   3.454  21.350  0.00  0.00    +0.000 A 
ATOM      8  C   UNL     1       2.160   2.484  21.409  0.00  0.00    +0.000 A 
ATOM      9  C   UNL     1       3.338   2.633  20.673  0.00  0.00    +0.000 A 
ATOM     10  C   UNL     1       3.509   3.770  19.857  0.00  0.00    +0.000 A 
ATOM     11  C   UNL     1       2.196   6.919  18.615  0.00  0.00    +0.000 C 
ATOM     12  C   UNL     1       3.109   7.950  17.955  0.00  0.00    +0.000 C 
ATOM     13  N   UNL     1       3.885   7.335  16.883  0.00  0.00    +0.000 NA
ATOM     14  C   UNL     1       4.811   6.308  17.400  0.00  0.00    +0.000 C 
ATOM     15  H   UNL     1       4.430   8.036  16.388  0.00  0.00    +0.000 HD
ENDROOT
BRANCH  14  16
ATOM     16  C   UNL     1       5.403   5.573  16.201  0.00  0.00    +0.000 A 
ATOM     17  C   UNL     1       6.728   5.821  15.801  0.00  0.00    +0.000 A 
ATOM     18  C   UNL     1       7.236   5.247  14.634  0.00  0.00    +0.000 A 
ATOM     19  C   UNL     1       6.411   4.425  13.855  0.00  0.00    +0.000 A 
ATOM     20  C   UNL     1       5.111   4.117  14.270  0.00  0.00    +0.000 A 
ATOM     21  C   UNL     1       4.616   4.685  15.445  0.00  0.00    +0.000 A 
BRANCH  19  22
ATOM     22  N   UNL     1       6.899   3.924  12.565  0.00  0.00    +0.000 N 
ATOM     23  O   UNL     1       7.682   4.643  11.927  0.00  0.00    +0.000 OA
ATOM     24  O   UNL     1       6.484   2.823  12.178  0.00  0.00    +0.000 OA
ENDBRANCH  19  22
ENDBRANCH  14  16
TORSDOF 2
ENDMDL
MODEL 4
REMARK VINA RESULT:      -6.7      0.311      1.059
REMARK  Name = 
REMARK  3 active torsions:
REMARK  status: ('A' for Active; 'I' for Inactive)
REMARK    1  A    between atoms: C_1  and  C_2
REMARK    2  A    between atoms: C_14  and  C_15
REMARK    3  A    between atoms: C_18  and  N_19
REMARK                            x       y       z     vdW  Elec       q    Type
REMARK                         _______ _______ _______ _____ _____    ______ ____
ROOT
ATOM      1  C   UNL     1       5.454   7.460  17.941  0.00  0.00    +0.000 C 
ATOM      2  C   UNL     1       4.999   6.147  17.405  0.00  0.00    +0.000 A 
ATOM      3  C   UNL     1       3.942   5.353  17.840  0.00  0.00    +0.000 A 
ATOM      4  N   UNL     1       3.955   4.208  17.067  0.00  0.00    +0.000 N 
ATOM      5  C   UNL     1       4.923   4.278  16.095  0.00  0.00    +0.000 A 
ATOM      6  C   UNL     1       5.269   3.386  15.065  0.00  0.00    +0.000 A 
ATOM      7  C   UNL     1       6.316   3.744  14.211  0.00  0.00    +0.000 A 
ATOM      8  C   UNL     1       6.998   4.947  14.381  0.00  0.00    +0.000 A 
ATOM      9  C   UNL     1       6.651   5.820  15.415  0.00  0.00    +0.000 A 
ATOM     10  C   UNL     1       5.593   5.482  16.283  0.00  0.00    +0.000 A 
ATOM     11  C   UNL     1       3.026   3.109  17.264  0.00  0.00    +0.000 C 
ATOM     12  C   UNL     1       2.368   3.182  18.640  0.00  0.00    +0.000 C 
ATOM     13  N   UNL     1       1.856   4.524  18.894  0.00  0.00    +0.000 NA
ATOM     14  C   UNL     1       2.944   5.520  18.959  0.00  0.00    +0.000 C 
ATOM     15  H   UNL     1       1.344   4.553  19.772  0.00  0.00    +0.000 HD
ENDROOT
BRANCH  14  16
ATOM     16  C   UNL     1       2.304   6.904  18.997  0.00  0.00    +0.000 A 
ATOM     17  C   UNL     1       2.150   7.648  17.814  0.00  0.00    +0.000 A 
ATOM     18  C   UNL     1       1.680   8.962  17.857  0.00  0.00    +0.000 A 
ATOM     19  C   UNL     1       1.369   9.541  19.094  0.00  0.00    +0.000 A 
ATOM     20  C   UNL     1       1.457   8.797  20.275  0.00  0.00    +0.000 A 
ATOM     21  C   UNL     1       1.915   7.480  20.220  0.00  0.00    +0.000 A 
BRANCH  19  22
ATOM     22  N   UNL     1       0.998  10.960  19.155  0.00  0.00    +0.000 N 
ATOM     23  O   UNL     1       1.750  11.776  18.603  0.00  0.00    +0.000 OA
ATOM     24  O   UNL     1      -0.033  11.261  19.772  0.00  0.00    +0.000 OA
ENDBRANCH  19  22
ENDBRANCH  14  16
TORSDOF 2
ENDMDL
MODEL 5
REMARK VINA RESULT:      -6.5      3.972      6.771
REMARK  Name = 
REMARK  3 active torsions:
REMARK  status: ('A' for Active; 'I' for Inactive)
REMARK    1  A    between atoms: C_1  and  C_2
REMARK    2  A    between atoms: C_14  and  C_15
REMARK    3  A    between atoms: C_18  and  N_19
REMARK                            x       y       z     vdW  Elec       q    Type
REMARK                         _______ _______ _______ _____ _____    ______ ____
ROOT
ATOM      1  C   UNL     1       5.860   3.902  19.278  0.00  0.00    +0.000 C 
ATOM      2  C   UNL     1       4.471   4.433  19.365  0.00  0.00    +0.000 A 
ATOM      3  C   UNL     1       3.946   5.582  18.783  0.00  0.00    +0.000 A 
ATOM      4  N   UNL     1       2.631   5.678  19.200  0.00  0.00    +0.000 N 
ATOM      5  C   UNL     1       2.269   4.587  19.952  0.00  0.00    +0.000 A 
ATOM      6  C   UNL     1       1.043   4.232  20.539  0.00  0.00    +0.000 A 
ATOM      7  C   UNL     1       0.981   3.031  21.253  0.00  0.00    +0.000 A 
ATOM      8  C   UNL     1       2.104   2.217  21.384  0.00  0.00    +0.000 A 
ATOM      9  C   UNL     1       3.320   2.588  20.804  0.00  0.00    +0.000 A 
ATOM     10  C   UNL     1       3.402   3.790  20.072  0.00  0.00    +0.000 A 
ATOM     11  C   UNL     1       1.766   6.787  18.838  0.00  0.00    +0.000 C 
ATOM     12  C   UNL     1       2.576   7.983  18.346  0.00  0.00    +0.000 C 
ATOM     13  N   UNL     1       3.553   7.564  17.346  0.00  0.00    +0.000 NA
ATOM     14  C   UNL     1       4.563   6.653  17.919  0.00  0.00    +0.000 C 
ATOM     15  H   UNL     1       4.035   8.370  16.955  0.00  0.00    +0.000 HD
ENDROOT
BRANCH  14  16
ATOM     16  C   UNL     1       5.392   6.096  16.766  0.00  0.00    +0.000 A 
ATOM     17  C   UNL     1       6.762   6.397  16.667  0.00  0.00    +0.000 A 
ATOM     18  C   UNL     1       7.498   5.995  15.550  0.00  0.00    +0.000 A 
ATOM     19  C   UNL     1       6.858   5.294  14.520  0.00  0.00    +0.000 A 
ATOM     20  C   UNL     1       5.512   4.932  14.629  0.00  0.00    +0.000 A 
ATOM     21  C   UNL     1       4.787   5.327  15.755  0.00  0.00    +0.000 A 
BRANCH  19  22
ATOM     22  N   UNL     1       7.596   4.982  13.291  0.00  0.00    +0.000 N 
ATOM     23  O   UNL     1       7.145   4.090  12.558  0.00  0.00    +0.000 OA
ATOM     24  O   UNL     1       8.638   5.614  13.066  0.00  0.00    +0.000 OA
ENDBRANCH  19  22
ENDBRANCH  14  16
TORSDOF 2
ENDMDL
MODEL 6
REMARK VINA RESULT:      -6.5      6.886      9.989
REMARK  Name = 
REMARK  3 active torsions:
REMARK  status: ('A' for Active; 'I' for Inactive)
REMARK    1  A    between atoms: C_1  and  C_2
REMARK    2  A    between atoms: C_14  and  C_15
REMARK    3  A    between atoms: C_18  and  N_19
REMARK                            x       y       z     vdW  Elec       q    Type
REMARK                         _______ _______ _______ _____ _____    ______ ____
ROOT
ATOM      1  C   UNL     1      -2.822  13.279  20.777  0.00  0.00    +0.000 C 
ATOM      2  C   UNL     1      -3.555  12.628  19.656  0.00  0.00    +0.000 A 
ATOM      3  C   UNL     1      -3.036  11.912  18.581  0.00  0.00    +0.000 A 
ATOM      4  N   UNL     1      -4.105  11.558  17.780  0.00  0.00    +0.000 N 
ATOM      5  C   UNL     1      -5.297  11.941  18.347  0.00  0.00    +0.000 A 
ATOM      6  C   UNL     1      -6.624  11.756  17.927  0.00  0.00    +0.000 A 
ATOM      7  C   UNL     1      -7.646  12.264  18.736  0.00  0.00    +0.000 A 
ATOM      8  C   UNL     1      -7.352  12.940  19.919  0.00  0.00    +0.000 A 
ATOM      9  C   UNL     1      -6.027  13.126  20.319  0.00  0.00    +0.000 A 
ATOM     10  C   UNL     1      -4.983  12.614  19.523  0.00  0.00    +0.000 A 
ATOM     11  C   UNL     1      -3.952  10.841  16.527  0.00  0.00    +0.000 C 
ATOM     12  C   UNL     1      -2.515  10.923  16.015  0.00  0.00    +0.000 C 
ATOM     13  N   UNL     1      -1.573  10.589  17.078  0.00  0.00    +0.000 NA
ATOM     14  C   UNL     1      -1.623  11.571  18.180  0.00  0.00    +0.000 C 
ATOM     15  H   UNL     1      -0.622  10.560  16.719  0.00  0.00    +0.000 HD
ENDROOT
BRANCH  14  16
ATOM     16  C   UNL     1      -0.783  11.021  19.329  0.00  0.00    +0.000 A 
ATOM     17  C   UNL     1      -1.014   9.724  19.819  0.00  0.00    +0.000 A 
ATOM     18  C   UNL     1      -0.336   9.261  20.948  0.00  0.00    +0.000 A 
ATOM     19  C   UNL     1       0.574  10.104  21.599  0.00  0.00    +0.000 A 
ATOM     20  C   UNL     1       0.863  11.374  21.090  0.00  0.00    +0.000 A 
ATOM     21  C   UNL     1       0.190  11.823  19.953  0.00  0.00    +0.000 A 
BRANCH  19  22
ATOM     22  N   UNL     1       1.192   9.668  22.857  0.00  0.00    +0.000 N 
ATOM     23  O   UNL     1       2.403   9.403  22.842  0.00  0.00    +0.000 OA
ATOM     24  O   UNL     1       0.464   9.571  23.855  0.00  0.00    +0.000 OA
ENDBRANCH  19  22
ENDBRANCH  14  16
TORSDOF 2
ENDMDL
MODEL 7
REMARK VINA RESULT:      -6.4      4.878      7.952
REMARK  Name = 
REMARK  3 active torsions:
REMARK  status: ('A' for Active; 'I' for Inactive)
REMARK    1  A    between atoms: C_1  and  C_2
REMARK    2  A    between atoms: C_14  and  C_15
REMARK    3  A    between atoms: C_18  and  N_19
REMARK                            x       y       z     vdW  Elec       q    Type
REMARK                         _______ _______ _______ _____ _____    ______ ____
ROOT
ATOM      1  C   UNL     1      -0.523   9.753  22.644  0.00  0.00    +0.000 C 
ATOM      2  C   UNL     1      -0.307   9.952  21.183  0.00  0.00    +0.000 A 
ATOM      3  C   UNL     1      -0.905  10.881  20.337  0.00  0.00    +0.000 A 
ATOM      4  N   UNL     1      -0.424  10.634  19.065  0.00  0.00    +0.000 N 
ATOM      5  C   UNL     1       0.526   9.642  19.079  0.00  0.00    +0.000 A 
ATOM      6  C   UNL     1       1.312   9.097  18.050  0.00  0.00    +0.000 A 
ATOM      7  C   UNL     1       2.216   8.082  18.381  0.00  0.00    +0.000 A 
ATOM      8  C   UNL     1       2.326   7.622  19.691  0.00  0.00    +0.000 A 
ATOM      9  C   UNL     1       1.532   8.166  20.703  0.00  0.00    +0.000 A 
ATOM     10  C   UNL     1       0.620   9.196  20.393  0.00  0.00    +0.000 A 
ATOM     11  C   UNL     1      -0.865  11.373  17.896  0.00  0.00    +0.000 C 
ATOM     12  C   UNL     1      -2.177  12.105  18.166  0.00  0.00    +0.000 C 
ATOM     13  N   UNL     1      -2.101  12.849  19.419  0.00  0.00    +0.000 NA
ATOM     14  C   UNL     1      -1.941  11.950  20.579  0.00  0.00    +0.000 C 
ATOM     15  H   UNL     1      -2.942  13.404  19.558  0.00  0.00    +0.000 HD
ENDROOT
BRANCH  14  16
ATOM     16  C   UNL     1      -1.645  12.815  21.799  0.00  0.00    +0.000 A 
ATOM     17  C   UNL     1      -2.520  12.815  22.899  0.00  0.00    +0.000 A 
ATOM     18  C   UNL     1      -2.323  13.696  23.964  0.00  0.00    +0.000 A 
ATOM     19  C   UNL     1      -1.245  14.590  23.927  0.00  0.00    +0.000 A 
ATOM     20  C   UNL     1      -0.328  14.563  22.871  0.00  0.00    +0.000 A 
ATOM     21  C   UNL     1      -0.527  13.670  21.817  0.00  0.00    +0.000 A 
BRANCH  19  22
ATOM     22  N   UNL     1      -1.108  15.602  24.981  0.00  0.00    +0.000 N 
ATOM     23  O   UNL     1      -2.118  15.885  25.642  0.00  0.00    +0.000 OA
ATOM     24  O   UNL     1       0.003  16.128  25.136  0.00  0.00    +0.000 OA
ENDBRANCH  19  22
ENDBRANCH  14  16
TORSDOF 2
ENDMDL
MODEL 8
REMARK VINA RESULT:      -6.3      4.168      8.613
REMARK  Name = 
REMARK  3 active torsions:
REMARK  status: ('A' for Active; 'I' for Inactive)
REMARK    1  A    between atoms: C_1  and  C_2
REMARK    2  A    between atoms: C_14  and  C_15
REMARK    3  A    between atoms: C_18  and  N_19
REMARK                            x       y       z     vdW  Elec       q    Type
REMARK                         _______ _______ _______ _____ _____    ______ ____
ROOT
ATOM      1  C   UNL     1       2.808  12.313  17.905  0.00  0.00    +0.000 C 
ATOM      2  C   UNL     1       1.640  12.887  18.630  0.00  0.00    +0.000 A 
ATOM      3  C   UNL     1       0.401  12.304  18.875  0.00  0.00    +0.000 A 
ATOM      4  N   UNL     1      -0.365  13.249  19.532  0.00  0.00    +0.000 N 
ATOM      5  C   UNL     1       0.366  14.382  19.797  0.00  0.00    +0.000 A 
ATOM      6  C   UNL     1       0.029  15.564  20.476  0.00  0.00    +0.000 A 
ATOM      7  C   UNL     1       1.008  16.556  20.594  0.00  0.00    +0.000 A 
ATOM      8  C   UNL     1       2.278  16.376  20.048  0.00  0.00    +0.000 A 
ATOM      9  C   UNL     1       2.597  15.199  19.366  0.00  0.00    +0.000 A 
ATOM     10  C   UNL     1       1.627  14.183  19.243  0.00  0.00    +0.000 A 
ATOM     11  C   UNL     1      -1.749  13.023  19.909  0.00  0.00    +0.000 C 
ATOM     12  C   UNL     1      -2.350  11.854  19.133  0.00  0.00    +0.000 C 
ATOM     13  N   UNL     1      -1.462  10.696  19.181  0.00  0.00    +0.000 NA
ATOM     14  C   UNL     1      -0.179  10.964  18.501  0.00  0.00    +0.000 C 
ATOM     15  H   UNL     1      -1.897   9.891  18.738  0.00  0.00    +0.000 HD
ENDROOT
BRANCH  14  16
ATOM     16  C   UNL     1       0.755   9.796  18.798  0.00  0.00    +0.000 A 
ATOM     17  C   UNL     1       1.426   9.139  17.752  0.00  0.00    +0.000 A 
ATOM     18  C   UNL     1       2.184   7.993  18.002  0.00  0.00    +0.000 A 
ATOM     19  C   UNL     1       2.267   7.495  19.309  0.00  0.00    +0.000 A 
ATOM     20  C   UNL     1       1.658   8.169  20.372  0.00  0.00    +0.000 A 
ATOM     21  C   UNL     1       0.913   9.321  20.114  0.00  0.00    +0.000 A 
BRANCH  19  22
ATOM     22  N   UNL     1       2.955   6.223  19.556  0.00  0.00    +0.000 N 
ATOM     23  O   UNL     1       3.993   5.996  18.916  0.00  0.00    +0.000 OA
ATOM     24  O   UNL     1       2.449   5.441  20.373  0.00  0.00    +0.000 OA
ENDBRANCH  19  22
ENDBRANCH  14  16
TORSDOF 2
ENDMDL
MODEL 9
REMARK VINA RESULT:      -6.3      7.720      9.734
REMARK  Name = 
REMARK  3 active torsions:
REMARK  status: ('A' for Active; 'I' for Inactive)
REMARK    1  A    between atoms: C_1  and  C_2
REMARK    2  A    between atoms: C_14  and  C_15
REMARK    3  A    between atoms: C_18  and  N_19
REMARK                            x       y       z     vdW  Elec       q    Type
REMARK                         _______ _______ _______ _____ _____    ______ ____
ROOT
ATOM      1  C   UNL     1       7.464  12.675  17.206  0.00  0.00    +0.000 C 
ATOM      2  C   UNL     1       8.549  13.419  17.903  0.00  0.00    +0.000 A 
ATOM      3  C   UNL     1       8.571  14.755  18.294  0.00  0.00    +0.000 A 
ATOM      4  N   UNL     1       9.815  14.989  18.851  0.00  0.00    +0.000 N 
ATOM      5  C   UNL     1      10.556  13.835  18.913  0.00  0.00    +0.000 A 
ATOM      6  C   UNL     1      11.836  13.582  19.434  0.00  0.00    +0.000 A 
ATOM      7  C   UNL     1      12.330  12.276  19.357  0.00  0.00    +0.000 A 
ATOM      8  C   UNL     1      11.576  11.259  18.775  0.00  0.00    +0.000 A 
ATOM      9  C   UNL     1      10.309  11.526  18.251  0.00  0.00    +0.000 A 
ATOM     10  C   UNL     1       9.788  12.834  18.326  0.00  0.00    +0.000 A 
ATOM     11  C   UNL     1      10.233  16.295  19.329  0.00  0.00    +0.000 C 
ATOM     12  C   UNL     1       9.349  17.402  18.761  0.00  0.00    +0.000 C 
ATOM     13  N   UNL     1       7.938  17.067  18.925  0.00  0.00    +0.000 NA
ATOM     14  C   UNL     1       7.567  15.869  18.146  0.00  0.00    +0.000 C 
ATOM     15  H   UNL     1       7.348  17.839  18.625  0.00  0.00    +0.000 HD
ENDROOT
BRANCH  14  16
ATOM     16  C   UNL     1       6.154  15.469  18.556  0.00  0.00    +0.000 A 
ATOM     17  C   UNL     1       5.872  15.123  19.889  0.00  0.00    +0.000 A 
ATOM     18  C   UNL     1       4.613  14.637  20.246  0.00  0.00    +0.000 A 
ATOM     19  C   UNL     1       3.628  14.489  19.261  0.00  0.00    +0.000 A 
ATOM     20  C   UNL     1       3.869  14.886  17.942  0.00  0.00    +0.000 A 
ATOM     21  C   UNL     1       5.127  15.383  17.597  0.00  0.00    +0.000 A 
BRANCH  19  22
ATOM     22  N   UNL     1       2.348  13.860  19.607  0.00  0.00    +0.000 N 
ATOM     23  O   UNL     1       1.691  13.348  18.689  0.00  0.00    +0.000 OA
ATOM     24  O   UNL     1       1.989  13.894  20.793  0.00  0.00    +0.000 OA
ENDBRANCH  19  22
ENDBRANCH  14  16
TORSDOF 2
ENDMDL
