MODEL 1
REMARK VINA RESULT:      -6.5      0.000      0.000
REMARK  Name = 
REMARK  11 active torsions:
REMARK  status: ('A' for Active; 'I' for Inactive)
REMARK    1  A    between atoms: C_1  and  O_2
REMARK    2  A    between atoms: O_2  and  C_3
REMARK    3  A    between atoms: C_5  and  N_6
REMARK    4  A    between atoms: C_10  and  C_11
REMARK    5  A    between atoms: C_14  and  C_15
REMARK    6  A    between atoms: C_15  and  O_16
REMARK    7  A    between atoms: C_19  and  C_20
REMARK    8  A    between atoms: C_24  and  O_25
REMARK    9  A    between atoms: O_25  and  C_26
REMARK   10  A    between atoms: C_27  and  O_28
REMARK   11  A    between atoms: O_28  and  C_29
REMARK                            x       y       z     vdW  Elec       q    Type
REMARK                         _______ _______ _______ _____ _____    ______ ____
ROOT
ATOM      1  N   UNL     1      -4.037  11.941  18.479  0.00  0.00    +0.000 NA
ATOM      2  C   UNL     1      -2.880  11.381  18.686  0.00  0.00    +0.000 A 
ATOM      3  O   UNL     1      -2.275  11.402  19.933  0.00  0.00    +0.000 OA
ATOM      4  C   UNL     1      -1.016  10.816  20.177  0.00  0.00    +0.000 A 
ATOM      5  C   UNL     1      -0.487  10.887  21.463  0.00  0.00    +0.000 A 
ATOM      6  C   UNL     1      -1.195  11.548  22.605  0.00  0.00    +0.000 C 
ATOM      7  N   UNL     1       0.725  10.361  21.757  0.00  0.00    +0.000 NA
ATOM      8  C   UNL     1       1.399   9.757  20.757  0.00  0.00    +0.000 A 
ATOM      9  C   UNL     1       0.943   9.624  19.444  0.00  0.00    +0.000 A 
ATOM     10  C   UNL     1      -0.309  10.191  19.148  0.00  0.00    +0.000 A 
ATOM     11  C   UNL     1      -0.942  10.154  17.827  0.00  0.00    +0.000 A 
ATOM     12  C   UNL     1      -2.150  10.689  17.605  0.00  0.00    +0.000 A 
ENDROOT
BRANCH   1  15
ATOM     13  C   UNL     1      -6.743  12.109  20.953  0.00  0.00    +0.000 A 
ATOM     14  C   UNL     1      -6.034  11.859  19.767  0.00  0.00    +0.000 A 
ATOM     15  C   UNL     1      -4.830  12.506  19.477  0.00  0.00    +0.000 A 
ATOM     16  C   UNL     1      -4.402  13.497  20.357  0.00  0.00    +0.000 A 
ATOM     17  C   UNL     1      -5.132  13.828  21.511  0.00  0.00    +0.000 A 
ATOM     18  C   UNL     1      -6.309  13.119  21.838  0.00  0.00    +0.000 A 
BRANCH  13  20
ATOM     19  C   UNL     1      -7.852  10.009  20.824  0.00  0.00    +0.000 C 
ATOM     20  O   UNL     1      -7.863  11.373  21.246  0.00  0.00    +0.000 OA
ENDBRANCH  13  20
BRANCH  17  21
ATOM     21  O   UNL     1      -4.500  14.829  22.208  0.00  0.00    +0.000 OA
ATOM     22  C   UNL     1      -3.521  14.505  23.184  0.00  0.00    +0.000 C 
ENDBRANCH  17  21
BRANCH  18  23
ATOM     23  O   UNL     1      -6.936  13.494  22.998  0.00  0.00    +0.000 OA
ATOM     24  C   UNL     1      -6.799  12.722  24.180  0.00  0.00    +0.000 C 
ENDBRANCH  18  23
ENDBRANCH   1  15
BRANCH  12  25
ATOM     25  C   UNL     1      -2.698  10.499  16.224  0.00  0.00    +0.000 C 
ATOM     26  N   UNL     1      -3.134  11.606  15.563  0.00  0.00    +0.000 N 
ATOM     27  O   UNL     1      -2.759   9.408  15.674  0.00  0.00    +0.000 OA
ATOM     28  H   UNL     1      -3.110  12.526  15.991  0.00  0.00    +0.000 HD
ATOM     29  H   UNL     1      -3.537  11.494  14.643  0.00  0.00    +0.000 HD
ENDBRANCH  12  25
BRANCH   9  30
ATOM     30  C   UNL     1       1.806   8.852  18.488  0.00  0.00    +0.000 C 
BRANCH  30  31
ATOM     31  O   UNL     1       2.354   7.711  19.135  0.00  0.00    +0.000 OA
ATOM     32  H   UNL     1       1.674   7.373  19.742  0.00  0.00    +0.000 HD
ENDBRANCH  30  31
ENDBRANCH   9  30
TORSDOF 7
ENDMDL
MODEL 2
REMARK VINA RESULT:      -6.4      2.026      5.267
REMARK  Name = 
REMARK  11 active torsions:
REMARK  status: ('A' for Active; 'I' for Inactive)
REMARK    1  A    between atoms: C_1  and  O_2
REMARK    2  A    between atoms: O_2  and  C_3
REMARK    3  A    between atoms: C_5  and  N_6
REMARK    4  A    between atoms: C_10  and  C_11
REMARK    5  A    between atoms: C_14  and  C_15
REMARK    6  A    between atoms: C_15  and  O_16
REMARK    7  A    between atoms: C_19  and  C_20
REMARK    8  A    between atoms: C_24  and  O_25
REMARK    9  A    between atoms: O_25  and  C_26
REMARK   10  A    between atoms: C_27  and  O_28
REMARK   11  A    between atoms: O_28  and  C_29
REMARK                            x       y       z     vdW  Elec       q    Type
REMARK                         _______ _______ _______ _____ _____    ______ ____
ROOT
ATOM      1  N   UNL     1      -0.776  11.515  21.453  0.00  0.00    +0.000 NA
ATOM      2  C   UNL     1      -1.341  11.354  20.291  0.00  0.00    +0.000 A 
ATOM      3  O   UNL     1      -2.621  11.817  20.034  0.00  0.00    +0.000 OA
ATOM      4  C   UNL     1      -3.259  11.640  18.789  0.00  0.00    +0.000 A 
ATOM      5  C   UNL     1      -4.548  12.140  18.624  0.00  0.00    +0.000 A 
ATOM      6  C   UNL     1      -5.288  12.868  19.703  0.00  0.00    +0.000 C 
ATOM      7  N   UNL     1      -5.220  11.986  17.460  0.00  0.00    +0.000 NA
ATOM      8  C   UNL     1      -4.590  11.334  16.461  0.00  0.00    +0.000 A 
ATOM      9  C   UNL     1      -3.297  10.813  16.528  0.00  0.00    +0.000 A 
ATOM     10  C   UNL     1      -2.616  10.964  17.750  0.00  0.00    +0.000 A 
ATOM     11  C   UNL     1      -1.259  10.477  18.005  0.00  0.00    +0.000 A 
ATOM     12  C   UNL     1      -0.646  10.671  19.181  0.00  0.00    +0.000 A 
ENDROOT
BRANCH   1  15
ATOM     13  C   UNL     1      -1.433  14.471  23.527  0.00  0.00    +0.000 A 
ATOM     14  C   UNL     1      -0.769  13.506  22.753  0.00  0.00    +0.000 A 
ATOM     15  C   UNL     1      -1.326  12.250  22.503  0.00  0.00    +0.000 A 
ATOM     16  C   UNL     1      -2.526  11.938  23.139  0.00  0.00    +0.000 A 
ATOM     17  C   UNL     1      -3.174  12.853  23.986  0.00  0.00    +0.000 A 
ATOM     18  C   UNL     1      -2.644  14.148  24.176  0.00  0.00    +0.000 A 
BRANCH  13  20
ATOM     19  C   UNL     1      -0.796  16.499  22.460  0.00  0.00    +0.000 C 
ATOM     20  O   UNL     1      -0.898  15.728  23.657  0.00  0.00    +0.000 OA
ENDBRANCH  13  20
BRANCH  17  21
ATOM     21  O   UNL     1      -4.333  12.308  24.484  0.00  0.00    +0.000 OA
ATOM     22  C   UNL     1      -5.584  12.655  23.911  0.00  0.00    +0.000 C 
ENDBRANCH  17  21
BRANCH  18  23
ATOM     23  O   UNL     1      -3.362  14.979  24.996  0.00  0.00    +0.000 OA
ATOM     24  C   UNL     1      -4.206  15.983  24.454  0.00  0.00    +0.000 C 
ENDBRANCH  18  23
ENDBRANCH   1  15
BRANCH  12  25
ATOM     25  C   UNL     1       0.769  10.186  19.261  0.00  0.00    +0.000 C 
ATOM     26  N   UNL     1       1.070   9.281  20.232  0.00  0.00    +0.000 N 
ATOM     27  O   UNL     1       1.647  10.560  18.496  0.00  0.00    +0.000 OA
ATOM     28  H   UNL     1       0.371   8.957  20.892  0.00  0.00    +0.000 HD
ATOM     29  H   UNL     1       2.026   8.967  20.322  0.00  0.00    +0.000 HD
ENDBRANCH  12  25
BRANCH   9  30
ATOM     30  C   UNL     1      -2.739  10.185  15.284  0.00  0.00    +0.000 C 
BRANCH  30  31
ATOM     31  O   UNL     1      -3.529  10.542  14.158  0.00  0.00    +0.000 OA
ATOM     32  H   UNL     1      -2.928  10.925  13.497  0.00  0.00    +0.000 HD
ENDBRANCH  30  31
ENDBRANCH   9  30
TORSDOF 7
ENDMDL
MODEL 3
REMARK VINA RESULT:      -6.3      2.173      5.406
REMARK  Name = 
REMARK  11 active torsions:
REMARK  status: ('A' for Active; 'I' for Inactive)
REMARK    1  A    between atoms: C_1  and  O_2
REMARK    2  A    between atoms: O_2  and  C_3
REMARK    3  A    between atoms: C_5  and  N_6
REMARK    4  A    between atoms: C_10  and  C_11
REMARK    5  A    between atoms: C_14  and  C_15
REMARK    6  A    between atoms: C_15  and  O_16
REMARK    7  A    between atoms: C_19  and  C_20
REMARK    8  A    between atoms: C_24  and  O_25
REMARK    9  A    between atoms: O_25  and  C_26
REMARK   10  A    between atoms: C_27  and  O_28
REMARK   11  A    between atoms: O_28  and  C_29
REMARK                            x       y       z     vdW  Elec       q    Type
REMARK                         _______ _______ _______ _____ _____    ______ ____
ROOT
ATOM      1  N   UNL     1      -0.196  11.462  20.903  0.00  0.00    +0.000 NA
ATOM      2  C   UNL     1      -0.888  11.230  19.825  0.00  0.00    +0.000 A 
ATOM      3  O   UNL     1      -2.180  11.710  19.673  0.00  0.00    +0.000 OA
ATOM      4  C   UNL     1      -2.956  11.458  18.523  0.00  0.00    +0.000 A 
ATOM      5  C   UNL     1      -4.244  11.981  18.461  0.00  0.00    +0.000 A 
ATOM      6  C   UNL     1      -4.846  12.808  19.555  0.00  0.00    +0.000 C 
ATOM      7  N   UNL     1      -5.044  11.759  17.393  0.00  0.00    +0.000 NA
ATOM      8  C   UNL     1      -4.542  11.017  16.384  0.00  0.00    +0.000 A 
ATOM      9  C   UNL     1      -3.260  10.466  16.351  0.00  0.00    +0.000 A 
ATOM     10  C   UNL     1      -2.445  10.688  17.475  0.00  0.00    +0.000 A 
ATOM     11  C   UNL     1      -1.078  10.183  17.618  0.00  0.00    +0.000 A 
ATOM     12  C   UNL     1      -0.335  10.447  18.702  0.00  0.00    +0.000 A 
ENDROOT
BRANCH   1  15
ATOM     13  C   UNL     1      -0.540  14.578  22.812  0.00  0.00    +0.000 A 
ATOM     14  C   UNL     1       0.010  13.536  22.048  0.00  0.00    +0.000 A 
ATOM     15  C   UNL     1      -0.612  12.289  21.946  0.00  0.00    +0.000 A 
ATOM     16  C   UNL     1      -1.750  12.070  22.719  0.00  0.00    +0.000 A 
ATOM     17  C   UNL     1      -2.278  13.066  23.557  0.00  0.00    +0.000 A 
ATOM     18  C   UNL     1      -1.689  14.349  23.600  0.00  0.00    +0.000 A 
BRANCH  13  20
ATOM     19  C   UNL     1      -0.072  16.559  21.584  0.00  0.00    +0.000 C 
ATOM     20  O   UNL     1       0.048  15.818  22.798  0.00  0.00    +0.000 OA
ENDBRANCH  13  20
BRANCH  17  21
ATOM     21  O   UNL     1      -3.397  12.603  24.205  0.00  0.00    +0.000 OA
ATOM     22  C   UNL     1      -4.686  12.860  23.668  0.00  0.00    +0.000 C 
ENDBRANCH  17  21
BRANCH  18  23
ATOM     23  O   UNL     1      -2.291  15.262  24.425  0.00  0.00    +0.000 OA
ATOM     24  C   UNL     1      -1.886  15.396  25.779  0.00  0.00    +0.000 C 
ENDBRANCH  18  23
ENDBRANCH   1  15
BRANCH  12  25
ATOM     25  C   UNL     1       1.070   9.929  18.665  0.00  0.00    +0.000 C 
ATOM     26  N   UNL     1       1.963  10.591  17.879  0.00  0.00    +0.000 N 
ATOM     27  O   UNL     1       1.441   8.957  19.307  0.00  0.00    +0.000 OA
ATOM     28  H   UNL     1       1.690  11.394  17.322  0.00  0.00    +0.000 HD
ATOM     29  H   UNL     1       2.908  10.238  17.816  0.00  0.00    +0.000 HD
ENDBRANCH  12  25
BRANCH   9  30
ATOM     30  C   UNL     1      -2.855   9.730  15.105  0.00  0.00    +0.000 C 
BRANCH  30  31
ATOM     31  O   UNL     1      -3.023  10.566  13.968  0.00  0.00    +0.000 OA
ATOM     32  H   UNL     1      -2.362  10.289  13.310  0.00  0.00    +0.000 HD
ENDBRANCH  30  31
ENDBRANCH   9  30
TORSDOF 7
ENDMDL
MODEL 4
REMARK VINA RESULT:      -6.3      4.743      8.005
REMARK  Name = 
REMARK  11 active torsions:
REMARK  status: ('A' for Active; 'I' for Inactive)
REMARK    1  A    between atoms: C_1  and  O_2
REMARK    2  A    between atoms: O_2  and  C_3
REMARK    3  A    between atoms: C_5  and  N_6
REMARK    4  A    between atoms: C_10  and  C_11
REMARK    5  A    between atoms: C_14  and  C_15
REMARK    6  A    between atoms: C_15  and  O_16
REMARK    7  A    between atoms: C_19  and  C_20
REMARK    8  A    between atoms: C_24  and  O_25
REMARK    9  A    between atoms: O_25  and  C_26
REMARK   10  A    between atoms: C_27  and  O_28
REMARK   11  A    between atoms: O_28  and  C_29
REMARK                            x       y       z     vdW  Elec       q    Type
REMARK                         _______ _______ _______ _____ _____    ______ ____
ROOT
ATOM      1  N   UNL     1       3.329   7.976  17.758  0.00  0.00    +0.000 NA
ATOM      2  C   UNL     1       3.331   6.682  17.895  0.00  0.00    +0.000 A 
ATOM      3  O   UNL     1       2.410   6.033  18.703  0.00  0.00    +0.000 OA
ATOM      4  C   UNL     1       2.404   4.634  18.880  0.00  0.00    +0.000 A 
ATOM      5  C   UNL     1       1.440   4.072  19.712  0.00  0.00    +0.000 A 
ATOM      6  C   UNL     1       0.400   4.882  20.424  0.00  0.00    +0.000 C 
ATOM      7  N   UNL     1       1.392   2.739  19.936  0.00  0.00    +0.000 NA
ATOM      8  C   UNL     1       2.312   1.972  19.315  0.00  0.00    +0.000 A 
ATOM      9  C   UNL     1       3.304   2.442  18.454  0.00  0.00    +0.000 A 
ATOM     10  C   UNL     1       3.353   3.832  18.243  0.00  0.00    +0.000 A 
ATOM     11  C   UNL     1       4.327   4.503  17.378  0.00  0.00    +0.000 A 
ATOM     12  C   UNL     1       4.314   5.830  17.193  0.00  0.00    +0.000 A 
ENDROOT
BRANCH   1  15
ATOM     13  C   UNL     1       0.954   9.238  20.256  0.00  0.00    +0.000 A 
ATOM     14  C   UNL     1       1.681   8.368  19.428  0.00  0.00    +0.000 A 
ATOM     15  C   UNL     1       2.361   8.825  18.296  0.00  0.00    +0.000 A 
ATOM     16  C   UNL     1       2.207  10.164  17.947  0.00  0.00    +0.000 A 
ATOM     17  C   UNL     1       1.417  11.041  18.709  0.00  0.00    +0.000 A 
ATOM     18  C   UNL     1       0.793  10.593  19.894  0.00  0.00    +0.000 A 
BRANCH  13  20
ATOM     19  C   UNL     1       1.006   9.186  22.633  0.00  0.00    +0.000 C 
ATOM     20  O   UNL     1       0.392   8.765  21.415  0.00  0.00    +0.000 OA
ENDBRANCH  13  20
BRANCH  17  21
ATOM     21  O   UNL     1       1.430  12.300  18.158  0.00  0.00    +0.000 OA
ATOM     22  C   UNL     1       2.485  13.198  18.465  0.00  0.00    +0.000 C 
ENDBRANCH  17  21
BRANCH  18  23
ATOM     23  O   UNL     1       0.068  11.527  20.586  0.00  0.00    +0.000 OA
ATOM     24  C   UNL     1      -1.311  11.724  20.313  0.00  0.00    +0.000 C 
ENDBRANCH  18  23
ENDBRANCH   1  15
BRANCH  12  25
ATOM     25  C   UNL     1       5.321   6.358  16.218  0.00  0.00    +0.000 C 
ATOM     26  N   UNL     1       6.327   7.130  16.709  0.00  0.00    +0.000 N 
ATOM     27  O   UNL     1       5.277   6.119  15.019  0.00  0.00    +0.000 OA
ATOM     28  H   UNL     1       6.389   7.360  17.696  0.00  0.00    +0.000 HD
ATOM     29  H   UNL     1       6.998   7.522  16.062  0.00  0.00    +0.000 HD
ENDBRANCH  12  25
BRANCH   9  30
ATOM     30  C   UNL     1       4.192   1.423  17.798  0.00  0.00    +0.000 C 
BRANCH  30  31
ATOM     31  O   UNL     1       4.528   0.400  18.725  0.00  0.00    +0.000 OA
ATOM     32  H   UNL     1       5.447   0.555  19.002  0.00  0.00    +0.000 HD
ENDBRANCH  30  31
ENDBRANCH   9  30
TORSDOF 7
ENDMDL
MODEL 5
REMARK VINA RESULT:      -6.2      1.745      2.209
REMARK  Name = 
REMARK  11 active torsions:
REMARK  status: ('A' for Active; 'I' for Inactive)
REMARK    1  A    between atoms: C_1  and  O_2
REMARK    2  A    between atoms: O_2  and  C_3
REMARK    3  A    between atoms: C_5  and  N_6
REMARK    4  A    between atoms: C_10  and  C_11
REMARK    5  A    between atoms: C_14  and  C_15
REMARK    6  A    between atoms: C_15  and  O_16
REMARK    7  A    between atoms: C_19  and  C_20
REMARK    8  A    between atoms: C_24  and  O_25
REMARK    9  A    between atoms: O_25  and  C_26
REMARK   10  A    between atoms: C_27  and  O_28
REMARK   11  A    between atoms: O_28  and  C_29
REMARK                            x       y       z     vdW  Elec       q    Type
REMARK                         _______ _______ _______ _____ _____    ______ ____
ROOT
ATOM      1  N   UNL     1      -4.638  12.735  19.156  0.00  0.00    +0.000 NA
ATOM      2  C   UNL     1      -3.471  12.157  19.174  0.00  0.00    +0.000 A 
ATOM      3  O   UNL     1      -2.639  12.232  20.279  0.00  0.00    +0.000 OA
ATOM      4  C   UNL     1      -1.365  11.629  20.315  0.00  0.00    +0.000 A 
ATOM      5  C   UNL     1      -0.599  11.758  21.471  0.00  0.00    +0.000 A 
ATOM      6  C   UNL     1      -1.067  12.502  22.684  0.00  0.00    +0.000 C 
ATOM      7  N   UNL     1       0.638  11.218  21.561  0.00  0.00    +0.000 NA
ATOM      8  C   UNL     1       1.099  10.541  20.489  0.00  0.00    +0.000 A 
ATOM      9  C   UNL     1       0.400  10.346  19.298  0.00  0.00    +0.000 A 
ATOM     10  C   UNL     1      -0.878  10.928  19.211  0.00  0.00    +0.000 A 
ATOM     11  C   UNL     1      -1.751  10.832  18.038  0.00  0.00    +0.000 A 
ATOM     12  C   UNL     1      -2.971  11.385  18.018  0.00  0.00    +0.000 A 
ENDROOT
BRANCH   1  15
ATOM     13  C   UNL     1      -5.558  13.251  22.671  0.00  0.00    +0.000 A 
ATOM     14  C   UNL     1      -5.325  12.637  21.431  0.00  0.00    +0.000 A 
ATOM     15  C   UNL     1      -5.217  13.377  20.250  0.00  0.00    +0.000 A 
ATOM     16  C   UNL     1      -5.458  14.747  20.324  0.00  0.00    +0.000 A 
ATOM     17  C   UNL     1      -5.776  15.379  21.537  0.00  0.00    +0.000 A 
ATOM     18  C   UNL     1      -5.809  14.638  22.739  0.00  0.00    +0.000 A 
BRANCH  13  20
ATOM     19  C   UNL     1      -4.321  12.465  24.544  0.00  0.00    +0.000 C 
ATOM     20  O   UNL     1      -5.550  12.497  23.818  0.00  0.00    +0.000 OA
ENDBRANCH  13  20
BRANCH  17  21
ATOM     21  O   UNL     1      -5.964  16.726  21.342  0.00  0.00    +0.000 OA
ATOM     22  C   UNL     1      -4.862  17.553  21.001  0.00  0.00    +0.000 C 
ENDBRANCH  17  21
BRANCH  18  23
ATOM     23  O   UNL     1      -6.100  15.346  23.876  0.00  0.00    +0.000 OA
ATOM     24  C   UNL     1      -5.118  16.164  24.494  0.00  0.00    +0.000 C 
ENDBRANCH  18  23
ENDBRANCH   1  15
BRANCH  12  25
ATOM     25  C   UNL     1      -3.775  11.132  16.779  0.00  0.00    +0.000 C 
ATOM     26  N   UNL     1      -5.117  10.957  16.925  0.00  0.00    +0.000 N 
ATOM     27  O   UNL     1      -3.282  11.086  15.661  0.00  0.00    +0.000 OA
ATOM     28  H   UNL     1      -5.560  10.976  17.838  0.00  0.00    +0.000 HD
ATOM     29  H   UNL     1      -5.671  10.753  16.106  0.00  0.00    +0.000 HD
ENDBRANCH  12  25
BRANCH   9  30
ATOM     30  C   UNL     1       1.052   9.498  18.243  0.00  0.00    +0.000 C 
BRANCH  30  31
ATOM     31  O   UNL     1       1.867  10.304  17.403  0.00  0.00    +0.000 OA
ATOM     32  H   UNL     1       1.269  10.820  16.835  0.00  0.00    +0.000 HD
ENDBRANCH  30  31
ENDBRANCH   9  30
TORSDOF 7
ENDMDL
MODEL 6
REMARK VINA RESULT:      -6.2      4.507      7.799
REMARK  Name = 
REMARK  11 active torsions:
REMARK  status: ('A' for Active; 'I' for Inactive)
REMARK    1  A    between atoms: C_1  and  O_2
REMARK    2  A    between atoms: O_2  and  C_3
REMARK    3  A    between atoms: C_5  and  N_6
REMARK    4  A    between atoms: C_10  and  C_11
REMARK    5  A    between atoms: C_14  and  C_15
REMARK    6  A    between atoms: C_15  and  O_16
REMARK    7  A    between atoms: C_19  and  C_20
REMARK    8  A    between atoms: C_24  and  O_25
REMARK    9  A    between atoms: O_25  and  C_26
REMARK   10  A    between atoms: C_27  and  O_28
REMARK   11  A    between atoms: O_28  and  C_29
REMARK                            x       y       z     vdW  Elec       q    Type
REMARK                         _______ _______ _______ _____ _____    ______ ____
ROOT
ATOM      1  N   UNL     1       2.843   8.019  18.107  0.00  0.00    +0.000 NA
ATOM      2  C   UNL     1       2.988   6.727  18.156  0.00  0.00    +0.000 A 
ATOM      3  O   UNL     1       2.123   5.924  18.884  0.00  0.00    +0.000 OA
ATOM      4  C   UNL     1       2.270   4.524  18.965  0.00  0.00    +0.000 A 
ATOM      5  C   UNL     1       1.351   3.801  19.720  0.00  0.00    +0.000 A 
ATOM      6  C   UNL     1       0.206   4.438  20.446  0.00  0.00    +0.000 C 
ATOM      7  N   UNL     1       1.448   2.459  19.852  0.00  0.00    +0.000 NA
ATOM      8  C   UNL     1       2.467   1.844  19.216  0.00  0.00    +0.000 A 
ATOM      9  C   UNL     1       3.424   2.482  18.426  0.00  0.00    +0.000 A 
ATOM     10  C   UNL     1       3.322   3.880  18.312  0.00  0.00    +0.000 A 
ATOM     11  C   UNL     1       4.239   4.715  17.532  0.00  0.00    +0.000 A 
ATOM     12  C   UNL     1       4.081   6.042  17.436  0.00  0.00    +0.000 A 
ENDROOT
BRANCH   1  15
ATOM     13  C   UNL     1       0.998   9.900  20.662  0.00  0.00    +0.000 A 
ATOM     14  C   UNL     1       1.811   8.938  20.043  0.00  0.00    +0.000 A 
ATOM     15  C   UNL     1       1.770   8.715  18.664  0.00  0.00    +0.000 A 
ATOM     16  C   UNL     1       0.812   9.406  17.927  0.00  0.00    +0.000 A 
ATOM     17  C   UNL     1      -0.073  10.315  18.531  0.00  0.00    +0.000 A 
ATOM     18  C   UNL     1       0.023  10.592  19.912  0.00  0.00    +0.000 A 
BRANCH  13  20
ATOM     19  C   UNL     1       0.309   9.417  22.886  0.00  0.00    +0.000 C 
ATOM     20  O   UNL     1       1.148  10.160  22.001  0.00  0.00    +0.000 OA
ENDBRANCH  13  20
BRANCH  17  21
ATOM     21  O   UNL     1      -0.914  10.862  17.592  0.00  0.00    +0.000 OA
ATOM     22  C   UNL     1      -2.110  10.189  17.231  0.00  0.00    +0.000 C 
ENDBRANCH  17  21
BRANCH  18  23
ATOM     23  O   UNL     1      -0.864  11.514  20.406  0.00  0.00    +0.000 OA
ATOM     24  C   UNL     1      -0.534  12.894  20.439  0.00  0.00    +0.000 C 
ENDBRANCH  18  23
ENDBRANCH   1  15
BRANCH  12  25
ATOM     25  C   UNL     1       5.050   6.746  16.537  0.00  0.00    +0.000 C 
ATOM     26  N   UNL     1       6.110   7.369  17.120  0.00  0.00    +0.000 N 
ATOM     27  O   UNL     1       4.931   6.775  15.320  0.00  0.00    +0.000 OA
ATOM     28  H   UNL     1       6.235   7.377  18.127  0.00  0.00    +0.000 HD
ATOM     29  H   UNL     1       6.757   7.877  16.533  0.00  0.00    +0.000 HD
ENDBRANCH  12  25
BRANCH   9  30
ATOM     30  C   UNL     1       4.441   1.617  17.737  0.00  0.00    +0.000 C 
BRANCH  30  31
ATOM     31  O   UNL     1       4.590   0.388  18.435  0.00  0.00    +0.000 OA
ATOM     32  H   UNL     1       5.421   0.443  18.937  0.00  0.00    +0.000 HD
ENDBRANCH  30  31
ENDBRANCH   9  30
TORSDOF 7
ENDMDL
MODEL 7
REMARK VINA RESULT:      -6.1      1.155      1.170
REMARK  Name = 
REMARK  11 active torsions:
REMARK  status: ('A' for Active; 'I' for Inactive)
REMARK    1  A    between atoms: C_1  and  O_2
REMARK    2  A    between atoms: O_2  and  C_3
REMARK    3  A    between atoms: C_5  and  N_6
REMARK    4  A    between atoms: C_10  and  C_11
REMARK    5  A    between atoms: C_14  and  C_15
REMARK    6  A    between atoms: C_15  and  O_16
REMARK    7  A    between atoms: C_19  and  C_20
REMARK    8  A    between atoms: C_24  and  O_25
REMARK    9  A    between atoms: O_25  and  C_26
REMARK   10  A    between atoms: C_27  and  O_28
REMARK   11  A    between atoms: O_28  and  C_29
REMARK                            x       y       z     vdW  Elec       q    Type
REMARK                         _______ _______ _______ _____ _____    ______ ____
ROOT
ATOM      1  N   UNL     1      -4.355  12.394  18.955  0.00  0.00    +0.000 NA
ATOM      2  C   UNL     1      -3.187  11.827  19.055  0.00  0.00    +0.000 A 
ATOM      3  O   UNL     1      -2.470  11.842  20.240  0.00  0.00    +0.000 OA
ATOM      4  C   UNL     1      -1.197  11.249  20.367  0.00  0.00    +0.000 A 
ATOM      5  C   UNL     1      -0.551  11.315  21.599  0.00  0.00    +0.000 A 
ATOM      6  C   UNL     1      -1.148  11.978  22.802  0.00  0.00    +0.000 C 
ATOM      7  N   UNL     1       0.679  10.782  21.780  0.00  0.00    +0.000 NA
ATOM      8  C   UNL     1       1.254  10.176  20.721  0.00  0.00    +0.000 A 
ATOM      9  C   UNL     1       0.680  10.047  19.456  0.00  0.00    +0.000 A 
ATOM     10  C   UNL     1      -0.592  10.622  19.277  0.00  0.00    +0.000 A 
ATOM     11  C   UNL     1      -1.343  10.591  18.019  0.00  0.00    +0.000 A 
ATOM     12  C   UNL     1      -2.564  11.132  17.910  0.00  0.00    +0.000 A 
ENDROOT
BRANCH   1  15
ATOM     13  C   UNL     1      -6.468  12.464  21.956  0.00  0.00    +0.000 A 
ATOM     14  C   UNL     1      -5.971  12.143  20.682  0.00  0.00    +0.000 A 
ATOM     15  C   UNL     1      -5.050  12.962  20.023  0.00  0.00    +0.000 A 
ATOM     16  C   UNL     1      -4.718  14.174  20.624  0.00  0.00    +0.000 A 
ATOM     17  C   UNL     1      -5.264  14.562  21.859  0.00  0.00    +0.000 A 
ATOM     18  C   UNL     1      -6.135  13.697  22.557  0.00  0.00    +0.000 A 
BRANCH  13  20
ATOM     19  C   UNL     1      -7.916  10.584  21.803  0.00  0.00    +0.000 C 
ATOM     20  O   UNL     1      -7.287  11.579  22.611  0.00  0.00    +0.000 OA
ENDBRANCH  13  20
BRANCH  17  21
ATOM     21  O   UNL     1      -4.777  15.791  22.233  0.00  0.00    +0.000 OA
ATOM     22  C   UNL     1      -3.463  16.177  21.862  0.00  0.00    +0.000 C 
ENDBRANCH  17  21
BRANCH  18  23
ATOM     23  O   UNL     1      -6.593  14.150  23.766  0.00  0.00    +0.000 OA
ATOM     24  C   UNL     1      -7.810  14.874  23.857  0.00  0.00    +0.000 C 
ENDBRANCH  18  23
ENDBRANCH   1  15
BRANCH  12  25
ATOM     25  C   UNL     1      -3.237  10.948  16.585  0.00  0.00    +0.000 C 
ATOM     26  N   UNL     1      -2.514  11.232  15.467  0.00  0.00    +0.000 N 
ATOM     27  O   UNL     1      -4.389  10.554  16.471  0.00  0.00    +0.000 OA
ATOM     28  H   UNL     1      -1.559  11.573  15.523  0.00  0.00    +0.000 HD
ATOM     29  H   UNL     1      -2.961  11.144  14.565  0.00  0.00    +0.000 HD
ENDBRANCH  12  25
BRANCH   9  30
ATOM     30  C   UNL     1       1.446   9.272  18.423  0.00  0.00    +0.000 C 
BRANCH  30  31
ATOM     31  O   UNL     1       1.957  10.153  17.431  0.00  0.00    +0.000 OA
ATOM     32  H   UNL     1       2.620   9.655  16.922  0.00  0.00    +0.000 HD
ENDBRANCH  30  31
ENDBRANCH   9  30
TORSDOF 7
ENDMDL
MODEL 8
REMARK VINA RESULT:      -6.1      2.152      4.850
REMARK  Name = 
REMARK  11 active torsions:
REMARK  status: ('A' for Active; 'I' for Inactive)
REMARK    1  A    between atoms: C_1  and  O_2
REMARK    2  A    between atoms: O_2  and  C_3
REMARK    3  A    between atoms: C_5  and  N_6
REMARK    4  A    between atoms: C_10  and  C_11
REMARK    5  A    between atoms: C_14  and  C_15
REMARK    6  A    between atoms: C_15  and  O_16
REMARK    7  A    between atoms: C_19  and  C_20
REMARK    8  A    between atoms: C_24  and  O_25
REMARK    9  A    between atoms: O_25  and  C_26
REMARK   10  A    between atoms: C_27  and  O_28
REMARK   11  A    between atoms: O_28  and  C_29
REMARK                            x       y       z     vdW  Elec       q    Type
REMARK                         _______ _______ _______ _____ _____    ______ ____
ROOT
ATOM      1  N   UNL     1      -0.773  11.792  20.960  0.00  0.00    +0.000 NA
ATOM      2  C   UNL     1      -1.328  11.472  19.827  0.00  0.00    +0.000 A 
ATOM      3  O   UNL     1      -2.612  11.880  19.505  0.00  0.00    +0.000 OA
ATOM      4  C   UNL     1      -3.240  11.532  18.292  0.00  0.00    +0.000 A 
ATOM      5  C   UNL     1      -4.534  11.990  18.056  0.00  0.00    +0.000 A 
ATOM      6  C   UNL     1      -5.290  12.843  19.027  0.00  0.00    +0.000 C 
ATOM      7  N   UNL     1      -5.197  11.675  16.920  0.00  0.00    +0.000 NA
ATOM      8  C   UNL     1      -4.553  10.906  16.017  0.00  0.00    +0.000 A 
ATOM      9  C   UNL     1      -3.254  10.416  16.159  0.00  0.00    +0.000 A 
ATOM     10  C   UNL     1      -2.583  10.735  17.353  0.00  0.00    +0.000 A 
ATOM     11  C   UNL     1      -1.220  10.304  17.676  0.00  0.00    +0.000 A 
ATOM     12  C   UNL     1      -0.618  10.658  18.819  0.00  0.00    +0.000 A 
ENDROOT
BRANCH   1  15
ATOM     13  C   UNL     1      -3.033  12.827  23.660  0.00  0.00    +0.000 A 
ATOM     14  C   UNL     1      -2.546  12.247  22.478  0.00  0.00    +0.000 A 
ATOM     15  C   UNL     1      -1.339  12.651  21.902  0.00  0.00    +0.000 A 
ATOM     16  C   UNL     1      -0.677  13.731  22.480  0.00  0.00    +0.000 A 
ATOM     17  C   UNL     1      -1.182  14.387  23.616  0.00  0.00    +0.000 A 
ATOM     18  C   UNL     1      -2.364  13.927  24.238  0.00  0.00    +0.000 A 
BRANCH  13  20
ATOM     19  C   UNL     1      -5.403  12.908  23.831  0.00  0.00    +0.000 C 
ATOM     20  O   UNL     1      -4.168  12.327  24.248  0.00  0.00    +0.000 OA
ENDBRANCH  13  20
BRANCH  17  21
ATOM     21  O   UNL     1      -0.347  15.412  23.989  0.00  0.00    +0.000 OA
ATOM     22  C   UNL     1       0.320  16.180  23.000  0.00  0.00    +0.000 C 
ENDBRANCH  17  21
BRANCH  18  23
ATOM     23  O   UNL     1      -2.762  14.612  25.356  0.00  0.00    +0.000 OA
ATOM     24  C   UNL     1      -3.458  15.844  25.244  0.00  0.00    +0.000 C 
ENDBRANCH  18  23
ENDBRANCH   1  15
BRANCH  12  25
ATOM     25  C   UNL     1       0.803  10.207  18.968  0.00  0.00    +0.000 C 
ATOM     26  N   UNL     1       1.742  10.823  18.201  0.00  0.00    +0.000 N 
ATOM     27  O   UNL     1       1.145   9.326  19.745  0.00  0.00    +0.000 OA
ATOM     28  H   UNL     1       1.495  11.549  17.537  0.00  0.00    +0.000 HD
ATOM     29  H   UNL     1       2.701  10.510  18.265  0.00  0.00    +0.000 HD
ENDBRANCH  12  25
BRANCH   9  30
ATOM     30  C   UNL     1      -2.680   9.637  15.010  0.00  0.00    +0.000 C 
BRANCH  30  31
ATOM     31  O   UNL     1      -2.868  10.348  13.794  0.00  0.00    +0.000 OA
ATOM     32  H   UNL     1      -3.098  11.263  14.031  0.00  0.00    +0.000 HD
ENDBRANCH  30  31
ENDBRANCH   9  30
TORSDOF 7
ENDMDL
MODEL 9
REMARK VINA RESULT:      -6.0      4.466      7.680
REMARK  Name = 
REMARK  11 active torsions:
REMARK  status: ('A' for Active; 'I' for Inactive)
REMARK    1  A    between atoms: C_1  and  O_2
REMARK    2  A    between atoms: O_2  and  C_3
REMARK    3  A    between atoms: C_5  and  N_6
REMARK    4  A    between atoms: C_10  and  C_11
REMARK    5  A    between atoms: C_14  and  C_15
REMARK    6  A    between atoms: C_15  and  O_16
REMARK    7  A    between atoms: C_19  and  C_20
REMARK    8  A    between atoms: C_24  and  O_25
REMARK    9  A    between atoms: O_25  and  C_26
REMARK   10  A    between atoms: C_27  and  O_28
REMARK   11  A    between atoms: O_28  and  C_29
REMARK                            x       y       z     vdW  Elec       q    Type
REMARK                         _______ _______ _______ _____ _____    ______ ____
ROOT
ATOM      1  N   UNL     1       3.145   8.092  17.982  0.00  0.00    +0.000 NA
ATOM      2  C   UNL     1       3.171   6.793  18.050  0.00  0.00    +0.000 A 
ATOM      3  O   UNL     1       2.270   6.087  18.831  0.00  0.00    +0.000 OA
ATOM      4  C   UNL     1       2.289   4.681  18.934  0.00  0.00    +0.000 A 
ATOM      5  C   UNL     1       1.342   4.059  19.744  0.00  0.00    +0.000 A 
ATOM      6  C   UNL     1       0.296   4.812  20.507  0.00  0.00    +0.000 C 
ATOM      7  N   UNL     1       1.321   2.715  19.898  0.00  0.00    +0.000 NA
ATOM      8  C   UNL     1       2.247   1.998  19.230  0.00  0.00    +0.000 A 
ATOM      9  C   UNL     1       3.223   2.530  18.386  0.00  0.00    +0.000 A 
ATOM     10  C   UNL     1       3.246   3.930  18.248  0.00  0.00    +0.000 A 
ATOM     11  C   UNL     1       4.200   4.663  17.411  0.00  0.00    +0.000 A 
ATOM     12  C   UNL     1       4.161   5.997  17.296  0.00  0.00    +0.000 A 
ENDROOT
BRANCH   1  15
ATOM     13  C   UNL     1       0.051  10.058  18.174  0.00  0.00    +0.000 A 
ATOM     14  C   UNL     1       1.264   9.522  17.712  0.00  0.00    +0.000 A 
ATOM     15  C   UNL     1       2.168   8.894  18.572  0.00  0.00    +0.000 A 
ATOM     16  C   UNL     1       1.880   8.911  19.935  0.00  0.00    +0.000 A 
ATOM     17  C   UNL     1       0.715   9.514  20.438  0.00  0.00    +0.000 A 
ATOM     18  C   UNL     1      -0.232  10.080  19.557  0.00  0.00    +0.000 A 
BRANCH  13  20
ATOM     19  C   UNL     1      -2.024   9.785  17.046  0.00  0.00    +0.000 C 
ATOM     20  O   UNL     1      -0.854  10.569  17.279  0.00  0.00    +0.000 OA
ENDBRANCH  13  20
BRANCH  17  21
ATOM     21  O   UNL     1       0.665   9.393  21.806  0.00  0.00    +0.000 OA
ATOM     22  C   UNL     1      -0.339   8.594  22.411  0.00  0.00    +0.000 C 
ENDBRANCH  17  21
BRANCH  18  23
ATOM     23  O   UNL     1      -1.350  10.618  20.138  0.00  0.00    +0.000 OA
ATOM     24  C   UNL     1      -1.403  11.997  20.472  0.00  0.00    +0.000 C 
ENDBRANCH  18  23
ENDBRANCH   1  15
BRANCH  12  25
ATOM     25  C   UNL     1       5.150   6.593  16.341  0.00  0.00    +0.000 C 
ATOM     26  N   UNL     1       6.182   7.306  16.868  0.00  0.00    +0.000 N 
ATOM     27  O   UNL     1       5.069   6.459  15.128  0.00  0.00    +0.000 OA
ATOM     28  H   UNL     1       6.274   7.449  17.868  0.00  0.00    +0.000 HD
ATOM     29  H   UNL     1       6.841   7.743  16.238  0.00  0.00    +0.000 HD
ENDBRANCH  12  25
BRANCH   9  30
ATOM     30  C   UNL     1       4.121   1.563  17.670  0.00  0.00    +0.000 C 
BRANCH  30  31
ATOM     31  O   UNL     1       4.438   0.469  18.520  0.00  0.00    +0.000 OA
ATOM     32  H   UNL     1       3.728   0.406  19.181  0.00  0.00    +0.000 HD
ENDBRANCH  30  31
ENDBRANCH   9  30
TORSDOF 7
ENDMDL
