MODEL 1
REMARK VINA RESULT:      -7.9      0.000      0.000
REMARK  Name = 
REMARK  2 active torsions:
REMARK  status: ('A' for Active; 'I' for Inactive)
REMARK    1  A    between atoms: C_8  and  C_9
REMARK    2  A    between atoms: C_14  and  C_15
REMARK                            x       y       z     vdW  Elec       q    Type
REMARK                         _______ _______ _______ _____ _____    ______ ____
ROOT
ATOM      1  C   UNL     1       4.500   4.284  19.007  0.00  0.00    +0.000 A 
ATOM      2  N   UNL     1       5.281   4.588  20.047  0.00  0.00    +0.000 NA
ATOM      3  N   UNL     1       6.522   5.010  19.589  0.00  0.00    +0.000 NA
ATOM      4  C   UNL     1       6.444   4.960  18.295  0.00  0.00    +0.000 A 
ATOM      5  S   UNL     1       7.506   5.143  16.973  0.00  0.00    +0.000 S 
ATOM      6  C   UNL     1       6.131   4.654  15.946  0.00  0.00    +0.000 A 
ATOM      7  N   UNL     1       4.981   4.459  16.530  0.00  0.00    +0.000 NA
ATOM      8  N   UNL     1       5.216   4.585  17.868  0.00  0.00    +0.000 N 
ENDROOT
BRANCH   1  16
ATOM      9 CL   UNL     1       4.051   1.257  18.122  0.00  0.00    +0.000 Cl
ATOM     10  C   UNL     1       2.850   2.399  18.633  0.00  0.00    +0.000 A 
ATOM     11  C   UNL     1       1.542   1.891  18.680  0.00  0.00    +0.000 A 
ATOM     12  C   UNL     1       0.513   2.641  19.231  0.00  0.00    +0.000 A 
ATOM     13  C   UNL     1       0.787   3.907  19.732  0.00  0.00    +0.000 A 
ATOM     14  C   UNL     1       2.081   4.443  19.642  0.00  0.00    +0.000 A 
ATOM     15 CL   UNL     1       2.264   6.054  20.261  0.00  0.00    +0.000 Cl
ATOM     16  C   UNL     1       3.147   3.709  19.072  0.00  0.00    +0.000 A 
ENDBRANCH   1  16
BRANCH   6  17
ATOM     17  C   UNL     1       6.334   4.451  14.497  0.00  0.00    +0.000 A 
ATOM     18  C   UNL     1       5.470   3.604  13.796  0.00  0.00    +0.000 A 
ATOM     19  C   UNL     1       5.691   3.365  12.441  0.00  0.00    +0.000 A 
ATOM     20  C   UNL     1       6.776   3.974  11.833  0.00  0.00    +0.000 A 
ATOM     21  N   UNL     1       7.637   4.785  12.481  0.00  0.00    +0.000 NA
ATOM     22  C   UNL     1       7.403   5.001  13.800  0.00  0.00    +0.000 A 
ENDBRANCH   6  17
TORSDOF 2
ENDMDL
MODEL 2
REMARK VINA RESULT:      -7.8      0.098      1.964
REMARK  Name = 
REMARK  2 active torsions:
REMARK  status: ('A' for Active; 'I' for Inactive)
REMARK    1  A    between atoms: C_8  and  C_9
REMARK    2  A    between atoms: C_14  and  C_15
REMARK                            x       y       z     vdW  Elec       q    Type
REMARK                         _______ _______ _______ _____ _____    ______ ____
ROOT
ATOM      1  C   UNL     1       4.545   4.293  19.052  0.00  0.00    +0.000 A 
ATOM      2  N   UNL     1       5.353   4.577  20.076  0.00  0.00    +0.000 NA
ATOM      3  N   UNL     1       6.596   4.967  19.594  0.00  0.00    +0.000 NA
ATOM      4  C   UNL     1       6.492   4.919  18.302  0.00  0.00    +0.000 A 
ATOM      5  S   UNL     1       7.534   5.073  16.960  0.00  0.00    +0.000 S 
ATOM      6  C   UNL     1       6.128   4.620  15.960  0.00  0.00    +0.000 A 
ATOM      7  N   UNL     1       4.984   4.455  16.566  0.00  0.00    +0.000 NA
ATOM      8  N   UNL     1       5.247   4.576  17.899  0.00  0.00    +0.000 N 
ENDROOT
BRANCH   1  16
ATOM      9 CL   UNL     1       2.191   6.184  20.068  0.00  0.00    +0.000 Cl
ATOM     10  C   UNL     1       2.093   4.503  19.649  0.00  0.00    +0.000 A 
ATOM     11  C   UNL     1       0.807   3.949  19.751  0.00  0.00    +0.000 A 
ATOM     12  C   UNL     1       0.552   2.667  19.286  0.00  0.00    +0.000 A 
ATOM     13  C   UNL     1       1.586   1.930  18.723  0.00  0.00    +0.000 A 
ATOM     14  C   UNL     1       2.885   2.457  18.663  0.00  0.00    +0.000 A 
ATOM     15 CL   UNL     1       4.084   1.404  17.981  0.00  0.00    +0.000 Cl
ATOM     16  C   UNL     1       3.179   3.754  19.143  0.00  0.00    +0.000 A 
ENDBRANCH   1  16
BRANCH   6  17
ATOM     17  C   UNL     1       6.298   4.411  14.507  0.00  0.00    +0.000 A 
ATOM     18  C   UNL     1       5.406   3.578  13.826  0.00  0.00    +0.000 A 
ATOM     19  C   UNL     1       5.596   3.332  12.467  0.00  0.00    +0.000 A 
ATOM     20  C   UNL     1       6.679   3.921  11.836  0.00  0.00    +0.000 A 
ATOM     21  N   UNL     1       7.567   4.719  12.466  0.00  0.00    +0.000 NA
ATOM     22  C   UNL     1       7.363   4.941  13.789  0.00  0.00    +0.000 A 
ENDBRANCH   6  17
TORSDOF 2
ENDMDL
MODEL 3
REMARK VINA RESULT:      -7.6      0.779      1.103
REMARK  Name = 
REMARK  2 active torsions:
REMARK  status: ('A' for Active; 'I' for Inactive)
REMARK    1  A    between atoms: C_8  and  C_9
REMARK    2  A    between atoms: C_14  and  C_15
REMARK                            x       y       z     vdW  Elec       q    Type
REMARK                         _______ _______ _______ _____ _____    ______ ____
ROOT
ATOM      1  C   UNL     1       4.583   4.270  18.943  0.00  0.00    +0.000 A 
ATOM      2  N   UNL     1       5.466   4.599  19.889  0.00  0.00    +0.000 NA
ATOM      3  N   UNL     1       6.677   4.937  19.297  0.00  0.00    +0.000 NA
ATOM      4  C   UNL     1       6.479   4.817  18.020  0.00  0.00    +0.000 A 
ATOM      5  S   UNL     1       7.422   4.875  16.601  0.00  0.00    +0.000 S 
ATOM      6  C   UNL     1       5.942   4.390  15.732  0.00  0.00    +0.000 A 
ATOM      7  N   UNL     1       4.843   4.281  16.427  0.00  0.00    +0.000 NA
ATOM      8  N   UNL     1       5.203   4.473  17.728  0.00  0.00    +0.000 N 
ENDROOT
BRANCH   1  16
ATOM      9 CL   UNL     1       3.971   1.187  18.431  0.00  0.00    +0.000 Cl
ATOM     10  C   UNL     1       2.848   2.425  18.893  0.00  0.00    +0.000 A 
ATOM     11  C   UNL     1       1.531   1.979  19.084  0.00  0.00    +0.000 A 
ATOM     12  C   UNL     1       0.570   2.825  19.618  0.00  0.00    +0.000 A 
ATOM     13  C   UNL     1       0.921   4.126  19.956  0.00  0.00    +0.000 A 
ATOM     14  C   UNL     1       2.223   4.596  19.719  0.00  0.00    +0.000 A 
ATOM     15 CL   UNL     1       2.503   6.256  20.143  0.00  0.00    +0.000 Cl
ATOM     16  C   UNL     1       3.220   3.762  19.163  0.00  0.00    +0.000 A 
ENDBRANCH   1  16
BRANCH   6  17
ATOM     17  C   UNL     1       6.003   4.094  14.286  0.00  0.00    +0.000 A 
ATOM     18  C   UNL     1       7.144   4.450  13.562  0.00  0.00    +0.000 A 
ATOM     19  C   UNL     1       7.184   4.226  12.186  0.00  0.00    +0.000 A 
ATOM     20  C   UNL     1       6.074   3.662  11.579  0.00  0.00    +0.000 A 
ATOM     21  N   UNL     1       4.952   3.319  12.244  0.00  0.00    +0.000 NA
ATOM     22  C   UNL     1       4.936   3.549  13.581  0.00  0.00    +0.000 A 
ENDBRANCH   6  17
TORSDOF 2
ENDMDL
MODEL 4
REMARK VINA RESULT:      -7.5      0.819      2.257
REMARK  Name = 
REMARK  2 active torsions:
REMARK  status: ('A' for Active; 'I' for Inactive)
REMARK    1  A    between atoms: C_8  and  C_9
REMARK    2  A    between atoms: C_14  and  C_15
REMARK                            x       y       z     vdW  Elec       q    Type
REMARK                         _______ _______ _______ _____ _____    ______ ____
ROOT
ATOM      1  C   UNL     1       4.655   4.320  18.958  0.00  0.00    +0.000 A 
ATOM      2  N   UNL     1       5.569   4.625  19.882  0.00  0.00    +0.000 NA
ATOM      3  N   UNL     1       6.777   4.917  19.261  0.00  0.00    +0.000 NA
ATOM      4  C   UNL     1       6.548   4.794  17.991  0.00  0.00    +0.000 A 
ATOM      5  S   UNL     1       7.462   4.808  16.551  0.00  0.00    +0.000 S 
ATOM      6  C   UNL     1       5.947   4.367  15.718  0.00  0.00    +0.000 A 
ATOM      7  N   UNL     1       4.860   4.301  16.437  0.00  0.00    +0.000 NA
ATOM      8  N   UNL     1       5.255   4.492  17.729  0.00  0.00    +0.000 N 
ENDROOT
BRANCH   1  16
ATOM      9 CL   UNL     1       2.466   6.419  19.932  0.00  0.00    +0.000 Cl
ATOM     10  C   UNL     1       2.268   4.710  19.712  0.00  0.00    +0.000 A 
ATOM     11  C   UNL     1       0.974   4.233  19.972  0.00  0.00    +0.000 A 
ATOM     12  C   UNL     1       0.633   2.922  19.674  0.00  0.00    +0.000 A 
ATOM     13  C   UNL     1       1.588   2.079  19.120  0.00  0.00    +0.000 A 
ATOM     14  C   UNL     1       2.898   2.533  18.904  0.00  0.00    +0.000 A 
ATOM     15 CL   UNL     1       3.996   1.357  18.255  0.00  0.00    +0.000 Cl
ATOM     16  C   UNL     1       3.280   3.860  19.212  0.00  0.00    +0.000 A 
ENDBRANCH   1  16
BRANCH   6  17
ATOM     17  C   UNL     1       5.966   4.059  14.273  0.00  0.00    +0.000 A 
ATOM     18  C   UNL     1       7.122   4.322  13.532  0.00  0.00    +0.000 A 
ATOM     19  C   UNL     1       7.127   4.086  12.158  0.00  0.00    +0.000 A 
ATOM     20  C   UNL     1       5.970   3.604  11.569  0.00  0.00    +0.000 A 
ATOM     21  N   UNL     1       4.833   3.352  12.251  0.00  0.00    +0.000 NA
ATOM     22  C   UNL     1       4.852   3.592  13.587  0.00  0.00    +0.000 A 
ENDBRANCH   6  17
TORSDOF 2
ENDMDL
MODEL 5
REMARK VINA RESULT:      -7.2      1.067      1.368
REMARK  Name = 
REMARK  2 active torsions:
REMARK  status: ('A' for Active; 'I' for Inactive)
REMARK    1  A    between atoms: C_8  and  C_9
REMARK    2  A    between atoms: C_14  and  C_15
REMARK                            x       y       z     vdW  Elec       q    Type
REMARK                         _______ _______ _______ _____ _____    ______ ____
ROOT
ATOM      1  C   UNL     1       4.519   4.584  18.787  0.00  0.00    +0.000 A 
ATOM      2  N   UNL     1       5.190   5.114  19.813  0.00  0.00    +0.000 NA
ATOM      3  N   UNL     1       6.373   5.678  19.352  0.00  0.00    +0.000 NA
ATOM      4  C   UNL     1       6.369   5.482  18.070  0.00  0.00    +0.000 A 
ATOM      5  S   UNL     1       7.456   5.691  16.773  0.00  0.00    +0.000 S 
ATOM      6  C   UNL     1       6.227   4.886  15.761  0.00  0.00    +0.000 A 
ATOM      7  N   UNL     1       5.093   4.573  16.324  0.00  0.00    +0.000 NA
ATOM      8  N   UNL     1       5.237   4.874  17.646  0.00  0.00    +0.000 N 
ENDROOT
BRANCH   1  16
ATOM      9 CL   UNL     1       4.546   1.726  20.195  0.00  0.00    +0.000 Cl
ATOM     10  C   UNL     1       3.209   2.509  19.415  0.00  0.00    +0.000 A 
ATOM     11  C   UNL     1       2.006   1.787  19.451  0.00  0.00    +0.000 A 
ATOM     12  C   UNL     1       0.822   2.365  19.018  0.00  0.00    +0.000 A 
ATOM     13  C   UNL     1       0.837   3.669  18.538  0.00  0.00    +0.000 A 
ATOM     14  C   UNL     1       2.044   4.380  18.450  0.00  0.00    +0.000 A 
ATOM     15 CL   UNL     1       1.920   5.978  17.785  0.00  0.00    +0.000 Cl
ATOM     16  C   UNL     1       3.269   3.812  18.870  0.00  0.00    +0.000 A 
ENDBRANCH   1  16
BRANCH   6  17
ATOM     17  C   UNL     1       6.532   4.567  14.351  0.00  0.00    +0.000 A 
ATOM     18  C   UNL     1       7.532   5.284  13.687  0.00  0.00    +0.000 A 
ATOM     19  C   UNL     1       7.784   5.026  12.340  0.00  0.00    +0.000 A 
ATOM     20  C   UNL     1       7.019   4.067  11.699  0.00  0.00    +0.000 A 
ATOM     21  N   UNL     1       6.037   3.367  12.304  0.00  0.00    +0.000 NA
ATOM     22  C   UNL     1       5.809   3.637  13.614  0.00  0.00    +0.000 A 
ENDBRANCH   6  17
TORSDOF 2
ENDMDL
MODEL 6
REMARK VINA RESULT:      -6.6      3.922      6.748
REMARK  Name = 
REMARK  2 active torsions:
REMARK  status: ('A' for Active; 'I' for Inactive)
REMARK    1  A    between atoms: C_8  and  C_9
REMARK    2  A    between atoms: C_14  and  C_15
REMARK                            x       y       z     vdW  Elec       q    Type
REMARK                         _______ _______ _______ _____ _____    ______ ____
ROOT
ATOM      1  C   UNL     1       4.138   4.383  18.945  0.00  0.00    +0.000 A 
ATOM      2  N   UNL     1       3.965   3.421  19.854  0.00  0.00    +0.000 NA
ATOM      3  N   UNL     1       2.974   3.802  20.751  0.00  0.00    +0.000 NA
ATOM      4  C   UNL     1       2.575   4.967  20.345  0.00  0.00    +0.000 A 
ATOM      5  S   UNL     1       1.541   6.200  20.913  0.00  0.00    +0.000 S 
ATOM      6  C   UNL     1       2.099   7.156  19.514  0.00  0.00    +0.000 A 
ATOM      7  N   UNL     1       2.907   6.576  18.670  0.00  0.00    +0.000 NA
ATOM      8  N   UNL     1       3.198   5.358  19.209  0.00  0.00    +0.000 N 
ENDROOT
BRANCH   1  16
ATOM      9 CL   UNL     1       7.061   5.454  19.619  0.00  0.00    +0.000 Cl
ATOM     10  C   UNL     1       6.455   4.930  18.081  0.00  0.00    +0.000 A 
ATOM     11  C   UNL     1       7.395   4.965  17.039  0.00  0.00    +0.000 A 
ATOM     12  C   UNL     1       7.097   4.416  15.801  0.00  0.00    +0.000 A 
ATOM     13  C   UNL     1       5.852   3.834  15.596  0.00  0.00    +0.000 A 
ATOM     14  C   UNL     1       4.888   3.841  16.616  0.00  0.00    +0.000 A 
ATOM     15 CL   UNL     1       3.362   3.125  16.202  0.00  0.00    +0.000 Cl
ATOM     16  C   UNL     1       5.157   4.406  17.884  0.00  0.00    +0.000 A 
ENDBRANCH   1  16
BRANCH   6  17
ATOM     17  C   UNL     1       1.669   8.562  19.369  0.00  0.00    +0.000 A 
ATOM     18  C   UNL     1       1.990   9.259  18.200  0.00  0.00    +0.000 A 
ATOM     19  C   UNL     1       1.636  10.603  18.082  0.00  0.00    +0.000 A 
ATOM     20  C   UNL     1       0.982  11.207  19.142  0.00  0.00    +0.000 A 
ATOM     21  N   UNL     1       0.670  10.569  20.289  0.00  0.00    +0.000 NA
ATOM     22  C   UNL     1       1.026   9.263  20.382  0.00  0.00    +0.000 A 
ENDBRANCH   6  17
TORSDOF 2
ENDMDL
MODEL 7
REMARK VINA RESULT:      -6.6     10.326     11.532
REMARK  Name = 
REMARK  2 active torsions:
REMARK  status: ('A' for Active; 'I' for Inactive)
REMARK    1  A    between atoms: C_8  and  C_9
REMARK    2  A    between atoms: C_14  and  C_15
REMARK                            x       y       z     vdW  Elec       q    Type
REMARK                         _______ _______ _______ _____ _____    ______ ____
ROOT
ATOM      1  C   UNL     1      -0.697  11.948  19.837  0.00  0.00    +0.000 A 
ATOM      2  N   UNL     1      -0.156  11.414  20.935  0.00  0.00    +0.000 NA
ATOM      3  N   UNL     1       0.658  12.352  21.556  0.00  0.00    +0.000 NA
ATOM      4  C   UNL     1       0.570  13.419  20.824  0.00  0.00    +0.000 A 
ATOM      5  S   UNL     1       1.327  14.946  20.749  0.00  0.00    +0.000 S 
ATOM      6  C   UNL     1       0.381  15.215  19.260  0.00  0.00    +0.000 A 
ATOM      7  N   UNL     1      -0.471  14.291  18.912  0.00  0.00    +0.000 NA
ATOM      8  N   UNL     1      -0.290  13.265  19.791  0.00  0.00    +0.000 N 
ENDROOT
BRANCH   1  16
ATOM      9 CL   UNL     1       0.603   9.701  17.990  0.00  0.00    +0.000 Cl
ATOM     10  C   UNL     1      -1.028  10.293  17.949  0.00  0.00    +0.000 A 
ATOM     11  C   UNL     1      -1.853   9.667  17.001  0.00  0.00    +0.000 A 
ATOM     12  C   UNL     1      -3.216   9.921  16.976  0.00  0.00    +0.000 A 
ATOM     13  C   UNL     1      -3.760  10.808  17.896  0.00  0.00    +0.000 A 
ATOM     14  C   UNL     1      -2.935  11.477  18.814  0.00  0.00    +0.000 A 
ATOM     15 CL   UNL     1      -3.744  12.594  19.867  0.00  0.00    +0.000 Cl
ATOM     16  C   UNL     1      -1.539  11.251  18.853  0.00  0.00    +0.000 A 
ENDBRANCH   1  16
BRANCH   6  17
ATOM     17  C   UNL     1       0.607  16.435  18.458  0.00  0.00    +0.000 A 
ATOM     18  C   UNL     1      -0.493  17.144  17.965  0.00  0.00    +0.000 A 
ATOM     19  C   UNL     1      -0.285  18.263  17.160  0.00  0.00    +0.000 A 
ATOM     20  C   UNL     1       1.018  18.630  16.866  0.00  0.00    +0.000 A 
ATOM     21  N   UNL     1       2.101  17.961  17.314  0.00  0.00    +0.000 NA
ATOM     22  C   UNL     1       1.873  16.875  18.093  0.00  0.00    +0.000 A 
ENDBRANCH   6  17
TORSDOF 2
ENDMDL
MODEL 8
REMARK VINA RESULT:      -6.5      3.762      6.633
REMARK  Name = 
REMARK  2 active torsions:
REMARK  status: ('A' for Active; 'I' for Inactive)
REMARK    1  A    between atoms: C_8  and  C_9
REMARK    2  A    between atoms: C_14  and  C_15
REMARK                            x       y       z     vdW  Elec       q    Type
REMARK                         _______ _______ _______ _____ _____    ______ ____
ROOT
ATOM      1  C   UNL     1       4.275   4.157  18.862  0.00  0.00    +0.000 A 
ATOM      2  N   UNL     1       4.161   3.149  19.730  0.00  0.00    +0.000 NA
ATOM      3  N   UNL     1       3.181   3.452  20.667  0.00  0.00    +0.000 NA
ATOM      4  C   UNL     1       2.730   4.620  20.325  0.00  0.00    +0.000 A 
ATOM      5  S   UNL     1       1.669   5.787  20.975  0.00  0.00    +0.000 S 
ATOM      6  C   UNL     1       2.156   6.825  19.608  0.00  0.00    +0.000 A 
ATOM      7  N   UNL     1       2.962   6.313  18.719  0.00  0.00    +0.000 NA
ATOM      8  N   UNL     1       3.310   5.083  19.194  0.00  0.00    +0.000 N 
ENDROOT
BRANCH   1  16
ATOM      9 CL   UNL     1       3.444   3.311  15.906  0.00  0.00    +0.000 Cl
ATOM     10  C   UNL     1       5.000   3.845  16.455  0.00  0.00    +0.000 A 
ATOM     11  C   UNL     1       5.977   3.933  15.451  0.00  0.00    +0.000 A 
ATOM     12  C   UNL     1       7.212   4.506  15.716  0.00  0.00    +0.000 A 
ATOM     13  C   UNL     1       7.479   4.987  16.991  0.00  0.00    +0.000 A 
ATOM     14  C   UNL     1       6.527   4.857  18.014  0.00  0.00    +0.000 A 
ATOM     15 CL   UNL     1       7.017   5.457  19.567  0.00  0.00    +0.000 Cl
ATOM     16  C   UNL     1       5.265   4.264  17.779  0.00  0.00    +0.000 A 
ENDBRANCH   1  16
BRANCH   6  17
ATOM     17  C   UNL     1       1.673   8.220  19.538  0.00  0.00    +0.000 A 
ATOM     18  C   UNL     1       1.813   8.934  18.345  0.00  0.00    +0.000 A 
ATOM     19  C   UNL     1       1.411  10.268  18.290  0.00  0.00    +0.000 A 
ATOM     20  C   UNL     1       0.892  10.846  19.437  0.00  0.00    +0.000 A 
ATOM     21  N   UNL     1       0.756  10.191  20.608  0.00  0.00    +0.000 NA
ATOM     22  C   UNL     1       1.156   8.895  20.637  0.00  0.00    +0.000 A 
ENDBRANCH   6  17
TORSDOF 2
ENDMDL
MODEL 9
REMARK VINA RESULT:      -6.5      3.870      6.768
REMARK  Name = 
REMARK  2 active torsions:
REMARK  status: ('A' for Active; 'I' for Inactive)
REMARK    1  A    between atoms: C_8  and  C_9
REMARK    2  A    between atoms: C_14  and  C_15
REMARK                            x       y       z     vdW  Elec       q    Type
REMARK                         _______ _______ _______ _____ _____    ______ ____
ROOT
ATOM      1  C   UNL     1       4.112   4.374  18.946  0.00  0.00    +0.000 A 
ATOM      2  N   UNL     1       3.944   3.396  19.839  0.00  0.00    +0.000 NA
ATOM      3  N   UNL     1       2.960   3.761  20.749  0.00  0.00    +0.000 NA
ATOM      4  C   UNL     1       2.560   4.935  20.367  0.00  0.00    +0.000 A 
ATOM      5  S   UNL     1       1.533   6.158  20.964  0.00  0.00    +0.000 S 
ATOM      6  C   UNL     1       2.082   7.139  19.579  0.00  0.00    +0.000 A 
ATOM      7  N   UNL     1       2.884   6.573  18.720  0.00  0.00    +0.000 NA
ATOM      8  N   UNL     1       3.177   5.345  19.234  0.00  0.00    +0.000 N 
ENDROOT
BRANCH   1  16
ATOM      9 CL   UNL     1       7.029   5.468  19.610  0.00  0.00    +0.000 Cl
ATOM     10  C   UNL     1       6.419   4.949  18.071  0.00  0.00    +0.000 A 
ATOM     11  C   UNL     1       7.352   5.001  17.024  0.00  0.00    +0.000 A 
ATOM     12  C   UNL     1       7.051   4.457  15.783  0.00  0.00    +0.000 A 
ATOM     13  C   UNL     1       5.811   3.865  15.583  0.00  0.00    +0.000 A 
ATOM     14  C   UNL     1       4.853   3.855  16.609  0.00  0.00    +0.000 A 
ATOM     15 CL   UNL     1       3.331   3.128  16.199  0.00  0.00    +0.000 Cl
ATOM     16  C   UNL     1       5.125   4.414  17.879  0.00  0.00    +0.000 A 
ENDBRANCH   1  16
BRANCH   6  17
ATOM     17  C   UNL     1       1.654   8.549  19.462  0.00  0.00    +0.000 A 
ATOM     18  C   UNL     1       0.978   9.150  20.527  0.00  0.00    +0.000 A 
ATOM     19  C   UNL     1       0.522  10.461  20.400  0.00  0.00    +0.000 A 
ATOM     20  C   UNL     1       0.749  11.124  19.205  0.00  0.00    +0.000 A 
ATOM     21  N   UNL     1       1.385  10.570  18.152  0.00  0.00    +0.000 NA
ATOM     22  C   UNL     1       1.818   9.292  18.300  0.00  0.00    +0.000 A 
ENDBRANCH   6  17
TORSDOF 2
ENDMDL
