MODEL 1
REMARK VINA RESULT:      -8.4      0.000      0.000
REMARK  Name = 
REMARK  5 active torsions:
REMARK  status: ('A' for Active; 'I' for Inactive)
REMARK    1  A    between atoms: C_2  and  O_3
REMARK    2  A    between atoms: C_2  and  C_4
REMARK    3  A    between atoms: C_6  and  C_7
REMARK    4  A    between atoms: C_7  and  N_8
REMARK    5  A    between atoms: C_11  and  C_12
REMARK                            x       y       z     vdW  Elec       q    Type
REMARK                         _______ _______ _______ _____ _____    ______ ____
ROOT
ATOM      1  C   UNL     1       2.450   6.448  19.864  0.00  0.00    +0.000 A 
ATOM      2  C   UNL     1       3.704   6.438  19.378  0.00  0.00    +0.000 A 
ATOM      3  C   UNL     1       4.447   5.199  19.178  0.00  0.00    +0.000 A 
ATOM      4  C   UNL     1       3.751   4.033  19.137  0.00  0.00    +0.000 A 
ATOM      5  C   UNL     1       4.377   2.757  18.774  0.00  0.00    +0.000 A 
ATOM      6  C   UNL     1       3.649   1.642  18.630  0.00  0.00    +0.000 A 
ATOM      7  C   UNL     1       2.237   1.701  18.869  0.00  0.00    +0.000 A 
ATOM      8  C   UNL     1       1.670   2.831  19.299  0.00  0.00    +0.000 A 
ATOM      9  N   UNL     1       2.376   4.036  19.455  0.00  0.00    +0.000 N 
ATOM     10  C   UNL     1       1.726   5.160  19.959  0.00  0.00    +0.000 A 
ATOM     11  O   UNL     1       0.582   5.159  20.427  0.00  0.00    +0.000 OA
ENDROOT
BRANCH   1  13
ATOM     12  O   UNL     1       1.558   8.626  19.488  0.00  0.00    +0.000 OA
ATOM     13  C   UNL     1       1.861   7.743  20.279  0.00  0.00    +0.000 C 
BRANCH  13  14
ATOM     14  O   UNL     1       1.735   7.912  21.614  0.00  0.00    +0.000 OA
ATOM     15  H   UNL     1       2.385   8.543  22.008  0.00  0.00    +0.000 HD
ENDBRANCH  13  14
ENDBRANCH   1  13
BRANCH   3  16
ATOM     16  C   UNL     1       5.978   5.289  19.091  0.00  0.00    +0.000 C 
BRANCH  16  17
ATOM     17  N   UNL     1       6.580   5.628  17.787  0.00  0.00    +0.000 NA
ATOM     18  C   UNL     1       5.727   6.542  17.007  0.00  0.00    +0.000 C 
ATOM     19  C   UNL     1       4.865   5.674  16.104  0.00  0.00    +0.000 C 
ATOM     20  C   UNL     1       5.717   4.438  15.827  0.00  0.00    +0.000 C 
ATOM     21  C   UNL     1       6.823   4.477  16.894  0.00  0.00    +0.000 C 
BRANCH  20  22
ATOM     22  C   UNL     1       6.255   4.371  14.409  0.00  0.00    +0.000 A 
ATOM     23  C   UNL     1       5.679   3.544  13.433  0.00  0.00    +0.000 A 
ATOM     24  C   UNL     1       6.192   3.501  12.134  0.00  0.00    +0.000 A 
ATOM     25  C   UNL     1       7.289   4.288  11.792  0.00  0.00    +0.000 A 
ATOM     26  C   UNL     1       7.870   5.118  12.747  0.00  0.00    +0.000 A 
ATOM     27  C   UNL     1       7.359   5.159  14.046  0.00  0.00    +0.000 A 
ENDBRANCH  20  22
ENDBRANCH  16  17
ENDBRANCH   3  16
TORSDOF 5
ENDMDL
MODEL 2
REMARK VINA RESULT:      -8.2      2.981      7.875
REMARK  Name = 
REMARK  5 active torsions:
REMARK  status: ('A' for Active; 'I' for Inactive)
REMARK    1  A    between atoms: C_2  and  O_3
REMARK    2  A    between atoms: C_2  and  C_4
REMARK    3  A    between atoms: C_6  and  C_7
REMARK    4  A    between atoms: C_7  and  N_8
REMARK    5  A    between atoms: C_11  and  C_12
REMARK                            x       y       z     vdW  Elec       q    Type
REMARK                         _______ _______ _______ _____ _____    ______ ____
ROOT
ATOM      1  C   UNL     1       2.682   4.170  18.591  0.00  0.00    +0.000 A 
ATOM      2  C   UNL     1       2.340   5.380  18.113  0.00  0.00    +0.000 A 
ATOM      3  C   UNL     1       3.327   6.427  17.878  0.00  0.00    +0.000 A 
ATOM      4  C   UNL     1       4.635   6.069  17.795  0.00  0.00    +0.000 A 
ATOM      5  C   UNL     1       5.684   7.014  17.395  0.00  0.00    +0.000 A 
ATOM      6  C   UNL     1       6.948   6.612  17.212  0.00  0.00    +0.000 A 
ATOM      7  C   UNL     1       7.278   5.237  17.444  0.00  0.00    +0.000 A 
ATOM      8  C   UNL     1       6.355   4.388  17.907  0.00  0.00    +0.000 A 
ATOM      9  N   UNL     1       5.011   4.745  18.105  0.00  0.00    +0.000 N 
ATOM     10  C   UNL     1       4.120   3.818  18.641  0.00  0.00    +0.000 A 
ATOM     11  O   UNL     1       4.442   2.719  19.103  0.00  0.00    +0.000 OA
ENDROOT
BRANCH   1  13
ATOM     12  O   UNL     1       0.807   3.546  19.923  0.00  0.00    +0.000 OA
ATOM     13  C   UNL     1       1.607   3.257  19.044  0.00  0.00    +0.000 C 
BRANCH  13  14
ATOM     14  O   UNL     1       1.605   2.040  18.456  0.00  0.00    +0.000 OA
ATOM     15  H   UNL     1       0.743   1.787  18.044  0.00  0.00    +0.000 HD
ENDBRANCH  13  14
ENDBRANCH   1  13
BRANCH   3  16
ATOM     16  C   UNL     1       2.827   7.877  17.802  0.00  0.00    +0.000 C 
BRANCH  16  17
ATOM     17  N   UNL     1       1.550   8.207  18.466  0.00  0.00    +0.000 NA
ATOM     18  C   UNL     1       0.929   9.416  17.893  0.00  0.00    +0.000 C 
ATOM     19  C   UNL     1       1.389  10.590  18.744  0.00  0.00    +0.000 C 
ATOM     20  C   UNL     1       1.604  10.000  20.135  0.00  0.00    +0.000 C 
ATOM     21  C   UNL     1       1.653   8.480  19.913  0.00  0.00    +0.000 C 
BRANCH  20  22
ATOM     22  C   UNL     1       0.555  10.424  21.147  0.00  0.00    +0.000 A 
ATOM     23  C   UNL     1      -0.123  11.648  21.048  0.00  0.00    +0.000 A 
ATOM     24  C   UNL     1      -1.085  12.015  21.993  0.00  0.00    +0.000 A 
ATOM     25  C   UNL     1      -1.385  11.160  23.049  0.00  0.00    +0.000 A 
ATOM     26  C   UNL     1      -0.726   9.939  23.161  0.00  0.00    +0.000 A 
ATOM     27  C   UNL     1       0.238   9.573  22.218  0.00  0.00    +0.000 A 
ENDBRANCH  20  22
ENDBRANCH  16  17
ENDBRANCH   3  16
TORSDOF 5
ENDMDL
MODEL 3
REMARK VINA RESULT:      -8.2      3.479      8.360
REMARK  Name = 
REMARK  5 active torsions:
REMARK  status: ('A' for Active; 'I' for Inactive)
REMARK    1  A    between atoms: C_2  and  O_3
REMARK    2  A    between atoms: C_2  and  C_4
REMARK    3  A    between atoms: C_6  and  C_7
REMARK    4  A    between atoms: C_7  and  N_8
REMARK    5  A    between atoms: C_11  and  C_12
REMARK                            x       y       z     vdW  Elec       q    Type
REMARK                         _______ _______ _______ _____ _____    ______ ____
ROOT
ATOM      1  C   UNL     1       2.325   4.296  20.162  0.00  0.00    +0.000 A 
ATOM      2  C   UNL     1       1.930   5.578  20.071  0.00  0.00    +0.000 A 
ATOM      3  C   UNL     1       2.651   6.555  19.264  0.00  0.00    +0.000 A 
ATOM      4  C   UNL     1       3.508   6.097  18.316  0.00  0.00    +0.000 A 
ATOM      5  C   UNL     1       4.151   6.987  17.343  0.00  0.00    +0.000 A 
ATOM      6  C   UNL     1       4.903   6.500  16.346  0.00  0.00    +0.000 A 
ATOM      7  C   UNL     1       5.103   5.083  16.259  0.00  0.00    +0.000 A 
ATOM      8  C   UNL     1       4.608   4.271  17.197  0.00  0.00    +0.000 A 
ATOM      9  N   UNL     1       3.801   4.718  18.256  0.00  0.00    +0.000 N 
ATOM     10  C   UNL     1       3.366   3.816  19.225  0.00  0.00    +0.000 A 
ATOM     11  O   UNL     1       3.752   2.646  19.319  0.00  0.00    +0.000 OA
ENDROOT
BRANCH   1  13
ATOM     12  O   UNL     1       2.211   3.218  22.284  0.00  0.00    +0.000 OA
ATOM     13  C   UNL     1       1.702   3.434  21.193  0.00  0.00    +0.000 C 
BRANCH  13  14
ATOM     14  O   UNL     1       0.545   2.842  20.820  0.00  0.00    +0.000 OA
ATOM     15  H   UNL     1       0.492   2.619  19.860  0.00  0.00    +0.000 HD
ENDBRANCH  13  14
ENDBRANCH   1  13
BRANCH   3  16
ATOM     16  C   UNL     1       2.440   8.043  19.585  0.00  0.00    +0.000 C 
BRANCH  16  17
ATOM     17  N   UNL     1       1.055   8.538  19.703  0.00  0.00    +0.000 NA
ATOM     18  C   UNL     1       0.781   9.637  18.759  0.00  0.00    +0.000 C 
ATOM     19  C   UNL     1       1.046  10.934  19.508  0.00  0.00    +0.000 C 
ATOM     20  C   UNL     1       0.726  10.612  20.965  0.00  0.00    +0.000 C 
ATOM     21  C   UNL     1       0.696   9.077  21.030  0.00  0.00    +0.000 C 
BRANCH  20  22
ATOM     22  C   UNL     1      -0.553  11.258  21.468  0.00  0.00    +0.000 A 
ATOM     23  C   UNL     1      -0.969  11.143  22.803  0.00  0.00    +0.000 A 
ATOM     24  C   UNL     1      -2.150  11.748  23.241  0.00  0.00    +0.000 A 
ATOM     25  C   UNL     1      -2.929  12.481  22.351  0.00  0.00    +0.000 A 
ATOM     26  C   UNL     1      -2.529  12.610  21.024  0.00  0.00    +0.000 A 
ATOM     27  C   UNL     1      -1.350  12.003  20.584  0.00  0.00    +0.000 A 
ENDBRANCH  20  22
ENDBRANCH  16  17
ENDBRANCH   3  16
TORSDOF 5
ENDMDL
MODEL 4
REMARK VINA RESULT:      -8.1      3.272      8.081
REMARK  Name = 
REMARK  5 active torsions:
REMARK  status: ('A' for Active; 'I' for Inactive)
REMARK    1  A    between atoms: C_2  and  O_3
REMARK    2  A    between atoms: C_2  and  C_4
REMARK    3  A    between atoms: C_6  and  C_7
REMARK    4  A    between atoms: C_7  and  N_8
REMARK    5  A    between atoms: C_11  and  C_12
REMARK                            x       y       z     vdW  Elec       q    Type
REMARK                         _______ _______ _______ _____ _____    ______ ____
ROOT
ATOM      1  C   UNL     1       2.510   4.515  19.807  0.00  0.00    +0.000 A 
ATOM      2  C   UNL     1       2.063   5.719  19.410  0.00  0.00    +0.000 A 
ATOM      3  C   UNL     1       2.824   6.565  18.498  0.00  0.00    +0.000 A 
ATOM      4  C   UNL     1       3.810   5.990  17.762  0.00  0.00    +0.000 A 
ATOM      5  C   UNL     1       4.518   6.711  16.698  0.00  0.00    +0.000 A 
ATOM      6  C   UNL     1       5.407   6.091  15.911  0.00  0.00    +0.000 A 
ATOM      7  C   UNL     1       5.688   4.705  16.142  0.00  0.00    +0.000 A 
ATOM      8  C   UNL     1       5.128   4.063  17.171  0.00  0.00    +0.000 A 
ATOM      9  N   UNL     1       4.178   4.653  18.022  0.00  0.00    +0.000 N 
ATOM     10  C   UNL     1       3.678   3.935  19.106  0.00  0.00    +0.000 A 
ATOM     11  O   UNL     1       4.109   2.840  19.482  0.00  0.00    +0.000 OA
ENDROOT
BRANCH   1  13
ATOM     12  O   UNL     1       2.321   3.657  22.023  0.00  0.00    +0.000 OA
ATOM     13  C   UNL     1       1.814   3.833  20.924  0.00  0.00    +0.000 C 
BRANCH  13  14
ATOM     14  O   UNL     1       0.584   3.357  20.625  0.00  0.00    +0.000 OA
ATOM     15  H   UNL     1       0.512   2.947  19.730  0.00  0.00    +0.000 HD
ENDBRANCH  13  14
ENDBRANCH   1  13
BRANCH   3  16
ATOM     16  C   UNL     1       2.500   8.067  18.477  0.00  0.00    +0.000 C 
BRANCH  16  17
ATOM     17  N   UNL     1       1.170   8.497  18.950  0.00  0.00    +0.000 NA
ATOM     18  C   UNL     1       0.628   9.600  18.136  0.00  0.00    +0.000 C 
ATOM     19  C   UNL     1       1.020  10.894  18.834  0.00  0.00    +0.000 C 
ATOM     20  C   UNL     1       1.086  10.530  20.314  0.00  0.00    +0.000 C 
ATOM     21  C   UNL     1       1.133   8.994  20.340  0.00  0.00    +0.000 C 
BRANCH  20  22
ATOM     22  C   UNL     1      -0.050  11.108  21.138  0.00  0.00    +0.000 A 
ATOM     23  C   UNL     1      -0.827  12.185  20.682  0.00  0.00    +0.000 A 
ATOM     24  C   UNL     1      -1.868  12.698  21.459  0.00  0.00    +0.000 A 
ATOM     25  C   UNL     1      -2.151  12.139  22.702  0.00  0.00    +0.000 A 
ATOM     26  C   UNL     1      -1.395  11.067  23.168  0.00  0.00    +0.000 A 
ATOM     27  C   UNL     1      -0.351  10.555  22.393  0.00  0.00    +0.000 A 
ENDBRANCH  20  22
ENDBRANCH  16  17
ENDBRANCH   3  16
TORSDOF 5
ENDMDL
MODEL 5
REMARK VINA RESULT:      -8.0      3.929      7.239
REMARK  Name = 
REMARK  5 active torsions:
REMARK  status: ('A' for Active; 'I' for Inactive)
REMARK    1  A    between atoms: C_2  and  O_3
REMARK    2  A    between atoms: C_2  and  C_4
REMARK    3  A    between atoms: C_6  and  C_7
REMARK    4  A    between atoms: C_7  and  N_8
REMARK    5  A    between atoms: C_11  and  C_12
REMARK                            x       y       z     vdW  Elec       q    Type
REMARK                         _______ _______ _______ _____ _____    ______ ____
ROOT
ATOM      1  C   UNL     1       5.040   5.635  16.987  0.00  0.00    +0.000 A 
ATOM      2  C   UNL     1       4.172   6.423  17.646  0.00  0.00    +0.000 A 
ATOM      3  C   UNL     1       2.867   5.940  18.084  0.00  0.00    +0.000 A 
ATOM      4  C   UNL     1       2.670   4.598  18.152  0.00  0.00    +0.000 A 
ATOM      5  C   UNL     1       1.459   4.011  18.738  0.00  0.00    +0.000 A 
ATOM      6  C   UNL     1       1.336   2.687  18.897  0.00  0.00    +0.000 A 
ATOM      7  C   UNL     1       2.399   1.834  18.453  0.00  0.00    +0.000 A 
ATOM      8  C   UNL     1       3.460   2.347  17.825  0.00  0.00    +0.000 A 
ATOM      9  N   UNL     1       3.655   3.726  17.642  0.00  0.00    +0.000 N 
ATOM     10  C   UNL     1       4.763   4.182  16.930  0.00  0.00    +0.000 A 
ATOM     11  O   UNL     1       5.543   3.456  16.305  0.00  0.00    +0.000 OA
ENDROOT
BRANCH   1  13
ATOM     12  O   UNL     1       6.917   7.102  16.909  0.00  0.00    +0.000 OA
ATOM     13  C   UNL     1       6.224   6.261  16.353  0.00  0.00    +0.000 C 
BRANCH  13  14
ATOM     14  O   UNL     1       6.457   5.880  15.077  0.00  0.00    +0.000 OA
ATOM     15  H   UNL     1       5.873   5.152  14.755  0.00  0.00    +0.000 HD
ENDBRANCH  13  14
ENDBRANCH   1  13
BRANCH   3  16
ATOM     16  C   UNL     1       1.781   6.985  18.380  0.00  0.00    +0.000 C 
BRANCH  16  17
ATOM     17  N   UNL     1       2.208   8.325  18.826  0.00  0.00    +0.000 NA
ATOM     18  C   UNL     1       1.596   8.699  20.114  0.00  0.00    +0.000 C 
ATOM     19  C   UNL     1       0.333   9.482  19.787  0.00  0.00    +0.000 C 
ATOM     20  C   UNL     1       0.636  10.167  18.458  0.00  0.00    +0.000 C 
ATOM     21  C   UNL     1       1.865   9.427  17.905  0.00  0.00    +0.000 C 
BRANCH  20  22
ATOM     22  C   UNL     1       0.842  11.667  18.575  0.00  0.00    +0.000 A 
ATOM     23  C   UNL     1      -0.223  12.547  18.823  0.00  0.00    +0.000 A 
ATOM     24  C   UNL     1      -0.006  13.923  18.928  0.00  0.00    +0.000 A 
ATOM     25  C   UNL     1       1.280  14.439  18.790  0.00  0.00    +0.000 A 
ATOM     26  C   UNL     1       2.348  13.580  18.549  0.00  0.00    +0.000 A 
ATOM     27  C   UNL     1       2.132  12.203  18.441  0.00  0.00    +0.000 A 
ENDBRANCH  20  22
ENDBRANCH  16  17
ENDBRANCH   3  16
TORSDOF 5
ENDMDL
MODEL 6
REMARK VINA RESULT:      -8.0      3.827      8.283
REMARK  Name = 
REMARK  5 active torsions:
REMARK  status: ('A' for Active; 'I' for Inactive)
REMARK    1  A    between atoms: C_2  and  O_3
REMARK    2  A    between atoms: C_2  and  C_4
REMARK    3  A    between atoms: C_6  and  C_7
REMARK    4  A    between atoms: C_7  and  N_8
REMARK    5  A    between atoms: C_11  and  C_12
REMARK                            x       y       z     vdW  Elec       q    Type
REMARK                         _______ _______ _______ _____ _____    ______ ____
ROOT
ATOM      1  C   UNL     1       4.562   6.076  17.343  0.00  0.00    +0.000 A 
ATOM      2  C   UNL     1       3.744   7.001  17.875  0.00  0.00    +0.000 A 
ATOM      3  C   UNL     1       2.658   6.644  18.781  0.00  0.00    +0.000 A 
ATOM      4  C   UNL     1       2.694   5.425  19.377  0.00  0.00    +0.000 A 
ATOM      5  C   UNL     1       1.747   5.036  20.428  0.00  0.00    +0.000 A 
ATOM      6  C   UNL     1       1.871   3.872  21.080  0.00  0.00    +0.000 A 
ATOM      7  C   UNL     1       2.934   2.983  20.713  0.00  0.00    +0.000 A 
ATOM      8  C   UNL     1       3.740   3.278  19.690  0.00  0.00    +0.000 A 
ATOM      9  N   UNL     1       3.670   4.487  18.977  0.00  0.00    +0.000 N 
ATOM     10  C   UNL     1       4.512   4.700  17.888  0.00  0.00    +0.000 A 
ATOM     11  O   UNL     1       5.243   3.839  17.387  0.00  0.00    +0.000 OA
ENDROOT
BRANCH   1  13
ATOM     12  O   UNL     1       5.069   6.938  15.180  0.00  0.00    +0.000 OA
ATOM     13  C   UNL     1       5.467   6.480  16.242  0.00  0.00    +0.000 C 
BRANCH  13  14
ATOM     14  O   UNL     1       6.780   6.248  16.467  0.00  0.00    +0.000 OA
ATOM     15  H   UNL     1       7.053   5.305  16.353  0.00  0.00    +0.000 HD
ENDBRANCH  13  14
ENDBRANCH   1  13
BRANCH   3  16
ATOM     16  C   UNL     1       1.510   7.651  18.952  0.00  0.00    +0.000 C 
BRANCH  16  17
ATOM     17  N   UNL     1       1.683   8.742  19.931  0.00  0.00    +0.000 NA
ATOM     18  C   UNL     1       1.224   8.351  21.277  0.00  0.00    +0.000 C 
ATOM     19  C   UNL     1      -0.222   8.807  21.396  0.00  0.00    +0.000 C 
ATOM     20  C   UNL     1      -0.314  10.041  20.502  0.00  0.00    +0.000 C 
ATOM     21  C   UNL     1       0.943   9.981  19.620  0.00  0.00    +0.000 C 
BRANCH  20  22
ATOM     22  C   UNL     1      -0.446  11.344  21.270  0.00  0.00    +0.000 A 
ATOM     23  C   UNL     1      -1.206  11.441  22.446  0.00  0.00    +0.000 A 
ATOM     24  C   UNL     1      -1.311  12.652  23.135  0.00  0.00    +0.000 A 
ATOM     25  C   UNL     1      -0.652  13.783  22.659  0.00  0.00    +0.000 A 
ATOM     26  C   UNL     1       0.110  13.704  21.498  0.00  0.00    +0.000 A 
ATOM     27  C   UNL     1       0.213  12.494  20.806  0.00  0.00    +0.000 A 
ENDBRANCH  20  22
ENDBRANCH  16  17
ENDBRANCH   3  16
TORSDOF 5
ENDMDL
MODEL 7
REMARK VINA RESULT:      -7.9      3.279      8.059
REMARK  Name = 
REMARK  5 active torsions:
REMARK  status: ('A' for Active; 'I' for Inactive)
REMARK    1  A    between atoms: C_2  and  O_3
REMARK    2  A    between atoms: C_2  and  C_4
REMARK    3  A    between atoms: C_6  and  C_7
REMARK    4  A    between atoms: C_7  and  N_8
REMARK    5  A    between atoms: C_11  and  C_12
REMARK                            x       y       z     vdW  Elec       q    Type
REMARK                         _______ _______ _______ _____ _____    ______ ____
ROOT
ATOM      1  C   UNL     1       1.967   3.941  18.594  0.00  0.00    +0.000 A 
ATOM      2  C   UNL     1       1.759   5.268  18.662  0.00  0.00    +0.000 A 
ATOM      3  C   UNL     1       2.766   6.233  18.237  0.00  0.00    +0.000 A 
ATOM      4  C   UNL     1       3.771   5.798  17.434  0.00  0.00    +0.000 A 
ATOM      5  C   UNL     1       4.735   6.716  16.816  0.00  0.00    +0.000 A 
ATOM      6  C   UNL     1       5.648   6.278  15.939  0.00  0.00    +0.000 A 
ATOM      7  C   UNL     1       5.697   4.880  15.631  0.00  0.00    +0.000 A 
ATOM      8  C   UNL     1       4.894   4.019  16.263  0.00  0.00    +0.000 A 
ATOM      9  N   UNL     1       3.908   4.417  17.180  0.00  0.00    +0.000 N 
ATOM     10  C   UNL     1       3.145   3.455  17.839  0.00  0.00    +0.000 A 
ATOM     11  O   UNL     1       3.356   2.239  17.793  0.00  0.00    +0.000 OA
ENDROOT
BRANCH   1  13
ATOM     12  O   UNL     1       0.904   2.971  20.494  0.00  0.00    +0.000 OA
ATOM     13  C   UNL     1       1.012   3.037  19.277  0.00  0.00    +0.000 C 
BRANCH  13  14
ATOM     14  O   UNL     1       0.300   2.233  18.457  0.00  0.00    +0.000 OA
ATOM     15  H   UNL     1       0.694   2.113  17.559  0.00  0.00    +0.000 HD
ENDBRANCH  13  14
ENDBRANCH   1  13
BRANCH   3  16
ATOM     16  C   UNL     1       2.657   7.666  18.778  0.00  0.00    +0.000 C 
BRANCH  16  17
ATOM     17  N   UNL     1       1.308   8.232  18.978  0.00  0.00    +0.000 NA
ATOM     18  C   UNL     1       1.048   9.365  18.072  0.00  0.00    +0.000 C 
ATOM     19  C   UNL     1       1.421  10.629  18.831  0.00  0.00    +0.000 C 
ATOM     20  C   UNL     1       1.159  10.292  20.296  0.00  0.00    +0.000 C 
ATOM     21  C   UNL     1       1.048   8.759  20.333  0.00  0.00    +0.000 C 
BRANCH  20  22
ATOM     22  C   UNL     1      -0.055  10.994  20.878  0.00  0.00    +0.000 A 
ATOM     23  C   UNL     1      -0.345  10.965  22.251  0.00  0.00    +0.000 A 
ATOM     24  C   UNL     1      -1.468  11.621  22.761  0.00  0.00    +0.000 A 
ATOM     25  C   UNL     1      -2.317  12.319  21.906  0.00  0.00    +0.000 A 
ATOM     26  C   UNL     1      -2.042  12.362  20.542  0.00  0.00    +0.000 A 
ATOM     27  C   UNL     1      -0.920  11.704  20.030  0.00  0.00    +0.000 A 
ENDBRANCH  20  22
ENDBRANCH  16  17
ENDBRANCH   3  16
TORSDOF 5
ENDMDL
MODEL 8
REMARK VINA RESULT:      -7.9      3.812      8.366
REMARK  Name = 
REMARK  5 active torsions:
REMARK  status: ('A' for Active; 'I' for Inactive)
REMARK    1  A    between atoms: C_2  and  O_3
REMARK    2  A    between atoms: C_2  and  C_4
REMARK    3  A    between atoms: C_6  and  C_7
REMARK    4  A    between atoms: C_7  and  N_8
REMARK    5  A    between atoms: C_11  and  C_12
REMARK                            x       y       z     vdW  Elec       q    Type
REMARK                         _______ _______ _______ _____ _____    ______ ____
ROOT
ATOM      1  C   UNL     1       4.602   6.165  17.476  0.00  0.00    +0.000 A 
ATOM      2  C   UNL     1       3.766   7.071  18.011  0.00  0.00    +0.000 A 
ATOM      3  C   UNL     1       2.603   6.682  18.800  0.00  0.00    +0.000 A 
ATOM      4  C   UNL     1       2.562   5.421  19.302  0.00  0.00    +0.000 A 
ATOM      5  C   UNL     1       1.525   4.984  20.244  0.00  0.00    +0.000 A 
ATOM      6  C   UNL     1       1.569   3.772  20.813  0.00  0.00    +0.000 A 
ATOM      7  C   UNL     1       2.636   2.881  20.464  0.00  0.00    +0.000 A 
ATOM      8  C   UNL     1       3.529   3.227  19.532  0.00  0.00    +0.000 A 
ATOM      9  N   UNL     1       3.545   4.487  18.910  0.00  0.00    +0.000 N 
ATOM     10  C   UNL     1       4.475   4.754  17.909  0.00  0.00    +0.000 A 
ATOM     11  O   UNL     1       5.224   3.912  17.402  0.00  0.00    +0.000 OA
ENDROOT
BRANCH   1  13
ATOM     12  O   UNL     1       6.544   7.349  16.764  0.00  0.00    +0.000 OA
ATOM     13  C   UNL     1       5.601   6.622  16.482  0.00  0.00    +0.000 C 
BRANCH  13  14
ATOM     14  O   UNL     1       5.366   6.226  15.211  0.00  0.00    +0.000 OA
ATOM     15  H   UNL     1       5.250   6.967  14.568  0.00  0.00    +0.000 HD
ENDBRANCH  13  14
ENDBRANCH   1  13
BRANCH   3  16
ATOM     16  C   UNL     1       1.469   7.706  18.956  0.00  0.00    +0.000 C 
BRANCH  16  17
ATOM     17  N   UNL     1       1.669   8.825  19.898  0.00  0.00    +0.000 NA
ATOM     18  C   UNL     1       1.385   8.431  21.290  0.00  0.00    +0.000 C 
ATOM     19  C   UNL     1      -0.069   8.790  21.559  0.00  0.00    +0.000 C 
ATOM     20  C   UNL     1      -0.341   9.997  20.665  0.00  0.00    +0.000 C 
ATOM     21  C   UNL     1       0.816  10.006  19.653  0.00  0.00    +0.000 C 
BRANCH  20  22
ATOM     22  C   UNL     1      -0.480  11.303  21.427  0.00  0.00    +0.000 A 
ATOM     23  C   UNL     1       0.279  12.439  21.102  0.00  0.00    +0.000 A 
ATOM     24  C   UNL     1       0.131  13.629  21.818  0.00  0.00    +0.000 A 
ATOM     25  C   UNL     1      -0.781  13.703  22.868  0.00  0.00    +0.000 A 
ATOM     26  C   UNL     1      -1.545  12.588  23.200  0.00  0.00    +0.000 A 
ATOM     27  C   UNL     1      -1.396  11.396  22.486  0.00  0.00    +0.000 A 
ENDBRANCH  20  22
ENDBRANCH  16  17
ENDBRANCH   3  16
TORSDOF 5
ENDMDL
MODEL 9
REMARK VINA RESULT:      -7.9      3.487      7.901
REMARK  Name = 
REMARK  5 active torsions:
REMARK  status: ('A' for Active; 'I' for Inactive)
REMARK    1  A    between atoms: C_2  and  O_3
REMARK    2  A    between atoms: C_2  and  C_4
REMARK    3  A    between atoms: C_6  and  C_7
REMARK    4  A    between atoms: C_7  and  N_8
REMARK    5  A    between atoms: C_11  and  C_12
REMARK                            x       y       z     vdW  Elec       q    Type
REMARK                         _______ _______ _______ _____ _____    ______ ____
ROOT
ATOM      1  C   UNL     1       2.489   4.124  20.103  0.00  0.00    +0.000 A 
ATOM      2  C   UNL     1       2.087   5.400  19.967  0.00  0.00    +0.000 A 
ATOM      3  C   UNL     1       2.803   6.353  19.127  0.00  0.00    +0.000 A 
ATOM      4  C   UNL     1       3.662   5.866  18.195  0.00  0.00    +0.000 A 
ATOM      5  C   UNL     1       4.300   6.724  17.191  0.00  0.00    +0.000 A 
ATOM      6  C   UNL     1       5.055   6.207  16.212  0.00  0.00    +0.000 A 
ATOM      7  C   UNL     1       5.262   4.790  16.174  0.00  0.00    +0.000 A 
ATOM      8  C   UNL     1       4.772   4.007  17.140  0.00  0.00    +0.000 A 
ATOM      9  N   UNL     1       3.962   4.487  18.183  0.00  0.00    +0.000 N 
ATOM     10  C   UNL     1       3.532   3.618  19.183  0.00  0.00    +0.000 A 
ATOM     11  O   UNL     1       3.924   2.454  19.318  0.00  0.00    +0.000 OA
ENDROOT
BRANCH   1  13
ATOM     12  O   UNL     1       2.462   2.953  22.179  0.00  0.00    +0.000 OA
ATOM     13  C   UNL     1       1.871   3.295  21.163  0.00  0.00    +0.000 C 
BRANCH  13  14
ATOM     14  O   UNL     1       0.609   2.882  20.904  0.00  0.00    +0.000 OA
ATOM     15  H   UNL     1      -0.039   3.076  21.623  0.00  0.00    +0.000 HD
ENDBRANCH  13  14
ENDBRANCH   1  13
BRANCH   3  16
ATOM     16  C   UNL     1       2.583   7.849  19.396  0.00  0.00    +0.000 C 
BRANCH  16  17
ATOM     17  N   UNL     1       1.256   8.421  19.099  0.00  0.00    +0.000 NA
ATOM     18  C   UNL     1       1.309   9.389  17.988  0.00  0.00    +0.000 C 
ATOM     19  C   UNL     1       1.487  10.764  18.613  0.00  0.00    +0.000 C 
ATOM     20  C   UNL     1       0.799  10.664  19.971  0.00  0.00    +0.000 C 
ATOM     21  C   UNL     1       0.630   9.156  20.216  0.00  0.00    +0.000 C 
BRANCH  20  22
ATOM     22  C   UNL     1      -0.507  11.434  20.053  0.00  0.00    +0.000 A 
ATOM     23  C   UNL     1      -1.537  11.254  19.116  0.00  0.00    +0.000 A 
ATOM     24  C   UNL     1      -2.730  11.974  19.214  0.00  0.00    +0.000 A 
ATOM     25  C   UNL     1      -2.913  12.883  20.253  0.00  0.00    +0.000 A 
ATOM     26  C   UNL     1      -1.904  13.070  21.194  0.00  0.00    +0.000 A 
ATOM     27  C   UNL     1      -0.709  12.353  21.095  0.00  0.00    +0.000 A 
ENDBRANCH  20  22
ENDBRANCH  16  17
ENDBRANCH   3  16
TORSDOF 5
ENDMDL
