MODEL 1
REMARK VINA RESULT:      -8.8      0.000      0.000
REMARK  Name = 
REMARK  6 active torsions:
REMARK  status: ('A' for Active; 'I' for Inactive)
REMARK    1  A    between atoms: C_1  and  C_2
REMARK    2  A    between atoms: C_9  and  N_10
REMARK    3  A    between atoms: C_11  and  C_13
REMARK    4  A    between atoms: C_17  and  O_18
REMARK    5  A    between atoms: O_18  and  C_19
REMARK    6  A    between atoms: C_19  and  C_20
REMARK                            x       y       z     vdW  Elec       q    Type
REMARK                         _______ _______ _______ _____ _____    ______ ____
ROOT
ATOM      1  N   UNL     1       8.861  10.695  17.616  0.00  0.00    +0.000 N 
ATOM      2  C   UNL     1       8.842   9.777  18.655  0.00  0.00    +0.000 C 
ATOM      3  O   UNL     1       9.302   9.938  19.782  0.00  0.00    +0.000 OA
ATOM      4  H   UNL     1       8.474  10.391  16.729  0.00  0.00    +0.000 HD
ENDROOT
BRANCH   1  13
ATOM      5  C   UNL     1      12.333  16.399  17.721  0.00  0.00    +0.000 C 
ATOM      6  C   UNL     1      10.881  16.058  17.860  0.00  0.00    +0.000 A 
ATOM      7  C   UNL     1       9.964  17.018  18.061  0.00  0.00    +0.000 A 
ATOM      8  C   UNL     1       8.525  16.755  18.213  0.00  0.00    +0.000 A 
ATOM      9  O   UNL     1       7.732  17.674  18.380  0.00  0.00    +0.000 OA
ATOM     10  O   UNL     1       8.132  15.435  18.160  0.00  0.00    +0.000 OA
ATOM     11  C   UNL     1       9.067  14.407  17.947  0.00  0.00    +0.000 A 
ATOM     12  C   UNL     1       8.533  13.120  17.902  0.00  0.00    +0.000 A 
ATOM     13  C   UNL     1       9.356  12.019  17.686  0.00  0.00    +0.000 A 
ATOM     14  C   UNL     1      10.728  12.248  17.517  0.00  0.00    +0.000 A 
ATOM     15  C   UNL     1      11.258  13.555  17.568  0.00  0.00    +0.000 A 
ATOM     16  C   UNL     1      10.426  14.660  17.788  0.00  0.00    +0.000 A 
ENDBRANCH   1  13
BRANCH   2  17
ATOM     17  C   UNL     1       8.167   8.483  18.316  0.00  0.00    +0.000 A 
ATOM     18  C   UNL     1       8.469   7.409  19.062  0.00  0.00    +0.000 A 
ATOM     19  C   UNL     1       7.787   6.127  18.800  0.00  0.00    +0.000 A 
ATOM     20  O   UNL     1       8.079   5.131  19.448  0.00  0.00    +0.000 OA
ATOM     21  C   UNL     1       6.744   6.136  17.731  0.00  0.00    +0.000 A 
ATOM     22  C   UNL     1       6.574   7.281  17.054  0.00  0.00    +0.000 A 
ATOM     23  O   UNL     1       7.248   8.456  17.281  0.00  0.00    +0.000 OA
BRANCH  21  24
ATOM     24  O   UNL     1       5.983   5.035  17.389  0.00  0.00    +0.000 OA
BRANCH  24  25
ATOM     25  C   UNL     1       4.744   5.299  16.726  0.00  0.00    +0.000 C 
BRANCH  25  26
ATOM     26  C   UNL     1       3.718   4.379  17.342  0.00  0.00    +0.000 A 
ATOM     27  C   UNL     1       3.908   2.990  17.344  0.00  0.00    +0.000 A 
ATOM     28  C   UNL     1       2.927   2.143  17.861  0.00  0.00    +0.000 A 
ATOM     29  C   UNL     1       1.746   2.673  18.380  0.00  0.00    +0.000 A 
ATOM     30  C   UNL     1       1.545   4.052  18.381  0.00  0.00    +0.000 A 
ATOM     31  C   UNL     1       2.524   4.901  17.863  0.00  0.00    +0.000 A 
ENDBRANCH  25  26
ENDBRANCH  24  25
ENDBRANCH  21  24
ENDBRANCH   2  17
TORSDOF 5
ENDMDL
MODEL 2
REMARK VINA RESULT:      -8.5      6.878      8.623
REMARK  Name = 
REMARK  6 active torsions:
REMARK  status: ('A' for Active; 'I' for Inactive)
REMARK    1  A    between atoms: C_1  and  C_2
REMARK    2  A    between atoms: C_9  and  N_10
REMARK    3  A    between atoms: C_11  and  C_13
REMARK    4  A    between atoms: C_17  and  O_18
REMARK    5  A    between atoms: O_18  and  C_19
REMARK    6  A    between atoms: C_19  and  C_20
REMARK                            x       y       z     vdW  Elec       q    Type
REMARK                         _______ _______ _______ _____ _____    ______ ____
ROOT
ATOM      1  N   UNL     1       1.860   8.863  18.979  0.00  0.00    +0.000 N 
ATOM      2  C   UNL     1       2.159   7.644  19.566  0.00  0.00    +0.000 C 
ATOM      3  O   UNL     1       1.623   7.158  20.558  0.00  0.00    +0.000 OA
ATOM      4  H   UNL     1       2.426   9.141  18.184  0.00  0.00    +0.000 HD
ENDROOT
BRANCH   1  13
ATOM      5  C   UNL     1      -3.592  12.635  19.792  0.00  0.00    +0.000 C 
ATOM      6  C   UNL     1      -2.348  12.410  20.597  0.00  0.00    +0.000 A 
ATOM      7  C   UNL     1      -2.156  13.051  21.760  0.00  0.00    +0.000 A 
ATOM      8  C   UNL     1      -0.958  12.884  22.597  0.00  0.00    +0.000 A 
ATOM      9  O   UNL     1      -0.843  13.486  23.658  0.00  0.00    +0.000 OA
ATOM     10  O   UNL     1       0.011  12.026  22.121  0.00  0.00    +0.000 OA
ATOM     11  C   UNL     1      -0.163  11.337  20.908  0.00  0.00    +0.000 A 
ATOM     12  C   UNL     1       0.887  10.492  20.551  0.00  0.00    +0.000 A 
ATOM     13  C   UNL     1       0.828   9.746  19.378  0.00  0.00    +0.000 A 
ATOM     14  C   UNL     1      -0.314   9.873  18.575  0.00  0.00    +0.000 A 
ATOM     15  C   UNL     1      -1.369  10.734  18.945  0.00  0.00    +0.000 A 
ATOM     16  C   UNL     1      -1.305  11.485  20.126  0.00  0.00    +0.000 A 
ENDBRANCH   1  13
BRANCH   2  17
ATOM     17  C   UNL     1       3.243   6.879  18.868  0.00  0.00    +0.000 A 
ATOM     18  C   UNL     1       3.685   5.754  19.451  0.00  0.00    +0.000 A 
ATOM     19  C   UNL     1       4.711   4.939  18.773  0.00  0.00    +0.000 A 
ATOM     20  O   UNL     1       5.149   3.930  19.310  0.00  0.00    +0.000 OA
ATOM     21  C   UNL     1       5.153   5.412  17.427  0.00  0.00    +0.000 A 
ATOM     22  C   UNL     1       4.639   6.571  16.989  0.00  0.00    +0.000 A 
ATOM     23  O   UNL     1       3.715   7.342  17.652  0.00  0.00    +0.000 OA
BRANCH  21  24
ATOM     24  O   UNL     1       6.072   4.746  16.640  0.00  0.00    +0.000 OA
BRANCH  24  25
ATOM     25  C   UNL     1       5.548   3.769  15.739  0.00  0.00    +0.000 C 
BRANCH  25  26
ATOM     26  C   UNL     1       6.217   4.004  14.406  0.00  0.00    +0.000 A 
ATOM     27  C   UNL     1       7.231   4.962  14.272  0.00  0.00    +0.000 A 
ATOM     28  C   UNL     1       7.803   5.216  13.024  0.00  0.00    +0.000 A 
ATOM     29  C   UNL     1       7.367   4.518  11.898  0.00  0.00    +0.000 A 
ATOM     30  C   UNL     1       6.357   3.565  12.020  0.00  0.00    +0.000 A 
ATOM     31  C   UNL     1       5.784   3.311  13.266  0.00  0.00    +0.000 A 
ENDBRANCH  25  26
ENDBRANCH  24  25
ENDBRANCH  21  24
ENDBRANCH   2  17
TORSDOF 5
ENDMDL
MODEL 3
REMARK VINA RESULT:      -8.5      7.690     11.572
REMARK  Name = 
REMARK  6 active torsions:
REMARK  status: ('A' for Active; 'I' for Inactive)
REMARK    1  A    between atoms: C_1  and  C_2
REMARK    2  A    between atoms: C_9  and  N_10
REMARK    3  A    between atoms: C_11  and  C_13
REMARK    4  A    between atoms: C_17  and  O_18
REMARK    5  A    between atoms: O_18  and  C_19
REMARK    6  A    between atoms: C_19  and  C_20
REMARK                            x       y       z     vdW  Elec       q    Type
REMARK                         _______ _______ _______ _____ _____    ______ ____
ROOT
ATOM      1  N   UNL     1       1.839   8.130  19.704  0.00  0.00    +0.000 N 
ATOM      2  C   UNL     1       1.021   9.153  19.251  0.00  0.00    +0.000 C 
ATOM      3  O   UNL     1       0.842   9.483  18.083  0.00  0.00    +0.000 OA
ATOM      4  H   UNL     1       1.911   8.011  20.709  0.00  0.00    +0.000 HD
ENDROOT
BRANCH   1  13
ATOM      5  C   UNL     1       5.757   4.936  15.339  0.00  0.00    +0.000 C 
ATOM      6  C   UNL     1       4.832   4.492  16.431  0.00  0.00    +0.000 A 
ATOM      7  C   UNL     1       4.653   3.188  16.693  0.00  0.00    +0.000 A 
ATOM      8  C   UNL     1       3.756   2.682  17.743  0.00  0.00    +0.000 A 
ATOM      9  O   UNL     1       3.643   1.480  17.947  0.00  0.00    +0.000 OA
ATOM     10  O   UNL     1       3.062   3.627  18.468  0.00  0.00    +0.000 OA
ATOM     11  C   UNL     1       3.231   5.001  18.220  0.00  0.00    +0.000 A 
ATOM     12  C   UNL     1       2.480   5.847  19.034  0.00  0.00    +0.000 A 
ATOM     13  C   UNL     1       2.569   7.228  18.893  0.00  0.00    +0.000 A 
ATOM     14  C   UNL     1       3.434   7.734  17.913  0.00  0.00    +0.000 A 
ATOM     15  C   UNL     1       4.187   6.867  17.092  0.00  0.00    +0.000 A 
ATOM     16  C   UNL     1       4.093   5.477  17.236  0.00  0.00    +0.000 A 
ENDBRANCH   1  13
BRANCH   2  17
ATOM     17  C   UNL     1       0.297   9.885  20.341  0.00  0.00    +0.000 A 
ATOM     18  C   UNL     1       0.519   9.494  21.605  0.00  0.00    +0.000 A 
ATOM     19  C   UNL     1      -0.129  10.220  22.714  0.00  0.00    +0.000 A 
ATOM     20  O   UNL     1       0.036   9.852  23.870  0.00  0.00    +0.000 OA
ATOM     21  C   UNL     1      -0.962  11.401  22.338  0.00  0.00    +0.000 A 
ATOM     22  C   UNL     1      -1.110  11.650  21.029  0.00  0.00    +0.000 A 
ATOM     23  O   UNL     1      -0.535  10.938  20.005  0.00  0.00    +0.000 OA
BRANCH  21  24
ATOM     24  O   UNL     1      -1.601  12.214  23.253  0.00  0.00    +0.000 OA
BRANCH  24  25
ATOM     25  C   UNL     1      -2.371  13.294  22.717  0.00  0.00    +0.000 C 
BRANCH  25  26
ATOM     26  C   UNL     1      -3.798  13.068  23.152  0.00  0.00    +0.000 A 
ATOM     27  C   UNL     1      -4.090  12.598  24.440  0.00  0.00    +0.000 A 
ATOM     28  C   UNL     1      -5.408  12.335  24.816  0.00  0.00    +0.000 A 
ATOM     29  C   UNL     1      -6.448  12.536  23.908  0.00  0.00    +0.000 A 
ATOM     30  C   UNL     1      -6.170  13.000  22.624  0.00  0.00    +0.000 A 
ATOM     31  C   UNL     1      -4.852  13.263  22.247  0.00  0.00    +0.000 A 
ENDBRANCH  25  26
ENDBRANCH  24  25
ENDBRANCH  21  24
ENDBRANCH   2  17
TORSDOF 5
ENDMDL
MODEL 4
REMARK VINA RESULT:      -8.4      6.832      8.696
REMARK  Name = 
REMARK  6 active torsions:
REMARK  status: ('A' for Active; 'I' for Inactive)
REMARK    1  A    between atoms: C_1  and  C_2
REMARK    2  A    between atoms: C_9  and  N_10
REMARK    3  A    between atoms: C_11  and  C_13
REMARK    4  A    between atoms: C_17  and  O_18
REMARK    5  A    between atoms: O_18  and  C_19
REMARK    6  A    between atoms: C_19  and  C_20
REMARK                            x       y       z     vdW  Elec       q    Type
REMARK                         _______ _______ _______ _____ _____    ______ ____
ROOT
ATOM      1  N   UNL     1       1.677   8.929  18.803  0.00  0.00    +0.000 N 
ATOM      2  C   UNL     1       2.079   7.765  19.440  0.00  0.00    +0.000 C 
ATOM      3  O   UNL     1       1.685   7.354  20.527  0.00  0.00    +0.000 OA
ATOM      4  H   UNL     1       2.131   9.150  17.923  0.00  0.00    +0.000 HD
ENDROOT
BRANCH   1  13
ATOM      5  C   UNL     1      -3.661  12.783  19.927  0.00  0.00    +0.000 C 
ATOM      6  C   UNL     1      -2.378  12.535  20.662  0.00  0.00    +0.000 A 
ATOM      7  C   UNL     1      -2.112  13.168  21.816  0.00  0.00    +0.000 A 
ATOM      8  C   UNL     1      -0.873  12.978  22.585  0.00  0.00    +0.000 A 
ATOM      9  O   UNL     1      -0.691  13.573  23.640  0.00  0.00    +0.000 OA
ATOM     10  O   UNL     1       0.054  12.107  22.053  0.00  0.00    +0.000 OA
ATOM     11  C   UNL     1      -0.197  11.426  20.849  0.00  0.00    +0.000 A 
ATOM     12  C   UNL     1       0.818  10.566  20.432  0.00  0.00    +0.000 A 
ATOM     13  C   UNL     1       0.683   9.827  19.261  0.00  0.00    +0.000 A 
ATOM     14  C   UNL     1      -0.499   9.976  18.523  0.00  0.00    +0.000 A 
ATOM     15  C   UNL     1      -1.518  10.852  18.953  0.00  0.00    +0.000 A 
ATOM     16  C   UNL     1      -1.377  11.596  20.132  0.00  0.00    +0.000 A 
ENDBRANCH   1  13
BRANCH   2  17
ATOM     17  C   UNL     1       3.083   6.963  18.670  0.00  0.00    +0.000 A 
ATOM     18  C   UNL     1       3.544   7.481  17.521  0.00  0.00    +0.000 A 
ATOM     19  C   UNL     1       4.575   6.753  16.757  0.00  0.00    +0.000 A 
ATOM     20  O   UNL     1       4.978   7.196  15.690  0.00  0.00    +0.000 OA
ATOM     21  C   UNL     1       5.081   5.486  17.365  0.00  0.00    +0.000 A 
ATOM     22  C   UNL     1       4.503   5.083  18.506  0.00  0.00    +0.000 A 
ATOM     23  O   UNL     1       3.512   5.752  19.184  0.00  0.00    +0.000 OA
BRANCH  21  24
ATOM     24  O   UNL     1       6.074   4.706  16.805  0.00  0.00    +0.000 OA
BRANCH  24  25
ATOM     25  C   UNL     1       5.646   3.685  15.900  0.00  0.00    +0.000 C 
BRANCH  25  26
ATOM     26  C   UNL     1       6.285   3.991  14.567  0.00  0.00    +0.000 A 
ATOM     27  C   UNL     1       7.282   4.970  14.456  0.00  0.00    +0.000 A 
ATOM     28  C   UNL     1       7.825   5.288  13.211  0.00  0.00    +0.000 A 
ATOM     29  C   UNL     1       7.376   4.635  12.063  0.00  0.00    +0.000 A 
ATOM     30  C   UNL     1       6.384   3.662  12.161  0.00  0.00    +0.000 A 
ATOM     31  C   UNL     1       5.839   3.343  13.405  0.00  0.00    +0.000 A 
ENDBRANCH  25  26
ENDBRANCH  24  25
ENDBRANCH  21  24
ENDBRANCH   2  17
TORSDOF 5
ENDMDL
MODEL 5
REMARK VINA RESULT:      -8.4      6.900      8.932
REMARK  Name = 
REMARK  6 active torsions:
REMARK  status: ('A' for Active; 'I' for Inactive)
REMARK    1  A    between atoms: C_1  and  C_2
REMARK    2  A    between atoms: C_9  and  N_10
REMARK    3  A    between atoms: C_11  and  C_13
REMARK    4  A    between atoms: C_17  and  O_18
REMARK    5  A    between atoms: O_18  and  C_19
REMARK    6  A    between atoms: C_19  and  C_20
REMARK                            x       y       z     vdW  Elec       q    Type
REMARK                         _______ _______ _______ _____ _____    ______ ____
ROOT
ATOM      1  N   UNL     1       1.846   8.774  18.535  0.00  0.00    +0.000 N 
ATOM      2  C   UNL     1       2.229   7.651  19.252  0.00  0.00    +0.000 C 
ATOM      3  O   UNL     1       1.731   7.246  20.298  0.00  0.00    +0.000 OA
ATOM      4  H   UNL     1       2.389   8.998  17.708  0.00  0.00    +0.000 HD
ENDROOT
BRANCH   1  13
ATOM      5  C   UNL     1      -2.546  13.182  20.964  0.00  0.00    +0.000 C 
ATOM      6  C   UNL     1      -2.537  12.259  19.783  0.00  0.00    +0.000 A 
ATOM      7  C   UNL     1      -3.585  12.201  18.946  0.00  0.00    +0.000 A 
ATOM      8  C   UNL     1      -3.647  11.316  17.774  0.00  0.00    +0.000 A 
ATOM      9  O   UNL     1      -4.625  11.315  17.037  0.00  0.00    +0.000 OA
ATOM     10  O   UNL     1      -2.556  10.498  17.562  0.00  0.00    +0.000 OA
ATOM     11  C   UNL     1      -1.441  10.539  18.418  0.00  0.00    +0.000 A 
ATOM     12  C   UNL     1      -0.404   9.671  18.080  0.00  0.00    +0.000 A 
ATOM     13  C   UNL     1       0.758   9.627  18.844  0.00  0.00    +0.000 A 
ATOM     14  C   UNL     1       0.848  10.477  19.954  0.00  0.00    +0.000 A 
ATOM     15  C   UNL     1      -0.210  11.350  20.288  0.00  0.00    +0.000 A 
ATOM     16  C   UNL     1      -1.380  11.390  19.517  0.00  0.00    +0.000 A 
ENDBRANCH   1  13
BRANCH   2  17
ATOM     17  C   UNL     1       3.359   6.887  18.631  0.00  0.00    +0.000 A 
ATOM     18  C   UNL     1       3.833   5.825  19.302  0.00  0.00    +0.000 A 
ATOM     19  C   UNL     1       4.907   5.009  18.704  0.00  0.00    +0.000 A 
ATOM     20  O   UNL     1       5.375   4.060  19.320  0.00  0.00    +0.000 OA
ATOM     21  C   UNL     1       5.360   5.405  17.337  0.00  0.00    +0.000 A 
ATOM     22  C   UNL     1       4.808   6.507  16.807  0.00  0.00    +0.000 A 
ATOM     23  O   UNL     1       3.838   7.282  17.395  0.00  0.00    +0.000 OA
BRANCH  21  24
ATOM     24  O   UNL     1       6.323   4.725  16.617  0.00  0.00    +0.000 OA
BRANCH  24  25
ATOM     25  C   UNL     1       5.856   3.691  15.747  0.00  0.00    +0.000 C 
BRANCH  25  26
ATOM     26  C   UNL     1       6.347   4.034  14.362  0.00  0.00    +0.000 A 
ATOM     27  C   UNL     1       5.890   3.326  13.242  0.00  0.00    +0.000 A 
ATOM     28  C   UNL     1       6.394   3.610  11.972  0.00  0.00    +0.000 A 
ATOM     29  C   UNL     1       7.361   4.602  11.807  0.00  0.00    +0.000 A 
ATOM     30  C   UNL     1       7.824   5.311  12.914  0.00  0.00    +0.000 A 
ATOM     31  C   UNL     1       7.323   5.027  14.185  0.00  0.00    +0.000 A 
ENDBRANCH  25  26
ENDBRANCH  24  25
ENDBRANCH  21  24
ENDBRANCH   2  17
TORSDOF 5
ENDMDL
MODEL 6
REMARK VINA RESULT:      -8.3      8.079     11.895
REMARK  Name = 
REMARK  6 active torsions:
REMARK  status: ('A' for Active; 'I' for Inactive)
REMARK    1  A    between atoms: C_1  and  C_2
REMARK    2  A    between atoms: C_9  and  N_10
REMARK    3  A    between atoms: C_11  and  C_13
REMARK    4  A    between atoms: C_17  and  O_18
REMARK    5  A    between atoms: O_18  and  C_19
REMARK    6  A    between atoms: C_19  and  C_20
REMARK                            x       y       z     vdW  Elec       q    Type
REMARK                         _______ _______ _______ _____ _____    ______ ____
ROOT
ATOM      1  N   UNL     1       1.804   8.238  19.700  0.00  0.00    +0.000 N 
ATOM      2  C   UNL     1       0.971   9.243  19.233  0.00  0.00    +0.000 C 
ATOM      3  O   UNL     1       0.766   9.537  18.059  0.00  0.00    +0.000 OA
ATOM      4  H   UNL     1       1.896   8.150  20.706  0.00  0.00    +0.000 HD
ENDROOT
BRANCH   1  13
ATOM      5  C   UNL     1       5.660   4.937  15.359  0.00  0.00    +0.000 C 
ATOM      6  C   UNL     1       4.751   4.520  16.475  0.00  0.00    +0.000 A 
ATOM      7  C   UNL     1       4.577   3.223  16.774  0.00  0.00    +0.000 A 
ATOM      8  C   UNL     1       3.697   2.743  17.850  0.00  0.00    +0.000 A 
ATOM      9  O   UNL     1       3.588   1.546  18.086  0.00  0.00    +0.000 OA
ATOM     10  O   UNL     1       3.013   3.706  18.561  0.00  0.00    +0.000 OA
ATOM     11  C   UNL     1       3.177   5.073  18.275  0.00  0.00    +0.000 A 
ATOM     12  C   UNL     1       2.437   5.939  19.079  0.00  0.00    +0.000 A 
ATOM     13  C   UNL     1       2.523   7.316  18.900  0.00  0.00    +0.000 A 
ATOM     14  C   UNL     1       3.372   7.797  17.895  0.00  0.00    +0.000 A 
ATOM     15  C   UNL     1       4.114   6.911  17.086  0.00  0.00    +0.000 A 
ATOM     16  C   UNL     1       4.023   5.525  17.267  0.00  0.00    +0.000 A 
ENDBRANCH   1  13
BRANCH   2  17
ATOM     17  C   UNL     1       0.264  10.002  20.315  0.00  0.00    +0.000 A 
ATOM     18  C   UNL     1       0.431   9.583  21.579  0.00  0.00    +0.000 A 
ATOM     19  C   UNL     1      -0.200  10.332  22.682  0.00  0.00    +0.000 A 
ATOM     20  O   UNL     1      -0.087   9.941  23.836  0.00  0.00    +0.000 OA
ATOM     21  C   UNL     1      -0.952  11.566  22.303  0.00  0.00    +0.000 A 
ATOM     22  C   UNL     1      -1.052  11.841  20.994  0.00  0.00    +0.000 A 
ATOM     23  O   UNL     1      -0.495  11.108  19.974  0.00  0.00    +0.000 OA
BRANCH  21  24
ATOM     24  O   UNL     1      -1.564  12.405  23.213  0.00  0.00    +0.000 OA
BRANCH  24  25
ATOM     25  C   UNL     1      -2.982  12.273  23.346  0.00  0.00    +0.000 C 
BRANCH  25  26
ATOM     26  C   UNL     1      -3.509  13.632  23.740  0.00  0.00    +0.000 A 
ATOM     27  C   UNL     1      -2.753  14.487  24.554  0.00  0.00    +0.000 A 
ATOM     28  C   UNL     1      -3.271  15.716  24.962  0.00  0.00    +0.000 A 
ATOM     29  C   UNL     1      -4.551  16.104  24.564  0.00  0.00    +0.000 A 
ATOM     30  C   UNL     1      -5.312  15.261  23.757  0.00  0.00    +0.000 A 
ATOM     31  C   UNL     1      -4.796  14.031  23.349  0.00  0.00    +0.000 A 
ENDBRANCH  25  26
ENDBRANCH  24  25
ENDBRANCH  21  24
ENDBRANCH   2  17
TORSDOF 5
ENDMDL
MODEL 7
REMARK VINA RESULT:      -8.2      6.896      9.009
REMARK  Name = 
REMARK  6 active torsions:
REMARK  status: ('A' for Active; 'I' for Inactive)
REMARK    1  A    between atoms: C_1  and  C_2
REMARK    2  A    between atoms: C_9  and  N_10
REMARK    3  A    between atoms: C_11  and  C_13
REMARK    4  A    between atoms: C_17  and  O_18
REMARK    5  A    between atoms: O_18  and  C_19
REMARK    6  A    between atoms: C_19  and  C_20
REMARK                            x       y       z     vdW  Elec       q    Type
REMARK                         _______ _______ _______ _____ _____    ______ ____
ROOT
ATOM      1  N   UNL     1       1.639   8.813  18.693  0.00  0.00    +0.000 N 
ATOM      2  C   UNL     1       2.086   7.684  19.363  0.00  0.00    +0.000 C 
ATOM      3  O   UNL     1       1.733   7.307  20.476  0.00  0.00    +0.000 OA
ATOM      4  H   UNL     1       2.062   9.009  17.793  0.00  0.00    +0.000 HD
ENDROOT
BRANCH   1  13
ATOM      5  C   UNL     1      -2.249  13.297  21.757  0.00  0.00    +0.000 C 
ATOM      6  C   UNL     1      -2.393  12.461  20.522  0.00  0.00    +0.000 A 
ATOM      7  C   UNL     1      -3.505  12.524  19.773  0.00  0.00    +0.000 A 
ATOM      8  C   UNL     1      -3.717  11.728  18.555  0.00  0.00    +0.000 A 
ATOM      9  O   UNL     1      -4.748  11.838  17.903  0.00  0.00    +0.000 OA
ATOM     10  O   UNL     1      -2.703  10.863  18.201  0.00  0.00    +0.000 OA
ATOM     11  C   UNL     1      -1.524  10.776  18.963  0.00  0.00    +0.000 A 
ATOM     12  C   UNL     1      -0.575   9.873  18.485  0.00  0.00    +0.000 A 
ATOM     13  C   UNL     1       0.637   9.706  19.146  0.00  0.00    +0.000 A 
ATOM     14  C   UNL     1       0.870  10.470  20.297  0.00  0.00    +0.000 A 
ATOM     15  C   UNL     1      -0.099  11.379  20.773  0.00  0.00    +0.000 A 
ATOM     16  C   UNL     1      -1.320  11.543  20.106  0.00  0.00    +0.000 A 
ENDBRANCH   1  13
BRANCH   2  17
ATOM     17  C   UNL     1       3.086   6.874  18.595  0.00  0.00    +0.000 A 
ATOM     18  C   UNL     1       3.589   7.411  17.471  0.00  0.00    +0.000 A 
ATOM     19  C   UNL     1       4.617   6.675  16.712  0.00  0.00    +0.000 A 
ATOM     20  O   UNL     1       5.057   7.135  15.667  0.00  0.00    +0.000 OA
ATOM     21  C   UNL     1       5.073   5.378  17.296  0.00  0.00    +0.000 A 
ATOM     22  C   UNL     1       4.457   4.961  18.412  0.00  0.00    +0.000 A 
ATOM     23  O   UNL     1       3.469   5.639  19.085  0.00  0.00    +0.000 OA
BRANCH  21  24
ATOM     24  O   UNL     1       6.057   4.586  16.738  0.00  0.00    +0.000 OA
BRANCH  24  25
ATOM     25  C   UNL     1       5.623   3.598  15.800  0.00  0.00    +0.000 C 
BRANCH  25  26
ATOM     26  C   UNL     1       6.269   3.940  14.479  0.00  0.00    +0.000 A 
ATOM     27  C   UNL     1       7.285   4.903  14.405  0.00  0.00    +0.000 A 
ATOM     28  C   UNL     1       7.836   5.256  13.172  0.00  0.00    +0.000 A 
ATOM     29  C   UNL     1       7.375   4.654  12.001  0.00  0.00    +0.000 A 
ATOM     30  C   UNL     1       6.364   3.697  12.062  0.00  0.00    +0.000 A 
ATOM     31  C   UNL     1       5.812   3.344  13.294  0.00  0.00    +0.000 A 
ENDBRANCH  25  26
ENDBRANCH  24  25
ENDBRANCH  21  24
ENDBRANCH   2  17
TORSDOF 5
ENDMDL
MODEL 8
REMARK VINA RESULT:      -8.2      6.263     11.482
REMARK  Name = 
REMARK  6 active torsions:
REMARK  status: ('A' for Active; 'I' for Inactive)
REMARK    1  A    between atoms: C_1  and  C_2
REMARK    2  A    between atoms: C_9  and  N_10
REMARK    3  A    between atoms: C_11  and  C_13
REMARK    4  A    between atoms: C_17  and  O_18
REMARK    5  A    between atoms: O_18  and  C_19
REMARK    6  A    between atoms: C_19  and  C_20
REMARK                            x       y       z     vdW  Elec       q    Type
REMARK                         _______ _______ _______ _____ _____    ______ ____
ROOT
ATOM      1  N   UNL     1       1.866   9.050  18.041  0.00  0.00    +0.000 N 
ATOM      2  C   UNL     1       1.313   9.472  19.241  0.00  0.00    +0.000 C 
ATOM      3  O   UNL     1       1.292   8.846  20.296  0.00  0.00    +0.000 OA
ATOM      4  H   UNL     1       1.764   9.671  17.246  0.00  0.00    +0.000 HD
ENDROOT
BRANCH   1  13
ATOM      5  C   UNL     1       4.165   2.796  17.586  0.00  0.00    +0.000 C 
ATOM      6  C   UNL     1       4.690   4.134  17.165  0.00  0.00    +0.000 A 
ATOM      7  C   UNL     1       5.879   4.246  16.553  0.00  0.00    +0.000 A 
ATOM      8  C   UNL     1       6.458   5.526  16.119  0.00  0.00    +0.000 A 
ATOM      9  O   UNL     1       7.543   5.566  15.552  0.00  0.00    +0.000 OA
ATOM     10  O   UNL     1       5.719   6.659  16.388  0.00  0.00    +0.000 OA
ATOM     11  C   UNL     1       4.467   6.574  17.023  0.00  0.00    +0.000 A 
ATOM     12  C   UNL     1       3.820   7.793  17.222  0.00  0.00    +0.000 A 
ATOM     13  C   UNL     1       2.570   7.840  17.831  0.00  0.00    +0.000 A 
ATOM     14  C   UNL     1       1.990   6.630  18.234  0.00  0.00    +0.000 A 
ATOM     15  C   UNL     1       2.655   5.402  18.030  0.00  0.00    +0.000 A 
ATOM     16  C   UNL     1       3.915   5.359  17.418  0.00  0.00    +0.000 A 
ENDBRANCH   1  13
BRANCH   2  17
ATOM     17  C   UNL     1       0.712  10.844  19.187  0.00  0.00    +0.000 A 
ATOM     18  C   UNL     1      -0.572  10.974  19.557  0.00  0.00    +0.000 A 
ATOM     19  C   UNL     1      -1.191  12.313  19.573  0.00  0.00    +0.000 A 
ATOM     20  O   UNL     1      -2.371  12.442  19.872  0.00  0.00    +0.000 OA
ATOM     21  C   UNL     1      -0.302  13.460  19.220  0.00  0.00    +0.000 A 
ATOM     22  C   UNL     1       0.953  13.167  18.847  0.00  0.00    +0.000 A 
ATOM     23  O   UNL     1       1.502  11.909  18.795  0.00  0.00    +0.000 OA
BRANCH  21  24
ATOM     24  O   UNL     1      -0.708  14.780  19.228  0.00  0.00    +0.000 OA
BRANCH  24  25
ATOM     25  C   UNL     1       0.249  15.738  19.685  0.00  0.00    +0.000 C 
BRANCH  25  26
ATOM     26  C   UNL     1       0.394  16.765  18.588  0.00  0.00    +0.000 A 
ATOM     27  C   UNL     1      -0.724  17.455  18.099  0.00  0.00    +0.000 A 
ATOM     28  C   UNL     1      -0.591  18.359  17.044  0.00  0.00    +0.000 A 
ATOM     29  C   UNL     1       0.658  18.581  16.465  0.00  0.00    +0.000 A 
ATOM     30  C   UNL     1       1.776  17.899  16.941  0.00  0.00    +0.000 A 
ATOM     31  C   UNL     1       1.645  16.994  17.995  0.00  0.00    +0.000 A 
ENDBRANCH  25  26
ENDBRANCH  24  25
ENDBRANCH  21  24
ENDBRANCH   2  17
TORSDOF 5
ENDMDL
MODEL 9
REMARK VINA RESULT:      -8.2      6.876      9.105
REMARK  Name = 
REMARK  6 active torsions:
REMARK  status: ('A' for Active; 'I' for Inactive)
REMARK    1  A    between atoms: C_1  and  C_2
REMARK    2  A    between atoms: C_9  and  N_10
REMARK    3  A    between atoms: C_11  and  C_13
REMARK    4  A    between atoms: C_17  and  O_18
REMARK    5  A    between atoms: O_18  and  C_19
REMARK    6  A    between atoms: C_19  and  C_20
REMARK                            x       y       z     vdW  Elec       q    Type
REMARK                         _______ _______ _______ _____ _____    ______ ____
ROOT
ATOM      1  N   UNL     1       1.588   8.834  18.202  0.00  0.00    +0.000 N 
ATOM      2  C   UNL     1       2.196   7.886  19.012  0.00  0.00    +0.000 C 
ATOM      3  O   UNL     1       1.957   7.676  20.197  0.00  0.00    +0.000 OA
ATOM      4  H   UNL     1       1.929   8.910  17.251  0.00  0.00    +0.000 HD
ENDROOT
BRANCH   1  13
ATOM      5  C   UNL     1      -2.598  13.309  20.860  0.00  0.00    +0.000 C 
ATOM      6  C   UNL     1      -2.692  12.337  19.722  0.00  0.00    +0.000 A 
ATOM      7  C   UNL     1      -3.815  12.237  18.994  0.00  0.00    +0.000 A 
ATOM      8  C   UNL     1      -3.979  11.303  17.870  0.00  0.00    +0.000 A 
ATOM      9  O   UNL     1      -5.024  11.264  17.231  0.00  0.00    +0.000 OA
ATOM     10  O   UNL     1      -2.906  10.485  17.588  0.00  0.00    +0.000 OA
ATOM     11  C   UNL     1      -1.714  10.569  18.330  0.00  0.00    +0.000 A 
ATOM     12  C   UNL     1      -0.704   9.695  17.930  0.00  0.00    +0.000 A 
ATOM     13  C   UNL     1       0.526   9.691  18.580  0.00  0.00    +0.000 A 
ATOM     14  C   UNL     1       0.712  10.588  19.640  0.00  0.00    +0.000 A 
ATOM     15  C   UNL     1      -0.318  11.466  20.038  0.00  0.00    +0.000 A 
ATOM     16  C   UNL     1      -1.557  11.466  19.382  0.00  0.00    +0.000 A 
ENDBRANCH   1  13
BRANCH   2  17
ATOM     17  C   UNL     1       3.228   7.056  18.311  0.00  0.00    +0.000 A 
ATOM     18  C   UNL     1       3.690   7.503  17.133  0.00  0.00    +0.000 A 
ATOM     19  C   UNL     1       4.747   6.749  16.433  0.00  0.00    +0.000 A 
ATOM     20  O   UNL     1       5.152   7.125  15.341  0.00  0.00    +0.000 OA
ATOM     21  C   UNL     1       5.275   5.540  17.134  0.00  0.00    +0.000 A 
ATOM     22  C   UNL     1       4.693   5.205  18.295  0.00  0.00    +0.000 A 
ATOM     23  O   UNL     1       3.679   5.895  18.913  0.00  0.00    +0.000 OA
BRANCH  21  24
ATOM     24  O   UNL     1       6.293   4.747  16.640  0.00  0.00    +0.000 OA
BRANCH  24  25
ATOM     25  C   UNL     1       5.901   3.662  15.796  0.00  0.00    +0.000 C 
BRANCH  25  26
ATOM     26  C   UNL     1       6.357   4.011  14.399  0.00  0.00    +0.000 A 
ATOM     27  C   UNL     1       5.812   3.362  13.283  0.00  0.00    +0.000 A 
ATOM     28  C   UNL     1       6.281   3.648  12.000  0.00  0.00    +0.000 A 
ATOM     29  C   UNL     1       7.300   4.584  11.819  0.00  0.00    +0.000 A 
ATOM     30  C   UNL     1       7.850   5.234  12.922  0.00  0.00    +0.000 A 
ATOM     31  C   UNL     1       7.383   4.948  14.206  0.00  0.00    +0.000 A 
ENDBRANCH  25  26
ENDBRANCH  24  25
ENDBRANCH  21  24
ENDBRANCH   2  17
TORSDOF 5
ENDMDL
