MODEL 1
REMARK VINA RESULT:      -7.5      0.000      0.000
REMARK  Name = 
REMARK  9 active torsions:
REMARK  status: ('A' for Active; 'I' for Inactive)
REMARK    1  A    between atoms: C_1  and  C_2
REMARK    2  A    between atoms: C_2  and  N_3
REMARK    3  A    between atoms: N_3  and  C_4
REMARK    4  A    between atoms: N_3  and  C_19
REMARK    5  A    between atoms: C_4  and  C_5
REMARK    6  A    between atoms: C_10  and  C_11
REMARK    7  A    between atoms: C_11  and  C_12
REMARK    8  A    between atoms: C_12  and  O_13
REMARK    9  A    between atoms: C_14  and  C_15
REMARK                            x       y       z     vdW  Elec       q    Type
REMARK                         _______ _______ _______ _____ _____    ______ ____
ROOT
ATOM      1  C   UNL     1       2.144   7.024  19.770  0.00  0.00    +0.000 A 
ATOM      2  C   UNL     1       2.302   7.711  18.627  0.00  0.00    +0.000 A 
ATOM      3  C   UNL     1       1.780   9.095  18.520  0.00  0.00    +0.000 A 
ATOM      4  O   UNL     1       1.920   9.686  17.448  0.00  0.00    +0.000 OA
ATOM      5  N   UNL     1       1.144   9.567  19.651  0.00  0.00    +0.000 N 
ATOM      6  C   UNL     1       0.483  10.796  19.805  0.00  0.00    +0.000 A 
ATOM      7  C   UNL     1      -0.019  10.971  21.047  0.00  0.00    +0.000 A 
ATOM      8  C   UNL     1      -0.796  12.111  21.618  0.00  0.00    +0.000 C 
ATOM      9  S   UNL     1       0.311   9.600  22.081  0.00  0.00    +0.000 S 
ATOM     10  C   UNL     1       1.111   8.773  20.769  0.00  0.00    +0.000 A 
ATOM     11  N   UNL     1       1.570   7.577  20.895  0.00  0.00    +0.000 NA
ENDROOT
BRANCH   1  12
ATOM     12  C   UNL     1       2.427   5.531  19.852  0.00  0.00    +0.000 C 
BRANCH  12  13
ATOM     13  N   UNL     1       2.694   4.912  18.548  0.00  0.00    +0.000 N 
BRANCH  13  14
ATOM     14  C   UNL     1       4.035   4.770  18.167  0.00  0.00    +0.000 A 
ATOM     15  C   UNL     1       5.078   5.094  19.053  0.00  0.00    +0.000 A 
ATOM     16  C   UNL     1       6.420   4.961  18.685  0.00  0.00    +0.000 A 
ATOM     17  C   UNL     1       6.741   4.507  17.415  0.00  0.00    +0.000 A 
ATOM     18  F   UNL     1       8.025   4.384  17.056  0.00  0.00    +0.000 F 
ATOM     19  C   UNL     1       5.741   4.188  16.512  0.00  0.00    +0.000 A 
ATOM     20  C   UNL     1       4.403   4.323  16.886  0.00  0.00    +0.000 A 
ENDBRANCH  13  14
BRANCH  13  22
ATOM     21  C   UNL     1       1.073   2.954  18.727  0.00  0.00    +0.000 C 
ATOM     22  C   UNL     1       1.705   4.049  17.883  0.00  0.00    +0.000 C 
ENDBRANCH  13  22
ENDBRANCH  12  13
ENDBRANCH   1  12
BRANCH   6  23
ATOM     23  C   UNL     1       0.372  11.792  18.677  0.00  0.00    +0.000 C 
BRANCH  23  24
ATOM     24  C   UNL     1       1.522  12.806  18.633  0.00  0.00    +0.000 C 
BRANCH  24  25
ATOM     25  O   UNL     1       2.391  12.607  17.526  0.00  0.00    +0.000 OA
ATOM     26  H   UNL     1       3.226  13.079  17.721  0.00  0.00    +0.000 HD
ENDBRANCH  24  25
ENDBRANCH  23  24
ENDBRANCH   6  23
TORSDOF 7
ENDMDL
MODEL 2
REMARK VINA RESULT:      -7.4      0.868      1.390
REMARK  Name = 
REMARK  9 active torsions:
REMARK  status: ('A' for Active; 'I' for Inactive)
REMARK    1  A    between atoms: C_1  and  C_2
REMARK    2  A    between atoms: C_2  and  N_3
REMARK    3  A    between atoms: N_3  and  C_4
REMARK    4  A    between atoms: N_3  and  C_19
REMARK    5  A    between atoms: C_4  and  C_5
REMARK    6  A    between atoms: C_10  and  C_11
REMARK    7  A    between atoms: C_11  and  C_12
REMARK    8  A    between atoms: C_12  and  O_13
REMARK    9  A    between atoms: C_14  and  C_15
REMARK                            x       y       z     vdW  Elec       q    Type
REMARK                         _______ _______ _______ _____ _____    ______ ____
ROOT
ATOM      1  C   UNL     1       2.148   7.101  19.822  0.00  0.00    +0.000 A 
ATOM      2  C   UNL     1       2.232   7.842  18.704  0.00  0.00    +0.000 A 
ATOM      3  C   UNL     1       1.621   9.193  18.668  0.00  0.00    +0.000 A 
ATOM      4  O   UNL     1       1.694   9.834  17.619  0.00  0.00    +0.000 OA
ATOM      5  N   UNL     1       0.987   9.577  19.833  0.00  0.00    +0.000 N 
ATOM      6  C   UNL     1       0.254  10.754  20.054  0.00  0.00    +0.000 A 
ATOM      7  C   UNL     1      -0.225  10.847  21.314  0.00  0.00    +0.000 A 
ATOM      8  C   UNL     1      -1.056  11.910  21.951  0.00  0.00    +0.000 C 
ATOM      9  S   UNL     1       0.219   9.459  22.281  0.00  0.00    +0.000 S 
ATOM     10  C   UNL     1       1.034   8.739  20.917  0.00  0.00    +0.000 A 
ATOM     11  N   UNL     1       1.571   7.570  20.982  0.00  0.00    +0.000 NA
ENDROOT
BRANCH   1  12
ATOM     12  C   UNL     1       2.527   5.626  19.834  0.00  0.00    +0.000 C 
BRANCH  12  13
ATOM     13  N   UNL     1       2.785   5.076  18.498  0.00  0.00    +0.000 N 
BRANCH  13  14
ATOM     14  C   UNL     1       4.123   4.905  18.121  0.00  0.00    +0.000 A 
ATOM     15  C   UNL     1       4.458   4.362  16.866  0.00  0.00    +0.000 A 
ATOM     16  C   UNL     1       5.788   4.181  16.478  0.00  0.00    +0.000 A 
ATOM     17  C   UNL     1       6.810   4.534  17.346  0.00  0.00    +0.000 A 
ATOM     18  F   UNL     1       8.086   4.357  16.981  0.00  0.00    +0.000 F 
ATOM     19  C   UNL     1       6.519   5.062  18.593  0.00  0.00    +0.000 A 
ATOM     20  C   UNL     1       5.189   5.239  18.975  0.00  0.00    +0.000 A 
ENDBRANCH  13  14
BRANCH  13  22
ATOM     21  C   UNL     1       1.144   3.127  18.521  0.00  0.00    +0.000 C 
ATOM     22  C   UNL     1       1.771   4.292  17.774  0.00  0.00    +0.000 C 
ENDBRANCH  13  22
ENDBRANCH  12  13
ENDBRANCH   1  12
BRANCH   6  23
ATOM     23  C   UNL     1       0.050  11.786  18.971  0.00  0.00    +0.000 C 
BRANCH  23  24
ATOM     24  C   UNL     1      -1.297  11.665  18.249  0.00  0.00    +0.000 C 
BRANCH  24  25
ATOM     25  O   UNL     1      -1.397  12.522  17.120  0.00  0.00    +0.000 OA
ATOM     26  H   UNL     1      -2.296  12.911  17.127  0.00  0.00    +0.000 HD
ENDBRANCH  24  25
ENDBRANCH  23  24
ENDBRANCH   6  23
TORSDOF 7
ENDMDL
MODEL 3
REMARK VINA RESULT:      -7.2      1.463      1.837
REMARK  Name = 
REMARK  9 active torsions:
REMARK  status: ('A' for Active; 'I' for Inactive)
REMARK    1  A    between atoms: C_1  and  C_2
REMARK    2  A    between atoms: C_2  and  N_3
REMARK    3  A    between atoms: N_3  and  C_4
REMARK    4  A    between atoms: N_3  and  C_19
REMARK    5  A    between atoms: C_4  and  C_5
REMARK    6  A    between atoms: C_10  and  C_11
REMARK    7  A    between atoms: C_11  and  C_12
REMARK    8  A    between atoms: C_12  and  O_13
REMARK    9  A    between atoms: C_14  and  C_15
REMARK                            x       y       z     vdW  Elec       q    Type
REMARK                         _______ _______ _______ _____ _____    ______ ____
ROOT
ATOM      1  C   UNL     1       2.343   6.798  19.250  0.00  0.00    +0.000 A 
ATOM      2  C   UNL     1       2.380   7.635  18.200  0.00  0.00    +0.000 A 
ATOM      3  C   UNL     1       1.833   9.008  18.332  0.00  0.00    +0.000 A 
ATOM      4  O   UNL     1       1.860   9.740  17.343  0.00  0.00    +0.000 OA
ATOM      5  N   UNL     1       1.305   9.307  19.573  0.00  0.00    +0.000 N 
ATOM      6  C   UNL     1       0.647  10.488  19.954  0.00  0.00    +0.000 A 
ATOM      7  C   UNL     1       0.267  10.482  21.251  0.00  0.00    +0.000 A 
ATOM      8  C   UNL     1      -0.463  11.515  22.043  0.00  0.00    +0.000 C 
ATOM      9  S   UNL     1       0.714   8.993  22.053  0.00  0.00    +0.000 S 
ATOM     10  C   UNL     1       1.392   8.370  20.570  0.00  0.00    +0.000 A 
ATOM     11  N   UNL     1       1.875   7.180  20.489  0.00  0.00    +0.000 NA
ENDROOT
BRANCH   1  12
ATOM     12  C   UNL     1       2.650   5.314  19.100  0.00  0.00    +0.000 C 
BRANCH  12  13
ATOM     13  N   UNL     1       3.623   5.020  18.041  0.00  0.00    +0.000 N 
BRANCH  13  14
ATOM     14  C   UNL     1       4.919   5.530  18.198  0.00  0.00    +0.000 A 
ATOM     15  C   UNL     1       5.457   6.438  17.269  0.00  0.00    +0.000 A 
ATOM     16  C   UNL     1       6.750   6.951  17.409  0.00  0.00    +0.000 A 
ATOM     17  C   UNL     1       7.531   6.555  18.485  0.00  0.00    +0.000 A 
ATOM     18  F   UNL     1       8.771   7.040  18.621  0.00  0.00    +0.000 F 
ATOM     19  C   UNL     1       7.038   5.655  19.415  0.00  0.00    +0.000 A 
ATOM     20  C   UNL     1       5.747   5.146  19.267  0.00  0.00    +0.000 A 
ENDBRANCH  13  14
BRANCH  13  22
ATOM     21  C   UNL     1       3.405   2.499  17.749  0.00  0.00    +0.000 C 
ATOM     22  C   UNL     1       3.449   3.883  17.123  0.00  0.00    +0.000 C 
ENDBRANCH  13  22
ENDBRANCH  12  13
ENDBRANCH   1  12
BRANCH   6  23
ATOM     23  C   UNL     1       0.414  11.623  18.988  0.00  0.00    +0.000 C 
BRANCH  23  24
ATOM     24  C   UNL     1      -0.975  11.605  18.339  0.00  0.00    +0.000 C 
BRANCH  24  25
ATOM     25  O   UNL     1      -1.177  12.687  17.440  0.00  0.00    +0.000 OA
ATOM     26  H   UNL     1      -0.480  12.633  16.755  0.00  0.00    +0.000 HD
ENDBRANCH  24  25
ENDBRANCH  23  24
ENDBRANCH   6  23
TORSDOF 7
ENDMDL
MODEL 4
REMARK VINA RESULT:      -7.0      1.291      1.745
REMARK  Name = 
REMARK  9 active torsions:
REMARK  status: ('A' for Active; 'I' for Inactive)
REMARK    1  A    between atoms: C_1  and  C_2
REMARK    2  A    between atoms: C_2  and  N_3
REMARK    3  A    between atoms: N_3  and  C_4
REMARK    4  A    between atoms: N_3  and  C_19
REMARK    5  A    between atoms: C_4  and  C_5
REMARK    6  A    between atoms: C_10  and  C_11
REMARK    7  A    between atoms: C_11  and  C_12
REMARK    8  A    between atoms: C_12  and  O_13
REMARK    9  A    between atoms: C_14  and  C_15
REMARK                            x       y       z     vdW  Elec       q    Type
REMARK                         _______ _______ _______ _____ _____    ______ ____
ROOT
ATOM      1  C   UNL     1       2.327   7.276  19.632  0.00  0.00    +0.000 A 
ATOM      2  C   UNL     1       2.141   8.067  18.563  0.00  0.00    +0.000 A 
ATOM      3  C   UNL     1       1.333   9.305  18.694  0.00  0.00    +0.000 A 
ATOM      4  O   UNL     1       1.162   9.995  17.688  0.00  0.00    +0.000 OA
ATOM      5  N   UNL     1       0.817   9.533  19.955  0.00  0.00    +0.000 N 
ATOM      6  C   UNL     1      -0.048  10.568  20.345  0.00  0.00    +0.000 A 
ATOM      7  C   UNL     1      -0.354  10.529  21.661  0.00  0.00    +0.000 A 
ATOM      8  C   UNL     1      -1.240  11.419  22.468  0.00  0.00    +0.000 C 
ATOM      9  S   UNL     1       0.425   9.189  22.470  0.00  0.00    +0.000 S 
ATOM     10  C   UNL     1       1.142   8.667  20.967  0.00  0.00    +0.000 A 
ATOM     11  N   UNL     1       1.853   7.596  20.885  0.00  0.00    +0.000 NA
ENDROOT
BRANCH   1  12
ATOM     12  C   UNL     1       2.922   5.881  19.499  0.00  0.00    +0.000 C 
BRANCH  12  13
ATOM     13  N   UNL     1       2.798   5.315  18.150  0.00  0.00    +0.000 N 
BRANCH  13  14
ATOM     14  C   UNL     1       3.972   5.188  17.396  0.00  0.00    +0.000 A 
ATOM     15  C   UNL     1       4.298   3.974  16.763  0.00  0.00    +0.000 A 
ATOM     16  C   UNL     1       5.467   3.830  16.012  0.00  0.00    +0.000 A 
ATOM     17  C   UNL     1       6.337   4.903  15.887  0.00  0.00    +0.000 A 
ATOM     18  F   UNL     1       7.461   4.769  15.172  0.00  0.00    +0.000 F 
ATOM     19  C   UNL     1       6.055   6.110  16.503  0.00  0.00    +0.000 A 
ATOM     20  C   UNL     1       4.886   6.246  17.253  0.00  0.00    +0.000 A 
ENDBRANCH  13  14
BRANCH  13  22
ATOM     21  C   UNL     1       1.201   3.428  18.763  0.00  0.00    +0.000 C 
ATOM     22  C   UNL     1       1.649   4.480  17.763  0.00  0.00    +0.000 C 
ENDBRANCH  13  22
ENDBRANCH  12  13
ENDBRANCH   1  12
BRANCH   6  23
ATOM     23  C   UNL     1      -0.554  11.600  19.367  0.00  0.00    +0.000 C 
BRANCH  23  24
ATOM     24  C   UNL     1      -1.923  11.261  18.766  0.00  0.00    +0.000 C 
BRANCH  24  25
ATOM     25  O   UNL     1      -1.834  10.382  17.652  0.00  0.00    +0.000 OA
ATOM     26  H   UNL     1      -2.584   9.757  17.712  0.00  0.00    +0.000 HD
ENDBRANCH  24  25
ENDBRANCH  23  24
ENDBRANCH   6  23
TORSDOF 7
ENDMDL
MODEL 5
REMARK VINA RESULT:      -7.0      0.482      1.074
REMARK  Name = 
REMARK  9 active torsions:
REMARK  status: ('A' for Active; 'I' for Inactive)
REMARK    1  A    between atoms: C_1  and  C_2
REMARK    2  A    between atoms: C_2  and  N_3
REMARK    3  A    between atoms: N_3  and  C_4
REMARK    4  A    between atoms: N_3  and  C_19
REMARK    5  A    between atoms: C_4  and  C_5
REMARK    6  A    between atoms: C_10  and  C_11
REMARK    7  A    between atoms: C_11  and  C_12
REMARK    8  A    between atoms: C_12  and  O_13
REMARK    9  A    between atoms: C_14  and  C_15
REMARK                            x       y       z     vdW  Elec       q    Type
REMARK                         _______ _______ _______ _____ _____    ______ ____
ROOT
ATOM      1  C   UNL     1       2.103   7.180  19.817  0.00  0.00    +0.000 A 
ATOM      2  C   UNL     1       2.236   7.899  18.690  0.00  0.00    +0.000 A 
ATOM      3  C   UNL     1       1.614   9.243  18.595  0.00  0.00    +0.000 A 
ATOM      4  O   UNL     1       1.734   9.864  17.538  0.00  0.00    +0.000 OA
ATOM      5  N   UNL     1       0.918   9.642  19.718  0.00  0.00    +0.000 N 
ATOM      6  C   UNL     1       0.162  10.816  19.877  0.00  0.00    +0.000 A 
ATOM      7  C   UNL     1      -0.381  10.928  21.110  0.00  0.00    +0.000 A 
ATOM      8  C   UNL     1      -1.255  11.994  21.681  0.00  0.00    +0.000 C 
ATOM      9  S   UNL     1       0.027   9.565  22.126  0.00  0.00    +0.000 S 
ATOM     10  C   UNL     1       0.918   8.826  20.820  0.00  0.00    +0.000 A 
ATOM     11  N   UNL     1       1.463   7.665  20.936  0.00  0.00    +0.000 NA
ENDROOT
BRANCH   1  12
ATOM     12  C   UNL     1       2.496   5.710  19.878  0.00  0.00    +0.000 C 
BRANCH  12  13
ATOM     13  N   UNL     1       2.751   5.115  18.561  0.00  0.00    +0.000 N 
BRANCH  13  14
ATOM     14  C   UNL     1       4.088   4.928  18.189  0.00  0.00    +0.000 A 
ATOM     15  C   UNL     1       4.422   4.399  16.928  0.00  0.00    +0.000 A 
ATOM     16  C   UNL     1       5.751   4.202  16.544  0.00  0.00    +0.000 A 
ATOM     17  C   UNL     1       6.773   4.525  17.423  0.00  0.00    +0.000 A 
ATOM     18  F   UNL     1       8.048   4.333  17.062  0.00  0.00    +0.000 F 
ATOM     19  C   UNL     1       6.484   5.038  18.677  0.00  0.00    +0.000 A 
ATOM     20  C   UNL     1       5.154   5.231  19.053  0.00  0.00    +0.000 A 
ENDBRANCH  13  14
BRANCH  13  22
ATOM     21  C   UNL     1       1.228   3.073  18.585  0.00  0.00    +0.000 C 
ATOM     22  C   UNL     1       1.734   4.311  17.864  0.00  0.00    +0.000 C 
ENDBRANCH  13  22
ENDBRANCH  12  13
ENDBRANCH   1  12
BRANCH   6  23
ATOM     23  C   UNL     1       0.004  11.823  18.765  0.00  0.00    +0.000 C 
BRANCH  23  24
ATOM     24  C   UNL     1       0.895  13.060  18.921  0.00  0.00    +0.000 C 
BRANCH  24  25
ATOM     25  O   UNL     1       2.160  12.760  19.495  0.00  0.00    +0.000 OA
ATOM     26  H   UNL     1       2.159  11.809  19.725  0.00  0.00    +0.000 HD
ENDBRANCH  24  25
ENDBRANCH  23  24
ENDBRANCH   6  23
TORSDOF 7
ENDMDL
MODEL 6
REMARK VINA RESULT:      -7.0      1.439      1.613
REMARK  Name = 
REMARK  9 active torsions:
REMARK  status: ('A' for Active; 'I' for Inactive)
REMARK    1  A    between atoms: C_1  and  C_2
REMARK    2  A    between atoms: C_2  and  N_3
REMARK    3  A    between atoms: N_3  and  C_4
REMARK    4  A    between atoms: N_3  and  C_19
REMARK    5  A    between atoms: C_4  and  C_5
REMARK    6  A    between atoms: C_10  and  C_11
REMARK    7  A    between atoms: C_11  and  C_12
REMARK    8  A    between atoms: C_12  and  O_13
REMARK    9  A    between atoms: C_14  and  C_15
REMARK                            x       y       z     vdW  Elec       q    Type
REMARK                         _______ _______ _______ _____ _____    ______ ____
ROOT
ATOM      1  C   UNL     1       1.763   7.514  20.198  0.00  0.00    +0.000 A 
ATOM      2  C   UNL     1       1.827   8.365  19.161  0.00  0.00    +0.000 A 
ATOM      3  C   UNL     1       1.193   9.702  19.264  0.00  0.00    +0.000 A 
ATOM      4  O   UNL     1       1.249  10.447  18.285  0.00  0.00    +0.000 OA
ATOM      5  N   UNL     1       0.558   9.955  20.464  0.00  0.00    +0.000 N 
ATOM      6  C   UNL     1      -0.194  11.090  20.805  0.00  0.00    +0.000 A 
ATOM      7  C   UNL     1      -0.668  11.046  22.070  0.00  0.00    +0.000 A 
ATOM      8  C   UNL     1      -1.515  12.025  22.814  0.00  0.00    +0.000 C 
ATOM      9  S   UNL     1      -0.195   9.576  22.890  0.00  0.00    +0.000 S 
ATOM     10  C   UNL     1       0.626   9.012  21.457  0.00  0.00    +0.000 A 
ATOM     11  N   UNL     1       1.183   7.853  21.402  0.00  0.00    +0.000 NA
ENDROOT
BRANCH   1  12
ATOM     12  C   UNL     1       2.167   6.053  20.060  0.00  0.00    +0.000 C 
BRANCH  12  13
ATOM     13  N   UNL     1       2.627   5.696  18.713  0.00  0.00    +0.000 N 
BRANCH  13  14
ATOM     14  C   UNL     1       3.996   5.823  18.446  0.00  0.00    +0.000 A 
ATOM     15  C   UNL     1       4.957   5.273  19.314  0.00  0.00    +0.000 A 
ATOM     16  C   UNL     1       6.327   5.395  19.064  0.00  0.00    +0.000 A 
ATOM     17  C   UNL     1       6.759   6.080  17.938  0.00  0.00    +0.000 A 
ATOM     18  F   UNL     1       8.070   6.204  17.697  0.00  0.00    +0.000 F 
ATOM     19  C   UNL     1       5.843   6.643  17.066  0.00  0.00    +0.000 A 
ATOM     20  C   UNL     1       4.477   6.518  17.323  0.00  0.00    +0.000 A 
ENDBRANCH  13  14
BRANCH  13  22
ATOM     21  C   UNL     1       2.430   3.432  17.560  0.00  0.00    +0.000 C 
ATOM     22  C   UNL     1       1.845   4.807  17.837  0.00  0.00    +0.000 C 
ENDBRANCH  13  22
ENDBRANCH  12  13
ENDBRANCH   1  12
BRANCH   6  23
ATOM     23  C   UNL     1      -0.422  12.222  19.833  0.00  0.00    +0.000 C 
BRANCH  23  24
ATOM     24  C   UNL     1      -1.665  12.040  18.954  0.00  0.00    +0.000 C 
BRANCH  24  25
ATOM     25  O   UNL     1      -1.345  11.736  17.603  0.00  0.00    +0.000 OA
ATOM     26  H   UNL     1      -0.372  11.785  17.515  0.00  0.00    +0.000 HD
ENDBRANCH  24  25
ENDBRANCH  23  24
ENDBRANCH   6  23
TORSDOF 7
ENDMDL
MODEL 7
REMARK VINA RESULT:      -6.9      1.358      2.001
REMARK  Name = 
REMARK  9 active torsions:
REMARK  status: ('A' for Active; 'I' for Inactive)
REMARK    1  A    between atoms: C_1  and  C_2
REMARK    2  A    between atoms: C_2  and  N_3
REMARK    3  A    between atoms: N_3  and  C_4
REMARK    4  A    between atoms: N_3  and  C_19
REMARK    5  A    between atoms: C_4  and  C_5
REMARK    6  A    between atoms: C_10  and  C_11
REMARK    7  A    between atoms: C_11  and  C_12
REMARK    8  A    between atoms: C_12  and  O_13
REMARK    9  A    between atoms: C_14  and  C_15
REMARK                            x       y       z     vdW  Elec       q    Type
REMARK                         _______ _______ _______ _____ _____    ______ ____
ROOT
ATOM      1  C   UNL     1       2.570   6.677  18.970  0.00  0.00    +0.000 A 
ATOM      2  C   UNL     1       2.549   7.538  17.940  0.00  0.00    +0.000 A 
ATOM      3  C   UNL     1       1.961   8.888  18.119  0.00  0.00    +0.000 A 
ATOM      4  O   UNL     1       1.936   9.644  17.146  0.00  0.00    +0.000 OA
ATOM      5  N   UNL     1       1.458   9.142  19.380  0.00  0.00    +0.000 N 
ATOM      6  C   UNL     1       0.772  10.290  19.806  0.00  0.00    +0.000 A 
ATOM      7  C   UNL     1       0.429  10.242  21.113  0.00  0.00    +0.000 A 
ATOM      8  C   UNL     1      -0.313  11.231  21.948  0.00  0.00    +0.000 C 
ATOM      9  S   UNL     1       0.947   8.752  21.867  0.00  0.00    +0.000 S 
ATOM     10  C   UNL     1       1.604   8.186  20.352  0.00  0.00    +0.000 A 
ATOM     11  N   UNL     1       2.124   7.015  20.229  0.00  0.00    +0.000 NA
ENDROOT
BRANCH   1  12
ATOM     12  C   UNL     1       2.922   5.208  18.777  0.00  0.00    +0.000 C 
BRANCH  12  13
ATOM     13  N   UNL     1       4.001   4.986  17.807  0.00  0.00    +0.000 N 
BRANCH  13  14
ATOM     14  C   UNL     1       5.239   5.584  18.074  0.00  0.00    +0.000 A 
ATOM     15  C   UNL     1       5.748   6.599  17.243  0.00  0.00    +0.000 A 
ATOM     16  C   UNL     1       6.984   7.201  17.494  0.00  0.00    +0.000 A 
ATOM     17  C   UNL     1       7.739   6.789  18.582  0.00  0.00    +0.000 A 
ATOM     18  F   UNL     1       8.926   7.359  18.823  0.00  0.00    +0.000 F 
ATOM     19  C   UNL     1       7.275   5.786  19.416  0.00  0.00    +0.000 A 
ATOM     20  C   UNL     1       6.041   5.188  19.159  0.00  0.00    +0.000 A 
ENDBRANCH  13  14
BRANCH  13  22
ATOM     21  C   UNL     1       5.145   3.737  15.903  0.00  0.00    +0.000 C 
ATOM     22  C   UNL     1       3.986   3.842  16.880  0.00  0.00    +0.000 C 
ENDBRANCH  13  22
ENDBRANCH  12  13
ENDBRANCH   1  12
BRANCH   6  23
ATOM     23  C   UNL     1       0.475  11.438  18.874  0.00  0.00    +0.000 C 
BRANCH  23  24
ATOM     24  C   UNL     1       1.568  12.513  18.850  0.00  0.00    +0.000 C 
BRANCH  24  25
ATOM     25  O   UNL     1       2.371  12.457  17.679  0.00  0.00    +0.000 OA
ATOM     26  H   UNL     1       3.061  11.779  17.829  0.00  0.00    +0.000 HD
ENDBRANCH  24  25
ENDBRANCH  23  24
ENDBRANCH   6  23
TORSDOF 7
ENDMDL
MODEL 8
REMARK VINA RESULT:      -6.8      1.126      1.167
REMARK  Name = 
REMARK  9 active torsions:
REMARK  status: ('A' for Active; 'I' for Inactive)
REMARK    1  A    between atoms: C_1  and  C_2
REMARK    2  A    between atoms: C_2  and  N_3
REMARK    3  A    between atoms: N_3  and  C_4
REMARK    4  A    between atoms: N_3  and  C_19
REMARK    5  A    between atoms: C_4  and  C_5
REMARK    6  A    between atoms: C_10  and  C_11
REMARK    7  A    between atoms: C_11  and  C_12
REMARK    8  A    between atoms: C_12  and  O_13
REMARK    9  A    between atoms: C_14  and  C_15
REMARK                            x       y       z     vdW  Elec       q    Type
REMARK                         _______ _______ _______ _____ _____    ______ ____
ROOT
ATOM      1  C   UNL     1       2.419   7.198  19.488  0.00  0.00    +0.000 A 
ATOM      2  C   UNL     1       2.276   8.009  18.426  0.00  0.00    +0.000 A 
ATOM      3  C   UNL     1       1.497   9.264  18.556  0.00  0.00    +0.000 A 
ATOM      4  O   UNL     1       1.364   9.971  17.556  0.00  0.00    +0.000 OA
ATOM      5  N   UNL     1       0.958   9.488  19.808  0.00  0.00    +0.000 N 
ATOM      6  C   UNL     1       0.111  10.540  20.193  0.00  0.00    +0.000 A 
ATOM      7  C   UNL     1      -0.226  10.491  21.501  0.00  0.00    +0.000 A 
ATOM      8  C   UNL     1      -1.107  11.392  22.301  0.00  0.00    +0.000 C 
ATOM      9  S   UNL     1       0.502   9.122  22.309  0.00  0.00    +0.000 S 
ATOM     10  C   UNL     1       1.239   8.601  20.815  0.00  0.00    +0.000 A 
ATOM     11  N   UNL     1       1.925   7.515  20.735  0.00  0.00    +0.000 NA
ENDROOT
BRANCH   1  12
ATOM     12  C   UNL     1       2.983   5.791  19.350  0.00  0.00    +0.000 C 
BRANCH  12  13
ATOM     13  N   UNL     1       2.844   5.233  17.999  0.00  0.00    +0.000 N 
BRANCH  13  14
ATOM     14  C   UNL     1       4.011   5.091  17.239  0.00  0.00    +0.000 A 
ATOM     15  C   UNL     1       4.768   6.215  16.857  0.00  0.00    +0.000 A 
ATOM     16  C   UNL     1       5.933   6.089  16.095  0.00  0.00    +0.000 A 
ATOM     17  C   UNL     1       6.357   4.831  15.693  0.00  0.00    +0.000 A 
ATOM     18  F   UNL     1       7.469   4.707  14.958  0.00  0.00    +0.000 F 
ATOM     19  C   UNL     1       5.632   3.704  16.041  0.00  0.00    +0.000 A 
ATOM     20  C   UNL     1       4.470   3.837  16.801  0.00  0.00    +0.000 A 
ENDBRANCH  13  14
BRANCH  13  22
ATOM     21  C   UNL     1       1.167   3.427  18.646  0.00  0.00    +0.000 C 
ATOM     22  C   UNL     1       1.681   4.417  17.614  0.00  0.00    +0.000 C 
ENDBRANCH  13  22
ENDBRANCH  12  13
ENDBRANCH   1  12
BRANCH   6  23
ATOM     23  C   UNL     1      -0.348  11.596  19.219  0.00  0.00    +0.000 C 
BRANCH  23  24
ATOM     24  C   UNL     1       0.536  12.849  19.205  0.00  0.00    +0.000 C 
BRANCH  24  25
ATOM     25  O   UNL     1       0.859  13.283  17.891  0.00  0.00    +0.000 OA
ATOM     26  H   UNL     1       0.296  12.777  17.270  0.00  0.00    +0.000 HD
ENDBRANCH  24  25
ENDBRANCH  23  24
ENDBRANCH   6  23
TORSDOF 7
ENDMDL
MODEL 9
REMARK VINA RESULT:      -6.7      1.531      2.384
REMARK  Name = 
REMARK  9 active torsions:
REMARK  status: ('A' for Active; 'I' for Inactive)
REMARK    1  A    between atoms: C_1  and  C_2
REMARK    2  A    between atoms: C_2  and  N_3
REMARK    3  A    between atoms: N_3  and  C_4
REMARK    4  A    between atoms: N_3  and  C_19
REMARK    5  A    between atoms: C_4  and  C_5
REMARK    6  A    between atoms: C_10  and  C_11
REMARK    7  A    between atoms: C_11  and  C_12
REMARK    8  A    between atoms: C_12  and  O_13
REMARK    9  A    between atoms: C_14  and  C_15
REMARK                            x       y       z     vdW  Elec       q    Type
REMARK                         _______ _______ _______ _____ _____    ______ ____
ROOT
ATOM      1  C   UNL     1       2.479   6.811  18.771  0.00  0.00    +0.000 A 
ATOM      2  C   UNL     1       2.522   7.800  17.864  0.00  0.00    +0.000 A 
ATOM      3  C   UNL     1       1.964   9.134  18.199  0.00  0.00    +0.000 A 
ATOM      4  O   UNL     1       1.997  10.010  17.334  0.00  0.00    +0.000 OA
ATOM      5  N   UNL     1       1.419   9.235  19.463  0.00  0.00    +0.000 N 
ATOM      6  C   UNL     1       0.747  10.339  20.014  0.00  0.00    +0.000 A 
ATOM      7  C   UNL     1       0.351  10.131  21.289  0.00  0.00    +0.000 A 
ATOM      8  C   UNL     1      -0.397  11.025  22.221  0.00  0.00    +0.000 C 
ATOM      9  S   UNL     1       0.800   8.539  21.857  0.00  0.00    +0.000 S 
ATOM     10  C   UNL     1       1.500   8.156  20.306  0.00  0.00    +0.000 A 
ATOM     11  N   UNL     1       1.994   6.995  20.048  0.00  0.00    +0.000 NA
ENDROOT
BRANCH   1  12
ATOM     12  C   UNL     1       2.800   5.370  18.399  0.00  0.00    +0.000 C 
BRANCH  12  13
ATOM     13  N   UNL     1       4.238   5.079  18.366  0.00  0.00    +0.000 N 
BRANCH  13  14
ATOM     14  C   UNL     1       4.836   4.930  17.108  0.00  0.00    +0.000 A 
ATOM     15  C   UNL     1       5.002   6.032  16.250  0.00  0.00    +0.000 A 
ATOM     16  C   UNL     1       5.592   5.899  14.990  0.00  0.00    +0.000 A 
ATOM     17  C   UNL     1       6.019   4.650  14.563  0.00  0.00    +0.000 A 
ATOM     18  F   UNL     1       6.580   4.516  13.354  0.00  0.00    +0.000 F 
ATOM     19  C   UNL     1       5.863   3.540  15.376  0.00  0.00    +0.000 A 
ATOM     20  C   UNL     1       5.273   3.681  16.632  0.00  0.00    +0.000 A 
ENDBRANCH  13  14
BRANCH  13  22
ATOM     21  C   UNL     1       6.605   5.518  19.202  0.00  0.00    +0.000 C 
ATOM     22  C   UNL     1       5.120   5.399  19.501  0.00  0.00    +0.000 C 
ENDBRANCH  13  22
ENDBRANCH  12  13
ENDBRANCH   1  12
BRANCH   6  23
ATOM     23  C   UNL     1       0.517  11.608  19.231  0.00  0.00    +0.000 C 
BRANCH  23  24
ATOM     24  C   UNL     1      -0.857  11.675  18.554  0.00  0.00    +0.000 C 
BRANCH  24  25
ATOM     25  O   UNL     1      -0.983  10.766  17.468  0.00  0.00    +0.000 OA
ATOM     26  H   UNL     1      -1.687  11.108  16.881  0.00  0.00    +0.000 HD
ENDBRANCH  24  25
ENDBRANCH  23  24
ENDBRANCH   6  23
TORSDOF 7
ENDMDL
