MODEL 1
REMARK VINA RESULT:      -6.6      0.000      0.000
REMARK  Name = 
REMARK  7 active torsions:
REMARK  status: ('A' for Active; 'I' for Inactive)
REMARK    1  A    between atoms: C_1  and  C_2
REMARK    2  A    between atoms: C_2  and  C_4
REMARK    3  A    between atoms: C_5  and  C_6
REMARK    4  A    between atoms: C_7  and  C_8
REMARK    5  A    between atoms: C_10  and  O_11
REMARK    6  A    between atoms: C_13  and  C_14
REMARK    7  A    between atoms: C_13  and  C_15
REMARK                            x       y       z     vdW  Elec       q    Type
REMARK                         _______ _______ _______ _____ _____    ______ ____
ROOT
ATOM      1  C   UNL     1       3.808   3.776  19.137  0.00  0.00    +0.000 C 
ATOM      2  C   UNL     1       3.803   2.794  20.294  0.00  0.00    +0.000 C 
ATOM      3  C   UNL     1       4.875   1.732  20.344  0.00  0.00    +0.000 C 
ATOM      4  C   UNL     1       2.808   2.729  21.193  0.00  0.00    +0.000 C 
ATOM      5  C   UNL     1       1.609   3.597  21.227  0.00  0.00    +0.000 C 
ATOM      6  C   UNL     1       1.517   4.714  20.194  0.00  0.00    +0.000 C 
ATOM      7  C   UNL     1       2.643   4.861  19.118  0.00  0.00    +0.000 C 
ATOM      8  C   UNL     1       1.956   4.732  17.729  0.00  0.00    +0.000 C 
ATOM      9  C   UNL     1       3.143   6.326  19.223  0.00  0.00    +0.000 C 
ENDROOT
BRANCH   1  11
ATOM     10  C   UNL     1       5.812   4.349  17.655  0.00  0.00    +0.000 C 
ATOM     11  C   UNL     1       5.200   4.329  18.856  0.00  0.00    +0.000 C 
BRANCH  10  13
ATOM     12  C   UNL     1       7.407   6.315  17.986  0.00  0.00    +0.000 C 
ATOM     13  C   UNL     1       7.201   4.895  17.520  0.00  0.00    +0.000 C 
ATOM     14  O   UNL     1       8.107   4.237  17.031  0.00  0.00    +0.000 OA
ENDBRANCH  10  13
ENDBRANCH   1  11
BRANCH   5  15
ATOM     15  O   UNL     1       0.472   2.747  21.092  0.00  0.00    +0.000 OA
ATOM     16  H   UNL     1       0.280   2.387  21.975  0.00  0.00    +0.000 HD
ENDBRANCH   5  15
TORSDOF 3
ENDMDL
MODEL 2
REMARK VINA RESULT:      -6.5      1.831      3.091
REMARK  Name = 
REMARK  7 active torsions:
REMARK  status: ('A' for Active; 'I' for Inactive)
REMARK    1  A    between atoms: C_1  and  C_2
REMARK    2  A    between atoms: C_2  and  C_4
REMARK    3  A    between atoms: C_5  and  C_6
REMARK    4  A    between atoms: C_7  and  C_8
REMARK    5  A    between atoms: C_10  and  O_11
REMARK    6  A    between atoms: C_13  and  C_14
REMARK    7  A    between atoms: C_13  and  C_15
REMARK                            x       y       z     vdW  Elec       q    Type
REMARK                         _______ _______ _______ _____ _____    ______ ____
ROOT
ATOM      1  C   UNL     1       3.397   4.253  19.025  0.00  0.00    +0.000 C 
ATOM      2  C   UNL     1       2.335   5.102  19.699  0.00  0.00    +0.000 C 
ATOM      3  C   UNL     1       2.486   6.605  19.668  0.00  0.00    +0.000 C 
ATOM      4  C   UNL     1       1.352   4.583  20.450  0.00  0.00    +0.000 C 
ATOM      5  C   UNL     1       1.122   3.142  20.706  0.00  0.00    +0.000 C 
ATOM      6  C   UNL     1       2.039   2.147  20.006  0.00  0.00    +0.000 C 
ATOM      7  C   UNL     1       3.204   2.675  19.106  0.00  0.00    +0.000 C 
ATOM      8  C   UNL     1       4.524   2.110  19.704  0.00  0.00    +0.000 C 
ATOM      9  C   UNL     1       3.021   1.989  17.727  0.00  0.00    +0.000 C 
ENDROOT
BRANCH   1  11
ATOM     10  C   UNL     1       5.006   5.113  17.231  0.00  0.00    +0.000 C 
ATOM     11  C   UNL     1       3.765   4.781  17.643  0.00  0.00    +0.000 C 
BRANCH  10  13
ATOM     12  C   UNL     1       5.572   4.639  14.787  0.00  0.00    +0.000 C 
ATOM     13  C   UNL     1       5.228   5.652  15.851  0.00  0.00    +0.000 C 
ATOM     14  O   UNL     1       5.165   6.848  15.609  0.00  0.00    +0.000 OA
ENDBRANCH  10  13
ENDBRANCH   1  11
BRANCH   5  15
ATOM     15  O   UNL     1       1.218   2.947  22.116  0.00  0.00    +0.000 OA
ATOM     16  H   UNL     1       1.162   3.826  22.528  0.00  0.00    +0.000 HD
ENDBRANCH   5  15
TORSDOF 3
ENDMDL
MODEL 3
REMARK VINA RESULT:      -6.5      1.602      3.078
REMARK  Name = 
REMARK  7 active torsions:
REMARK  status: ('A' for Active; 'I' for Inactive)
REMARK    1  A    between atoms: C_1  and  C_2
REMARK    2  A    between atoms: C_2  and  C_4
REMARK    3  A    between atoms: C_5  and  C_6
REMARK    4  A    between atoms: C_7  and  C_8
REMARK    5  A    between atoms: C_10  and  O_11
REMARK    6  A    between atoms: C_13  and  C_14
REMARK    7  A    between atoms: C_13  and  C_15
REMARK                            x       y       z     vdW  Elec       q    Type
REMARK                         _______ _______ _______ _____ _____    ______ ____
ROOT
ATOM      1  C   UNL     1       3.766   4.002  18.479  0.00  0.00    +0.000 C 
ATOM      2  C   UNL     1       2.548   4.907  18.495  0.00  0.00    +0.000 C 
ATOM      3  C   UNL     1       2.724   6.360  18.123  0.00  0.00    +0.000 C 
ATOM      4  C   UNL     1       1.353   4.518  18.966  0.00  0.00    +0.000 C 
ATOM      5  C   UNL     1       1.024   3.175  19.496  0.00  0.00    +0.000 C 
ATOM      6  C   UNL     1       2.113   2.111  19.446  0.00  0.00    +0.000 C 
ATOM      7  C   UNL     1       3.531   2.486  18.901  0.00  0.00    +0.000 C 
ATOM      8  C   UNL     1       4.543   2.195  20.045  0.00  0.00    +0.000 C 
ATOM      9  C   UNL     1       3.838   1.461  17.777  0.00  0.00    +0.000 C 
ENDROOT
BRANCH   1  11
ATOM     10  C   UNL     1       5.869   4.669  17.186  0.00  0.00    +0.000 C 
ATOM     11  C   UNL     1       4.608   4.192  17.224  0.00  0.00    +0.000 C 
BRANCH  10  13
ATOM     12  C   UNL     1       6.136   3.927  14.758  0.00  0.00    +0.000 C 
ATOM     13  C   UNL     1       6.579   4.837  15.877  0.00  0.00    +0.000 C 
ATOM     14  O   UNL     1       7.486   5.643  15.735  0.00  0.00    +0.000 OA
ENDBRANCH  10  13
ENDBRANCH   1  11
BRANCH   5  15
ATOM     15  O   UNL     1       0.609   3.350  20.850  0.00  0.00    +0.000 OA
ATOM     16  H   UNL     1       1.040   4.159  21.177  0.00  0.00    +0.000 HD
ENDBRANCH   5  15
TORSDOF 3
ENDMDL
MODEL 4
REMARK VINA RESULT:      -6.4      0.911      1.087
REMARK  Name = 
REMARK  7 active torsions:
REMARK  status: ('A' for Active; 'I' for Inactive)
REMARK    1  A    between atoms: C_1  and  C_2
REMARK    2  A    between atoms: C_2  and  C_4
REMARK    3  A    between atoms: C_5  and  C_6
REMARK    4  A    between atoms: C_7  and  C_8
REMARK    5  A    between atoms: C_10  and  O_11
REMARK    6  A    between atoms: C_13  and  C_14
REMARK    7  A    between atoms: C_13  and  C_15
REMARK                            x       y       z     vdW  Elec       q    Type
REMARK                         _______ _______ _______ _____ _____    ______ ____
ROOT
ATOM      1  C   UNL     1       3.625   3.602  18.714  0.00  0.00    +0.000 C 
ATOM      2  C   UNL     1       3.832   2.725  19.936  0.00  0.00    +0.000 C 
ATOM      3  C   UNL     1       4.877   1.637  19.873  0.00  0.00    +0.000 C 
ATOM      4  C   UNL     1       3.033   2.770  21.012  0.00  0.00    +0.000 C 
ATOM      5  C   UNL     1       1.878   3.677  21.200  0.00  0.00    +0.000 C 
ATOM      6  C   UNL     1       1.601   4.702  20.107  0.00  0.00    +0.000 C 
ATOM      7  C   UNL     1       2.495   4.719  18.824  0.00  0.00    +0.000 C 
ATOM      8  C   UNL     1       1.547   4.492  17.612  0.00  0.00    +0.000 C 
ATOM      9  C   UNL     1       3.028   6.171  18.695  0.00  0.00    +0.000 C 
ENDROOT
BRANCH   1  11
ATOM     10  C   UNL     1       5.330   3.929  16.837  0.00  0.00    +0.000 C 
ATOM     11  C   UNL     1       4.942   4.083  18.119  0.00  0.00    +0.000 C 
BRANCH  10  13
ATOM     12  C   UNL     1       6.801   4.751  14.918  0.00  0.00    +0.000 C 
ATOM     13  C   UNL     1       6.671   4.422  16.385  0.00  0.00    +0.000 C 
ATOM     14  O   UNL     1       7.614   4.522  17.156  0.00  0.00    +0.000 OA
ENDBRANCH  10  13
ENDBRANCH   1  11
BRANCH   5  15
ATOM     15  O   UNL     1       0.723   2.856  21.367  0.00  0.00    +0.000 OA
ATOM     16  H   UNL     1       0.723   2.550  22.290  0.00  0.00    +0.000 HD
ENDBRANCH   5  15
TORSDOF 3
ENDMDL
MODEL 5
REMARK VINA RESULT:      -6.3      1.151      1.151
REMARK  Name = 
REMARK  7 active torsions:
REMARK  status: ('A' for Active; 'I' for Inactive)
REMARK    1  A    between atoms: C_1  and  C_2
REMARK    2  A    between atoms: C_2  and  C_4
REMARK    3  A    between atoms: C_5  and  C_6
REMARK    4  A    between atoms: C_7  and  C_8
REMARK    5  A    between atoms: C_10  and  O_11
REMARK    6  A    between atoms: C_13  and  C_14
REMARK    7  A    between atoms: C_13  and  C_15
REMARK                            x       y       z     vdW  Elec       q    Type
REMARK                         _______ _______ _______ _____ _____    ______ ____
ROOT
ATOM      1  C   UNL     1       3.514   3.745  18.477  0.00  0.00    +0.000 C 
ATOM      2  C   UNL     1       3.178   2.326  18.898  0.00  0.00    +0.000 C 
ATOM      3  C   UNL     1       4.014   1.194  18.350  0.00  0.00    +0.000 C 
ATOM      4  C   UNL     1       2.086   2.014  19.612  0.00  0.00    +0.000 C 
ATOM      5  C   UNL     1       1.080   2.972  20.124  0.00  0.00    +0.000 C 
ATOM      6  C   UNL     1       1.331   4.456  19.881  0.00  0.00    +0.000 C 
ATOM      7  C   UNL     1       2.589   4.899  19.064  0.00  0.00    +0.000 C 
ATOM      8  C   UNL     1       2.068   5.700  17.837  0.00  0.00    +0.000 C 
ATOM      9  C   UNL     1       3.341   5.917  19.962  0.00  0.00    +0.000 C 
ENDROOT
BRANCH   1  11
ATOM     10  C   UNL     1       5.764   4.529  17.547  0.00  0.00    +0.000 C 
ATOM     11  C   UNL     1       5.010   4.028  18.547  0.00  0.00    +0.000 C 
BRANCH  10  13
ATOM     12  C   UNL     1       7.644   5.648  18.863  0.00  0.00    +0.000 C 
ATOM     13  C   UNL     1       7.236   4.731  17.736  0.00  0.00    +0.000 C 
ATOM     14  O   UNL     1       8.059   4.208  16.998  0.00  0.00    +0.000 OA
ENDBRANCH  10  13
ENDBRANCH   1  11
BRANCH   5  15
ATOM     15  O   UNL     1      -0.173   2.615  19.543  0.00  0.00    +0.000 OA
ATOM     16  H   UNL     1      -0.796   2.471  20.277  0.00  0.00    +0.000 HD
ENDBRANCH   5  15
TORSDOF 3
ENDMDL
MODEL 6
REMARK VINA RESULT:      -6.2      1.597      2.814
REMARK  Name = 
REMARK  7 active torsions:
REMARK  status: ('A' for Active; 'I' for Inactive)
REMARK    1  A    between atoms: C_1  and  C_2
REMARK    2  A    between atoms: C_2  and  C_4
REMARK    3  A    between atoms: C_5  and  C_6
REMARK    4  A    between atoms: C_7  and  C_8
REMARK    5  A    between atoms: C_10  and  O_11
REMARK    6  A    between atoms: C_13  and  C_14
REMARK    7  A    between atoms: C_13  and  C_15
REMARK                            x       y       z     vdW  Elec       q    Type
REMARK                         _______ _______ _______ _____ _____    ______ ____
ROOT
ATOM      1  C   UNL     1       3.560   4.615  19.325  0.00  0.00    +0.000 C 
ATOM      2  C   UNL     1       2.298   5.306  19.808  0.00  0.00    +0.000 C 
ATOM      3  C   UNL     1       2.347   6.790  20.081  0.00  0.00    +0.000 C 
ATOM      4  C   UNL     1       1.184   4.639  20.147  0.00  0.00    +0.000 C 
ATOM      5  C   UNL     1       0.992   3.172  20.073  0.00  0.00    +0.000 C 
ATOM      6  C   UNL     1       2.133   2.340  19.501  0.00  0.00    +0.000 C 
ATOM      7  C   UNL     1       3.462   3.046  19.074  0.00  0.00    +0.000 C 
ATOM      8  C   UNL     1       4.602   2.404  19.914  0.00  0.00    +0.000 C 
ATOM      9  C   UNL     1       3.714   2.625  17.602  0.00  0.00    +0.000 C 
ENDROOT
BRANCH   1  11
ATOM     10  C   UNL     1       5.561   5.741  18.198  0.00  0.00    +0.000 C 
ATOM     11  C   UNL     1       4.257   5.397  18.218  0.00  0.00    +0.000 C 
BRANCH  10  13
ATOM     12  C   UNL     1       7.386   7.307  17.339  0.00  0.00    +0.000 C 
ATOM     13  C   UNL     1       6.117   6.540  17.059  0.00  0.00    +0.000 C 
ATOM     14  O   UNL     1       5.555   6.594  15.975  0.00  0.00    +0.000 OA
ENDBRANCH  10  13
ENDBRANCH   1  11
BRANCH   5  15
ATOM     15  O   UNL     1       0.709   2.720  21.397  0.00  0.00    +0.000 OA
ATOM     16  H   UNL     1       0.704   3.506  21.970  0.00  0.00    +0.000 HD
ENDBRANCH   5  15
TORSDOF 3
ENDMDL
MODEL 7
REMARK VINA RESULT:      -6.1      2.637      4.579
REMARK  Name = 
REMARK  7 active torsions:
REMARK  status: ('A' for Active; 'I' for Inactive)
REMARK    1  A    between atoms: C_1  and  C_2
REMARK    2  A    between atoms: C_2  and  C_4
REMARK    3  A    between atoms: C_5  and  C_6
REMARK    4  A    between atoms: C_7  and  C_8
REMARK    5  A    between atoms: C_10  and  O_11
REMARK    6  A    between atoms: C_13  and  C_14
REMARK    7  A    between atoms: C_13  and  C_15
REMARK                            x       y       z     vdW  Elec       q    Type
REMARK                         _______ _______ _______ _____ _____    ______ ____
ROOT
ATOM      1  C   UNL     1       3.037   4.659  19.029  0.00  0.00    +0.000 C 
ATOM      2  C   UNL     1       2.055   3.512  19.181  0.00  0.00    +0.000 C 
ATOM      3  C   UNL     1       0.866   3.697  20.094  0.00  0.00    +0.000 C 
ATOM      4  C   UNL     1       2.269   2.293  18.665  0.00  0.00    +0.000 C 
ATOM      5  C   UNL     1       3.441   1.885  17.855  0.00  0.00    +0.000 C 
ATOM      6  C   UNL     1       4.470   2.956  17.516  0.00  0.00    +0.000 C 
ATOM      7  C   UNL     1       4.285   4.406  18.075  0.00  0.00    +0.000 C 
ATOM      8  C   UNL     1       5.549   4.725  18.923  0.00  0.00    +0.000 C 
ATOM      9  C   UNL     1       4.339   5.346  16.842  0.00  0.00    +0.000 C 
ENDROOT
BRANCH   1  11
ATOM     10  C   UNL     1       2.550   7.118  19.537  0.00  0.00    +0.000 C 
ATOM     11  C   UNL     1       2.335   5.995  18.821  0.00  0.00    +0.000 C 
BRANCH  10  13
ATOM     12  C   UNL     1       1.855   8.896  17.840  0.00  0.00    +0.000 C 
ATOM     13  C   UNL     1       1.766   8.363  19.249  0.00  0.00    +0.000 C 
ATOM     14  O   UNL     1       1.118   8.931  20.116  0.00  0.00    +0.000 OA
ENDBRANCH  10  13
ENDBRANCH   1  11
BRANCH   5  15
ATOM     15  O   UNL     1       4.089   0.827  18.560  0.00  0.00    +0.000 OA
ATOM     16  H   UNL     1       4.757   0.454  17.959  0.00  0.00    +0.000 HD
ENDBRANCH   5  15
TORSDOF 3
ENDMDL
MODEL 8
REMARK VINA RESULT:      -6.1      2.867      4.387
REMARK  Name = 
REMARK  7 active torsions:
REMARK  status: ('A' for Active; 'I' for Inactive)
REMARK    1  A    between atoms: C_1  and  C_2
REMARK    2  A    between atoms: C_2  and  C_4
REMARK    3  A    between atoms: C_5  and  C_6
REMARK    4  A    between atoms: C_7  and  C_8
REMARK    5  A    between atoms: C_10  and  O_11
REMARK    6  A    between atoms: C_13  and  C_14
REMARK    7  A    between atoms: C_13  and  C_15
REMARK                            x       y       z     vdW  Elec       q    Type
REMARK                         _______ _______ _______ _____ _____    ______ ____
ROOT
ATOM      1  C   UNL     1       3.040   5.183  18.592  0.00  0.00    +0.000 C 
ATOM      2  C   UNL     1       4.537   4.936  18.650  0.00  0.00    +0.000 C 
ATOM      3  C   UNL     1       5.453   5.882  17.909  0.00  0.00    +0.000 C 
ATOM      4  C   UNL     1       5.076   3.838  19.199  0.00  0.00    +0.000 C 
ATOM      5  C   UNL     1       4.331   2.737  19.853  0.00  0.00    +0.000 C 
ATOM      6  C   UNL     1       2.819   2.886  19.978  0.00  0.00    +0.000 C 
ATOM      7  C   UNL     1       2.117   4.145  19.369  0.00  0.00    +0.000 C 
ATOM      8  C   UNL     1       1.084   3.625  18.330  0.00  0.00    +0.000 C 
ATOM      9  C   UNL     1       1.295   4.773  20.525  0.00  0.00    +0.000 C 
ENDROOT
BRANCH   1  11
ATOM     10  C   UNL     1       2.153   7.482  17.908  0.00  0.00    +0.000 C 
ATOM     11  C   UNL     1       2.688   6.647  18.823  0.00  0.00    +0.000 C 
BRANCH  10  13
ATOM     12  C   UNL     1       1.217   9.164  19.586  0.00  0.00    +0.000 C 
ATOM     13  C   UNL     1       1.883   8.915  18.255  0.00  0.00    +0.000 C 
ATOM     14  O   UNL     1       2.158   9.826  17.489  0.00  0.00    +0.000 OA
ENDBRANCH  10  13
ENDBRANCH   1  11
BRANCH   5  15
ATOM     15  O   UNL     1       4.619   1.545  19.124  0.00  0.00    +0.000 OA
ATOM     16  H   UNL     1       5.389   1.131  19.552  0.00  0.00    +0.000 HD
ENDBRANCH   5  15
TORSDOF 3
ENDMDL
MODEL 9
REMARK VINA RESULT:      -6.1      1.542      3.083
REMARK  Name = 
REMARK  7 active torsions:
REMARK  status: ('A' for Active; 'I' for Inactive)
REMARK    1  A    between atoms: C_1  and  C_2
REMARK    2  A    between atoms: C_2  and  C_4
REMARK    3  A    between atoms: C_5  and  C_6
REMARK    4  A    between atoms: C_7  and  C_8
REMARK    5  A    between atoms: C_10  and  O_11
REMARK    6  A    between atoms: C_13  and  C_14
REMARK    7  A    between atoms: C_13  and  C_15
REMARK                            x       y       z     vdW  Elec       q    Type
REMARK                         _______ _______ _______ _____ _____    ______ ____
ROOT
ATOM      1  C   UNL     1       3.210   4.539  19.670  0.00  0.00    +0.000 C 
ATOM      2  C   UNL     1       2.448   4.884  18.404  0.00  0.00    +0.000 C 
ATOM      3  C   UNL     1       2.449   6.318  17.929  0.00  0.00    +0.000 C 
ATOM      4  C   UNL     1       1.650   4.011  17.770  0.00  0.00    +0.000 C 
ATOM      5  C   UNL     1       1.418   2.602  18.163  0.00  0.00    +0.000 C 
ATOM      6  C   UNL     1       2.201   2.065  19.355  0.00  0.00    +0.000 C 
ATOM      7  C   UNL     1       3.158   3.020  20.141  0.00  0.00    +0.000 C 
ATOM      8  C   UNL     1       2.661   3.042  21.614  0.00  0.00    +0.000 C 
ATOM      9  C   UNL     1       4.541   2.315  20.158  0.00  0.00    +0.000 C 
ENDROOT
BRANCH   1  11
ATOM     10  C   UNL     1       5.575   4.960  18.790  0.00  0.00    +0.000 C 
ATOM     11  C   UNL     1       4.598   5.169  19.696  0.00  0.00    +0.000 C 
BRANCH  10  13
ATOM     12  C   UNL     1       7.339   6.537  17.831  0.00  0.00    +0.000 C 
ATOM     13  C   UNL     1       6.911   5.618  18.949  0.00  0.00    +0.000 C 
ATOM     14  O   UNL     1       7.627   5.399  19.915  0.00  0.00    +0.000 OA
ENDBRANCH  10  13
ENDBRANCH   1  11
BRANCH   5  15
ATOM     15  O   UNL     1       0.022   2.465  18.426  0.00  0.00    +0.000 OA
ATOM     16  H   UNL     1      -0.398   3.305  18.171  0.00  0.00    +0.000 HD
ENDBRANCH   5  15
TORSDOF 3
ENDMDL
