MODEL 1
REMARK VINA RESULT:      -7.8      0.000      0.000
REMARK  Name = 
REMARK  5 active torsions:
REMARK  status: ('A' for Active; 'I' for Inactive)
REMARK    1  A    between atoms: C_1  and  O_2
REMARK    2  A    between atoms: O_2  and  C_3
REMARK    3  A    between atoms: C_8  and  N_9
REMARK    4  A    between atoms: C_10  and  C_12
REMARK    5  A    between atoms: C_14  and  C_15
REMARK                            x       y       z     vdW  Elec       q    Type
REMARK                         _______ _______ _______ _____ _____    ______ ____
ROOT
ATOM      1  N   UNL     1       3.331   4.348  17.394  0.00  0.00    +0.000 N 
ATOM      2  C   UNL     1       4.313   3.511  16.854  0.00  0.00    +0.000 C 
ATOM      3  O   UNL     1       4.300   2.304  17.127  0.00  0.00    +0.000 OA
ATOM      4  H   UNL     1       3.198   5.278  17.020  0.00  0.00    +0.000 HD
ENDROOT
BRANCH   2   5
ATOM      5  C   UNL     1       5.550   3.997  16.024  0.00  0.00    +0.000 A 
ATOM      6  C   UNL     1       6.377   4.656  16.943  0.00  0.00    +0.000 A 
ATOM      7  C   UNL     1       7.106   5.738  16.498  0.00  0.00    +0.000 A 
ATOM      8  C   UNL     1       6.346   7.058  16.469  0.00  0.00    +0.000 C 
ATOM      9  N   UNL     1       7.779   5.597  15.372  0.00  0.00    +0.000 NA
ATOM     10  C   UNL     1       7.168   4.910  14.435  0.00  0.00    +0.000 A 
ATOM     11  C   UNL     1       7.702   5.207  13.193  0.00  0.00    +0.000 A 
ATOM     12  C   UNL     1       7.234   4.622  12.048  0.00  0.00    +0.000 A 
ATOM     13  C   UNL     1       6.240   3.669  12.185  0.00  0.00    +0.000 A 
ATOM     14  C   UNL     1       5.629   3.383  13.447  0.00  0.00    +0.000 A 
ATOM     15  C   UNL     1       6.017   4.057  14.642  0.00  0.00    +0.000 A 
ENDBRANCH   2   5
BRANCH   1  21
ATOM     16  C   UNL     1       2.398   4.686  19.680  0.00  0.00    +0.000 A 
ATOM     17  C   UNL     1       1.605   4.296  20.792  0.00  0.00    +0.000 A 
ATOM     18  C   UNL     1       0.676   3.260  20.685  0.00  0.00    +0.000 A 
ATOM     19  C   UNL     1       0.606   2.579  19.475  0.00  0.00    +0.000 A 
ATOM     20  C   UNL     1       1.450   2.913  18.390  0.00  0.00    +0.000 A 
ATOM     21  C   UNL     1       2.385   3.973  18.457  0.00  0.00    +0.000 A 
BRANCH  16  23
ATOM     22  C   UNL     1       2.405   7.012  19.604  0.00  0.00    +0.000 C 
ATOM     23  O   UNL     1       3.180   5.811  19.750  0.00  0.00    +0.000 OA
ENDBRANCH  16  23
ENDBRANCH   1  21
TORSDOF 3
ENDMDL
MODEL 2
REMARK VINA RESULT:      -7.8      1.370      1.733
REMARK  Name = 
REMARK  5 active torsions:
REMARK  status: ('A' for Active; 'I' for Inactive)
REMARK    1  A    between atoms: C_1  and  O_2
REMARK    2  A    between atoms: O_2  and  C_3
REMARK    3  A    between atoms: C_8  and  N_9
REMARK    4  A    between atoms: C_10  and  C_12
REMARK    5  A    between atoms: C_14  and  C_15
REMARK                            x       y       z     vdW  Elec       q    Type
REMARK                         _______ _______ _______ _____ _____    ______ ____
ROOT
ATOM      1  N   UNL     1       3.723   4.423  18.183  0.00  0.00    +0.000 N 
ATOM      2  C   UNL     1       4.265   3.621  17.174  0.00  0.00    +0.000 C 
ATOM      3  O   UNL     1       3.857   2.461  17.034  0.00  0.00    +0.000 OA
ATOM      4  H   UNL     1       3.885   5.421  18.177  0.00  0.00    +0.000 HD
ENDROOT
BRANCH   2   5
ATOM      5  C   UNL     1       5.480   4.016  16.266  0.00  0.00    +0.000 A 
ATOM      6  C   UNL     1       6.394   4.644  17.124  0.00  0.00    +0.000 A 
ATOM      7  C   UNL     1       7.158   5.672  16.615  0.00  0.00    +0.000 A 
ATOM      8  C   UNL     1       6.475   7.034  16.597  0.00  0.00    +0.000 C 
ATOM      9  N   UNL     1       7.756   5.470  15.456  0.00  0.00    +0.000 NA
ATOM     10  C   UNL     1       7.056   4.802  14.570  0.00  0.00    +0.000 A 
ATOM     11  C   UNL     1       7.535   5.042  13.295  0.00  0.00    +0.000 A 
ATOM     12  C   UNL     1       6.971   4.464  12.190  0.00  0.00    +0.000 A 
ATOM     13  C   UNL     1       5.933   3.573  12.403  0.00  0.00    +0.000 A 
ATOM     14  C   UNL     1       5.378   3.349  13.704  0.00  0.00    +0.000 A 
ATOM     15  C   UNL     1       5.871   4.022  14.860  0.00  0.00    +0.000 A 
ENDBRANCH   2   5
BRANCH   1  21
ATOM     16  C   UNL     1       3.378   3.102  20.268  0.00  0.00    +0.000 A 
ATOM     17  C   UNL     1       2.562   2.506  21.265  0.00  0.00    +0.000 A 
ATOM     18  C   UNL     1       1.210   2.835  21.380  0.00  0.00    +0.000 A 
ATOM     19  C   UNL     1       0.677   3.711  20.441  0.00  0.00    +0.000 A 
ATOM     20  C   UNL     1       1.469   4.245  19.397  0.00  0.00    +0.000 A 
ATOM     21  C   UNL     1       2.847   3.951  19.267  0.00  0.00    +0.000 A 
BRANCH  16  23
ATOM     22  C   UNL     1       5.069   1.531  20.561  0.00  0.00    +0.000 C 
ATOM     23  O   UNL     1       4.734   2.899  20.273  0.00  0.00    +0.000 OA
ENDBRANCH  16  23
ENDBRANCH   1  21
TORSDOF 3
ENDMDL
MODEL 3
REMARK VINA RESULT:      -7.6      3.373      5.890
REMARK  Name = 
REMARK  5 active torsions:
REMARK  status: ('A' for Active; 'I' for Inactive)
REMARK    1  A    between atoms: C_1  and  O_2
REMARK    2  A    between atoms: O_2  and  C_3
REMARK    3  A    between atoms: C_8  and  N_9
REMARK    4  A    between atoms: C_10  and  C_12
REMARK    5  A    between atoms: C_14  and  C_15
REMARK                            x       y       z     vdW  Elec       q    Type
REMARK                         _______ _______ _______ _____ _____    ______ ____
ROOT
ATOM      1  N   UNL     1       1.654   8.512  19.439  0.00  0.00    +0.000 N 
ATOM      2  C   UNL     1       2.372   8.097  18.313  0.00  0.00    +0.000 C 
ATOM      3  O   UNL     1       2.366   8.799  17.294  0.00  0.00    +0.000 OA
ATOM      4  H   UNL     1       1.817   8.071  20.333  0.00  0.00    +0.000 HD
ENDROOT
BRANCH   2   5
ATOM      5  C   UNL     1       3.091   6.712  18.166  0.00  0.00    +0.000 A 
ATOM      6  C   UNL     1       4.443   7.017  17.953  0.00  0.00    +0.000 A 
ATOM      7  C   UNL     1       5.172   6.185  17.131  0.00  0.00    +0.000 A 
ATOM      8  C   UNL     1       5.032   6.467  15.641  0.00  0.00    +0.000 C 
ATOM      9  N   UNL     1       5.074   4.885  17.339  0.00  0.00    +0.000 NA
ATOM     10  C   UNL     1       3.874   4.454  17.649  0.00  0.00    +0.000 A 
ATOM     11  C   UNL     1       3.765   3.100  17.386  0.00  0.00    +0.000 A 
ATOM     12  C   UNL     1       2.607   2.410  17.620  0.00  0.00    +0.000 A 
ATOM     13  C   UNL     1       1.558   3.110  18.193  0.00  0.00    +0.000 A 
ATOM     14  C   UNL     1       1.621   4.521  18.421  0.00  0.00    +0.000 A 
ATOM     15  C   UNL     1       2.774   5.289  18.083  0.00  0.00    +0.000 A 
ENDBRANCH   2   5
BRANCH   1  21
ATOM     16  C   UNL     1       0.414  10.270  20.697  0.00  0.00    +0.000 A 
ATOM     17  C   UNL     1      -0.599  11.256  20.823  0.00  0.00    +0.000 A 
ATOM     18  C   UNL     1      -1.291  11.725  19.703  0.00  0.00    +0.000 A 
ATOM     19  C   UNL     1      -1.001  11.140  18.476  0.00  0.00    +0.000 A 
ATOM     20  C   UNL     1      -0.048  10.101  18.360  0.00  0.00    +0.000 A 
ATOM     21  C   UNL     1       0.687   9.621  19.469  0.00  0.00    +0.000 A 
BRANCH  16  23
ATOM     22  C   UNL     1       0.416   9.458  22.878  0.00  0.00    +0.000 C 
ATOM     23  O   UNL     1       1.198   9.944  21.774  0.00  0.00    +0.000 OA
ENDBRANCH  16  23
ENDBRANCH   1  21
TORSDOF 3
ENDMDL
MODEL 4
REMARK VINA RESULT:      -7.4      1.029      1.127
REMARK  Name = 
REMARK  5 active torsions:
REMARK  status: ('A' for Active; 'I' for Inactive)
REMARK    1  A    between atoms: C_1  and  O_2
REMARK    2  A    between atoms: O_2  and  C_3
REMARK    3  A    between atoms: C_8  and  N_9
REMARK    4  A    between atoms: C_10  and  C_12
REMARK    5  A    between atoms: C_14  and  C_15
REMARK                            x       y       z     vdW  Elec       q    Type
REMARK                         _______ _______ _______ _____ _____    ______ ____
ROOT
ATOM      1  N   UNL     1       4.266   4.296  18.637  0.00  0.00    +0.000 N 
ATOM      2  C   UNL     1       4.281   3.992  17.272  0.00  0.00    +0.000 C 
ATOM      3  O   UNL     1       3.320   3.394  16.771  0.00  0.00    +0.000 OA
ATOM      4  H   UNL     1       4.928   4.959  19.014  0.00  0.00    +0.000 HD
ENDROOT
BRANCH   2   5
ATOM      5  C   UNL     1       5.500   4.221  16.314  0.00  0.00    +0.000 A 
ATOM      6  C   UNL     1       6.508   4.767  17.120  0.00  0.00    +0.000 A 
ATOM      7  C   UNL     1       7.363   5.687  16.553  0.00  0.00    +0.000 A 
ATOM      8  C   UNL     1       6.837   7.116  16.509  0.00  0.00    +0.000 C 
ATOM      9  N   UNL     1       7.895   5.383  15.384  0.00  0.00    +0.000 NA
ATOM     10  C   UNL     1       7.094   4.771  14.544  0.00  0.00    +0.000 A 
ATOM     11  C   UNL     1       7.553   4.917  13.247  0.00  0.00    +0.000 A 
ATOM     12  C   UNL     1       6.890   4.373  12.181  0.00  0.00    +0.000 A 
ATOM     13  C   UNL     1       5.767   3.611  12.456  0.00  0.00    +0.000 A 
ATOM     14  C   UNL     1       5.236   3.491  13.780  0.00  0.00    +0.000 A 
ATOM     15  C   UNL     1       5.840   4.139  14.896  0.00  0.00    +0.000 A 
ENDBRANCH   2   5
BRANCH   1  21
ATOM     16  C   UNL     1       2.129   4.516  19.900  0.00  0.00    +0.000 A 
ATOM     17  C   UNL     1       1.220   4.136  20.922  0.00  0.00    +0.000 A 
ATOM     18  C   UNL     1       1.376   2.931  21.612  0.00  0.00    +0.000 A 
ATOM     19  C   UNL     1       2.489   2.156  21.310  0.00  0.00    +0.000 A 
ATOM     20  C   UNL     1       3.439   2.570  20.348  0.00  0.00    +0.000 A 
ATOM     21  C   UNL     1       3.299   3.771  19.614  0.00  0.00    +0.000 A 
BRANCH  16  23
ATOM     22  C   UNL     1       2.218   6.839  19.785  0.00  0.00    +0.000 C 
ATOM     23  O   UNL     1       1.869   5.614  19.119  0.00  0.00    +0.000 OA
ENDBRANCH  16  23
ENDBRANCH   1  21
TORSDOF 3
ENDMDL
MODEL 5
REMARK VINA RESULT:      -7.4      3.377      5.855
REMARK  Name = 
REMARK  5 active torsions:
REMARK  status: ('A' for Active; 'I' for Inactive)
REMARK    1  A    between atoms: C_1  and  O_2
REMARK    2  A    between atoms: O_2  and  C_3
REMARK    3  A    between atoms: C_8  and  N_9
REMARK    4  A    between atoms: C_10  and  C_12
REMARK    5  A    between atoms: C_14  and  C_15
REMARK                            x       y       z     vdW  Elec       q    Type
REMARK                         _______ _______ _______ _____ _____    ______ ____
ROOT
ATOM      1  N   UNL     1       1.657   8.603  19.337  0.00  0.00    +0.000 N 
ATOM      2  C   UNL     1       2.398   8.280  18.196  0.00  0.00    +0.000 C 
ATOM      3  O   UNL     1       2.379   9.044  17.222  0.00  0.00    +0.000 OA
ATOM      4  H   UNL     1       1.825   8.112  20.205  0.00  0.00    +0.000 HD
ENDROOT
BRANCH   2   5
ATOM      5  C   UNL     1       3.161   6.930  17.972  0.00  0.00    +0.000 A 
ATOM      6  C   UNL     1       2.217   5.925  18.224  0.00  0.00    +0.000 A 
ATOM      7  C   UNL     1       2.659   4.750  18.793  0.00  0.00    +0.000 A 
ATOM      8  C   UNL     1       2.801   4.782  20.309  0.00  0.00    +0.000 C 
ATOM      9  N   UNL     1       3.729   4.184  18.267  0.00  0.00    +0.000 NA
ATOM     10  C   UNL     1       4.674   5.011  17.887  0.00  0.00    +0.000 A 
ATOM     11  C   UNL     1       5.888   4.352  17.803  0.00  0.00    +0.000 A 
ATOM     12  C   UNL     1       7.035   4.997  17.431  0.00  0.00    +0.000 A 
ATOM     13  C   UNL     1       6.925   6.331  17.078  0.00  0.00    +0.000 A 
ATOM     14  C   UNL     1       5.696   7.053  17.210  0.00  0.00    +0.000 A 
ATOM     15  C   UNL     1       4.509   6.438  17.703  0.00  0.00    +0.000 A 
ENDBRANCH   2   5
BRANCH   1  21
ATOM     16  C   UNL     1       0.425  10.311  20.670  0.00  0.00    +0.000 A 
ATOM     17  C   UNL     1      -0.614  11.261  20.855  0.00  0.00    +0.000 A 
ATOM     18  C   UNL     1      -1.379  11.710  19.777  0.00  0.00    +0.000 A 
ATOM     19  C   UNL     1      -1.134  11.142  18.532  0.00  0.00    +0.000 A 
ATOM     20  C   UNL     1      -0.154  10.137  18.359  0.00  0.00    +0.000 A 
ATOM     21  C   UNL     1       0.655   9.677  19.425  0.00  0.00    +0.000 A 
BRANCH  16  23
ATOM     22  C   UNL     1       0.584   9.392  22.802  0.00  0.00    +0.000 C 
ATOM     23  O   UNL     1       1.275  10.008  21.703  0.00  0.00    +0.000 OA
ENDBRANCH  16  23
ENDBRANCH   1  21
TORSDOF 3
ENDMDL
MODEL 6
REMARK VINA RESULT:      -7.4      3.240      6.400
REMARK  Name = 
REMARK  5 active torsions:
REMARK  status: ('A' for Active; 'I' for Inactive)
REMARK    1  A    between atoms: C_1  and  O_2
REMARK    2  A    between atoms: O_2  and  C_3
REMARK    3  A    between atoms: C_8  and  N_9
REMARK    4  A    between atoms: C_10  and  C_12
REMARK    5  A    between atoms: C_14  and  C_15
REMARK                            x       y       z     vdW  Elec       q    Type
REMARK                         _______ _______ _______ _____ _____    ______ ____
ROOT
ATOM      1  N   UNL     1       1.652   8.161  20.094  0.00  0.00    +0.000 N 
ATOM      2  C   UNL     1       2.432   7.553  19.106  0.00  0.00    +0.000 C 
ATOM      3  O   UNL     1       2.689   8.173  18.066  0.00  0.00    +0.000 OA
ATOM      4  H   UNL     1       1.611   7.763  21.022  0.00  0.00    +0.000 HD
ENDROOT
BRANCH   2   5
ATOM      5  C   UNL     1       2.910   6.060  19.130  0.00  0.00    +0.000 A 
ATOM      6  C   UNL     1       4.282   6.106  18.845  0.00  0.00    +0.000 A 
ATOM      7  C   UNL     1       4.828   5.065  18.126  0.00  0.00    +0.000 A 
ATOM      8  C   UNL     1       4.667   5.172  16.614  0.00  0.00    +0.000 C 
ATOM      9  N   UNL     1       4.530   3.838  18.509  0.00  0.00    +0.000 NA
ATOM     10  C   UNL     1       3.291   3.656  18.903  0.00  0.00    +0.000 A 
ATOM     11  C   UNL     1       2.953   2.317  18.828  0.00  0.00    +0.000 A 
ATOM     12  C   UNL     1       1.710   1.866  19.181  0.00  0.00    +0.000 A 
ATOM     13  C   UNL     1       0.816   2.798  19.679  0.00  0.00    +0.000 A 
ATOM     14  C   UNL     1       1.118   4.197  19.713  0.00  0.00    +0.000 A 
ATOM     15  C   UNL     1       2.363   4.712  19.247  0.00  0.00    +0.000 A 
ENDBRANCH   2   5
BRANCH   1  21
ATOM     16  C   UNL     1       0.577  10.184  21.076  0.00  0.00    +0.000 A 
ATOM     17  C   UNL     1      -0.255  11.333  21.006  0.00  0.00    +0.000 A 
ATOM     18  C   UNL     1      -0.691  11.832  19.776  0.00  0.00    +0.000 A 
ATOM     19  C   UNL     1      -0.341  11.124  18.633  0.00  0.00    +0.000 A 
ATOM     20  C   UNL     1       0.422   9.934  18.705  0.00  0.00    +0.000 A 
ATOM     21  C   UNL     1       0.900   9.416  19.931  0.00  0.00    +0.000 A 
BRANCH  16  23
ATOM     22  C   UNL     1       0.132   9.474  23.247  0.00  0.00    +0.000 C 
ATOM     23  O   UNL     1       1.134   9.807  22.271  0.00  0.00    +0.000 OA
ENDBRANCH  16  23
ENDBRANCH   1  21
TORSDOF 3
ENDMDL
MODEL 7
REMARK VINA RESULT:      -7.3      1.521      2.096
REMARK  Name = 
REMARK  5 active torsions:
REMARK  status: ('A' for Active; 'I' for Inactive)
REMARK    1  A    between atoms: C_1  and  O_2
REMARK    2  A    between atoms: O_2  and  C_3
REMARK    3  A    between atoms: C_8  and  N_9
REMARK    4  A    between atoms: C_10  and  C_12
REMARK    5  A    between atoms: C_14  and  C_15
REMARK                            x       y       z     vdW  Elec       q    Type
REMARK                         _______ _______ _______ _____ _____    ______ ____
ROOT
ATOM      1  N   UNL     1       4.400   3.093  18.803  0.00  0.00    +0.000 N 
ATOM      2  C   UNL     1       5.139   4.275  18.698  0.00  0.00    +0.000 C 
ATOM      3  O   UNL     1       4.980   5.170  19.539  0.00  0.00    +0.000 OA
ATOM      4  H   UNL     1       4.666   2.281  18.263  0.00  0.00    +0.000 HD
ENDROOT
BRANCH   2   5
ATOM      5  C   UNL     1       6.077   4.645  17.498  0.00  0.00    +0.000 A 
ATOM      6  C   UNL     1       7.013   5.547  18.024  0.00  0.00    +0.000 A 
ATOM      7  C   UNL     1       7.480   6.548  17.200  0.00  0.00    +0.000 A 
ATOM      8  C   UNL     1       6.582   7.775  17.103  0.00  0.00    +0.000 C 
ATOM      9  N   UNL     1       7.879   6.204  15.990  0.00  0.00    +0.000 NA
ATOM     10  C   UNL     1       7.151   5.286  15.398  0.00  0.00    +0.000 A 
ATOM     11  C   UNL     1       7.337   5.333  14.027  0.00  0.00    +0.000 A 
ATOM     12  C   UNL     1       6.685   4.478  13.181  0.00  0.00    +0.000 A 
ATOM     13  C   UNL     1       5.874   3.515  13.756  0.00  0.00    +0.000 A 
ATOM     14  C   UNL     1       5.618   3.479  15.164  0.00  0.00    +0.000 A 
ATOM     15  C   UNL     1       6.193   4.426  16.059  0.00  0.00    +0.000 A 
ENDBRANCH   2   5
BRANCH   1  21
ATOM     16  C   UNL     1       1.943   3.039  19.217  0.00  0.00    +0.000 A 
ATOM     17  C   UNL     1       0.805   2.978  20.064  0.00  0.00    +0.000 A 
ATOM     18  C   UNL     1       0.929   2.629  21.410  0.00  0.00    +0.000 A 
ATOM     19  C   UNL     1       2.209   2.415  21.906  0.00  0.00    +0.000 A 
ATOM     20  C   UNL     1       3.352   2.553  21.083  0.00  0.00    +0.000 A 
ATOM     21  C   UNL     1       3.261   2.881  19.710  0.00  0.00    +0.000 A 
BRANCH  16  23
ATOM     22  C   UNL     1       1.500   4.584  17.534  0.00  0.00    +0.000 C 
ATOM     23  O   UNL     1       1.789   3.216  17.865  0.00  0.00    +0.000 OA
ENDBRANCH  16  23
ENDBRANCH   1  21
TORSDOF 3
ENDMDL
MODEL 8
REMARK VINA RESULT:      -7.3      3.301      7.958
REMARK  Name = 
REMARK  5 active torsions:
REMARK  status: ('A' for Active; 'I' for Inactive)
REMARK    1  A    between atoms: C_1  and  O_2
REMARK    2  A    between atoms: O_2  and  C_3
REMARK    3  A    between atoms: C_8  and  N_9
REMARK    4  A    between atoms: C_10  and  C_12
REMARK    5  A    between atoms: C_14  and  C_15
REMARK                            x       y       z     vdW  Elec       q    Type
REMARK                         _______ _______ _______ _____ _____    ______ ____
ROOT
ATOM      1  N   UNL     1       3.699   7.329  17.690  0.00  0.00    +0.000 N 
ATOM      2  C   UNL     1       2.915   7.307  18.848  0.00  0.00    +0.000 C 
ATOM      3  O   UNL     1       3.002   6.347  19.624  0.00  0.00    +0.000 OA
ATOM      4  H   UNL     1       3.800   8.187  17.164  0.00  0.00    +0.000 HD
ENDROOT
BRANCH   2   5
ATOM      5  C   UNL     1       1.798   8.350  19.197  0.00  0.00    +0.000 A 
ATOM      6  C   UNL     1       1.487   8.979  17.983  0.00  0.00    +0.000 A 
ATOM      7  C   UNL     1       1.132  10.310  18.017  0.00  0.00    +0.000 A 
ATOM      8  C   UNL     1       2.299  11.289  18.049  0.00  0.00    +0.000 C 
ATOM      9  N   UNL     1       0.232  10.678  18.910  0.00  0.00    +0.000 NA
ATOM     10  C   UNL     1       0.332  10.095  20.082  0.00  0.00    +0.000 A 
ATOM     11  C   UNL     1      -0.305  10.849  21.052  0.00  0.00    +0.000 A 
ATOM     12  C   UNL     1      -0.340  10.458  22.362  0.00  0.00    +0.000 A 
ATOM     13  C   UNL     1       0.237   9.239  22.675  0.00  0.00    +0.000 A 
ATOM     14  C   UNL     1       0.953   8.467  21.706  0.00  0.00    +0.000 A 
ATOM     15  C   UNL     1       1.104   8.902  20.357  0.00  0.00    +0.000 A 
ENDBRANCH   2   5
BRANCH   1  21
ATOM     16  C   UNL     1       5.810   6.410  16.735  0.00  0.00    +0.000 A 
ATOM     17  C   UNL     1       6.573   5.393  16.105  0.00  0.00    +0.000 A 
ATOM     18  C   UNL     1       6.086   4.088  15.999  0.00  0.00    +0.000 A 
ATOM     19  C   UNL     1       4.802   3.840  16.469  0.00  0.00    +0.000 A 
ATOM     20  C   UNL     1       4.008   4.869  17.026  0.00  0.00    +0.000 A 
ATOM     21  C   UNL     1       4.479   6.195  17.171  0.00  0.00    +0.000 A 
BRANCH  16  23
ATOM     22  C   UNL     1       7.650   7.526  17.620  0.00  0.00    +0.000 C 
ATOM     23  O   UNL     1       6.367   7.639  16.982  0.00  0.00    +0.000 OA
ENDBRANCH  16  23
ENDBRANCH   1  21
TORSDOF 3
ENDMDL
MODEL 9
REMARK VINA RESULT:      -7.3      3.972      8.451
REMARK  Name = 
REMARK  5 active torsions:
REMARK  status: ('A' for Active; 'I' for Inactive)
REMARK    1  A    between atoms: C_1  and  O_2
REMARK    2  A    between atoms: O_2  and  C_3
REMARK    3  A    between atoms: C_8  and  N_9
REMARK    4  A    between atoms: C_10  and  C_12
REMARK    5  A    between atoms: C_14  and  C_15
REMARK                            x       y       z     vdW  Elec       q    Type
REMARK                         _______ _______ _______ _____ _____    ______ ____
ROOT
ATOM      1  N   UNL     1       2.203   7.457  18.191  0.00  0.00    +0.000 N 
ATOM      2  C   UNL     1       1.867   7.904  19.472  0.00  0.00    +0.000 C 
ATOM      3  O   UNL     1       2.241   7.259  20.460  0.00  0.00    +0.000 OA
ATOM      4  H   UNL     1       2.093   8.072  17.396  0.00  0.00    +0.000 HD
ENDROOT
BRANCH   2   5
ATOM      5  C   UNL     1       0.910   9.106  19.783  0.00  0.00    +0.000 A 
ATOM      6  C   UNL     1       0.793   9.808  18.575  0.00  0.00    +0.000 A 
ATOM      7  C   UNL     1       0.655  11.178  18.633  0.00  0.00    +0.000 A 
ATOM      8  C   UNL     1       1.959  11.951  18.777  0.00  0.00    +0.000 C 
ATOM      9  N   UNL     1      -0.236  11.665  19.476  0.00  0.00    +0.000 NA
ATOM     10  C   UNL     1      -0.315  11.045  20.630  0.00  0.00    +0.000 A 
ATOM     11  C   UNL     1      -0.890  11.869  21.582  0.00  0.00    +0.000 A 
ATOM     12  C   UNL     1      -1.082  11.457  22.872  0.00  0.00    +0.000 A 
ATOM     13  C   UNL     1      -0.733  10.153  23.178  0.00  0.00    +0.000 A 
ATOM     14  C   UNL     1      -0.083   9.298  22.232  0.00  0.00    +0.000 A 
ATOM     15  C   UNL     1       0.233   9.735  20.913  0.00  0.00    +0.000 A 
ENDBRANCH   2   5
BRANCH   1  21
ATOM     16  C   UNL     1       4.144   6.066  17.477  0.00  0.00    +0.000 A 
ATOM     17  C   UNL     1       4.734   4.854  17.033  0.00  0.00    +0.000 A 
ATOM     18  C   UNL     1       4.031   3.648  17.090  0.00  0.00    +0.000 A 
ATOM     19  C   UNL     1       2.713   3.691  17.529  0.00  0.00    +0.000 A 
ATOM     20  C   UNL     1       2.096   4.910  17.896  0.00  0.00    +0.000 A 
ATOM     21  C   UNL     1       2.787   6.144  17.874  0.00  0.00    +0.000 A 
BRANCH  16  23
ATOM     22  C   UNL     1       6.246   6.997  17.117  0.00  0.00    +0.000 C 
ATOM     23  O   UNL     1       4.899   7.207  17.573  0.00  0.00    +0.000 OA
ENDBRANCH  16  23
ENDBRANCH   1  21
TORSDOF 3
ENDMDL
