MODEL 1
REMARK VINA RESULT:      -8.1      0.000      0.000
REMARK  Name = 
REMARK  5 active torsions:
REMARK  status: ('A' for Active; 'I' for Inactive)
REMARK    1  A    between atoms: C_1  and  C_2
REMARK    2  A    between atoms: C_8  and  C_9
REMARK    3  A    between atoms: C_10  and  C_11
REMARK    4  A    between atoms: C_20  and  O_21
REMARK    5  A    between atoms: C_24  and  C_25
REMARK                            x       y       z     vdW  Elec       q    Type
REMARK                         _______ _______ _______ _____ _____    ______ ____
ROOT
ATOM      1  C   UNL     1       4.554   3.957  18.667  0.00  0.00    +0.000 C 
ATOM      2  C   UNL     1       3.876   5.301  18.621  0.00  0.00    +0.000 A 
ATOM      3  C   UNL     1       3.036   5.682  19.673  0.00  0.00    +0.000 A 
ATOM      4  C   UNL     1       2.375   6.911  19.633  0.00  0.00    +0.000 A 
ATOM      5  O   UNL     1       1.563   7.224  20.732  0.00  0.00    +0.000 OA
ATOM      6  C   UNL     1       0.885   8.429  20.810  0.00  0.00    +0.000 A 
ATOM      7  O   UNL     1       0.288   8.744  21.835  0.00  0.00    +0.000 OA
ATOM      8  C   UNL     1       0.906   9.324  19.610  0.00  0.00    +0.000 A 
ATOM      9  C   UNL     1       1.718   9.030  18.571  0.00  0.00    +0.000 A 
ATOM     10  C   UNL     1       2.510   7.791  18.569  0.00  0.00    +0.000 A 
ATOM     11  C   UNL     1       3.367   7.417  17.524  0.00  0.00    +0.000 A 
ATOM     12  C   UNL     1       4.056   6.184  17.538  0.00  0.00    +0.000 A 
ATOM     13  C   UNL     1       4.970   5.837  16.393  0.00  0.00    +0.000 C 
ENDROOT
BRANCH   8  14
ATOM     14  C   UNL     1      -0.028  10.449  19.638  0.00  0.00    +0.000 C 
ATOM     15  C   UNL     1       0.217  11.633  20.221  0.00  0.00    +0.000 C 
BRANCH  15  16
ATOM     16  C   UNL     1      -0.779  12.740  20.189  0.00  0.00    +0.000 C 
ATOM     17  O   UNL     1      -0.736  13.595  19.305  0.00  0.00    +0.000 OA
ATOM     18  N   UNL     1      -1.732  12.735  21.207  0.00  0.00    +0.000 N 
ATOM     19  C   UNL     1      -2.875  13.635  21.048  0.00  0.00    +0.000 C 
ATOM     20  C   UNL     1      -4.144  13.061  21.673  0.00  0.00    +0.000 C 
ATOM     21  C   UNL     1      -3.861  12.578  23.059  0.00  0.00    +0.000 C 
ATOM     22  C   UNL     1      -2.619  12.238  23.437  0.00  0.00    +0.000 C 
ATOM     23  C   UNL     1      -1.475  12.231  22.484  0.00  0.00    +0.000 C 
ATOM     24  O   UNL     1      -0.406  11.762  22.866  0.00  0.00    +0.000 OA
ENDBRANCH  15  16
ENDBRANCH   8  14
BRANCH   9  25
ATOM     25  O   UNL     1       1.841   9.785  17.420  0.00  0.00    +0.000 OA
ATOM     26  H   UNL     1       1.045  10.326  17.265  0.00  0.00    +0.000 HD
ENDBRANCH   9  25
TORSDOF 3
ENDMDL
MODEL 2
REMARK VINA RESULT:      -7.8      2.849      8.381
REMARK  Name = 
REMARK  5 active torsions:
REMARK  status: ('A' for Active; 'I' for Inactive)
REMARK    1  A    between atoms: C_1  and  C_2
REMARK    2  A    between atoms: C_8  and  C_9
REMARK    3  A    between atoms: C_10  and  C_11
REMARK    4  A    between atoms: C_20  and  O_21
REMARK    5  A    between atoms: C_24  and  C_25
REMARK                            x       y       z     vdW  Elec       q    Type
REMARK                         _______ _______ _______ _____ _____    ______ ____
ROOT
ATOM      1  C   UNL     1      -2.178  13.199  20.536  0.00  0.00    +0.000 C 
ATOM      2  C   UNL     1      -1.233  12.027  20.569  0.00  0.00    +0.000 A 
ATOM      3  C   UNL     1      -0.602  11.623  19.388  0.00  0.00    +0.000 A 
ATOM      4  C   UNL     1       0.253  10.519  19.394  0.00  0.00    +0.000 A 
ATOM      5  O   UNL     1       0.858  10.187  18.173  0.00  0.00    +0.000 OA
ATOM      6  C   UNL     1       1.747   9.129  18.071  0.00  0.00    +0.000 A 
ATOM      7  O   UNL     1       2.368   8.935  17.030  0.00  0.00    +0.000 OA
ATOM      8  C   UNL     1       1.918   8.240  19.263  0.00  0.00    +0.000 A 
ATOM      9  C   UNL     1       1.359   8.588  20.442  0.00  0.00    +0.000 A 
ATOM     10  C   UNL     1       0.506   9.782  20.541  0.00  0.00    +0.000 A 
ATOM     11  C   UNL     1      -0.113  10.200  21.729  0.00  0.00    +0.000 A 
ATOM     12  C   UNL     1      -0.977  11.316  21.759  0.00  0.00    +0.000 A 
ATOM     13  C   UNL     1      -1.608  11.726  23.063  0.00  0.00    +0.000 C 
ENDROOT
BRANCH   8  14
ATOM     14  C   UNL     1       2.654   6.998  19.031  0.00  0.00    +0.000 C 
ATOM     15  C   UNL     1       2.154   5.918  18.409  0.00  0.00    +0.000 C 
BRANCH  15  16
ATOM     16  C   UNL     1       2.974   4.693  18.192  0.00  0.00    +0.000 C 
ATOM     17  O   UNL     1       3.608   4.541  17.147  0.00  0.00    +0.000 OA
ATOM     18  N   UNL     1       2.968   3.760  19.228  0.00  0.00    +0.000 N 
ATOM     19  C   UNL     1       3.967   2.693  19.164  0.00  0.00    +0.000 C 
ATOM     20  C   UNL     1       4.420   2.253  20.554  0.00  0.00    +0.000 C 
ATOM     21  C   UNL     1       3.232   2.005  21.428  0.00  0.00    +0.000 C 
ATOM     22  C   UNL     1       2.049   2.586  21.173  0.00  0.00    +0.000 C 
ATOM     23  C   UNL     1       1.872   3.575  20.074  0.00  0.00    +0.000 C 
ATOM     24  O   UNL     1       0.803   4.175  20.003  0.00  0.00    +0.000 OA
ENDBRANCH  15  16
ENDBRANCH   8  14
BRANCH   9  25
ATOM     25  O   UNL     1       1.462   7.864  21.615  0.00  0.00    +0.000 OA
ATOM     26  H   UNL     1       2.232   8.150  22.140  0.00  0.00    +0.000 HD
ENDBRANCH   9  25
TORSDOF 3
ENDMDL
MODEL 3
REMARK VINA RESULT:      -7.8      1.325      2.598
REMARK  Name = 
REMARK  5 active torsions:
REMARK  status: ('A' for Active; 'I' for Inactive)
REMARK    1  A    between atoms: C_1  and  C_2
REMARK    2  A    between atoms: C_8  and  C_9
REMARK    3  A    between atoms: C_10  and  C_11
REMARK    4  A    between atoms: C_20  and  O_21
REMARK    5  A    between atoms: C_24  and  C_25
REMARK                            x       y       z     vdW  Elec       q    Type
REMARK                         _______ _______ _______ _____ _____    ______ ____
ROOT
ATOM      1  C   UNL     1       4.132   3.149  19.254  0.00  0.00    +0.000 C 
ATOM      2  C   UNL     1       3.297   4.366  19.553  0.00  0.00    +0.000 A 
ATOM      3  C   UNL     1       3.396   5.487  18.721  0.00  0.00    +0.000 A 
ATOM      4  C   UNL     1       2.653   6.635  19.000  0.00  0.00    +0.000 A 
ATOM      5  O   UNL     1       2.798   7.709  18.111  0.00  0.00    +0.000 OA
ATOM      6  C   UNL     1       2.085   8.885  18.276  0.00  0.00    +0.000 A 
ATOM      7  O   UNL     1       2.121   9.762  17.417  0.00  0.00    +0.000 OA
ATOM      8  C   UNL     1       1.280   9.048  19.527  0.00  0.00    +0.000 A 
ATOM      9  C   UNL     1       1.120   7.996  20.360  0.00  0.00    +0.000 A 
ATOM     10  C   UNL     1       1.806   6.722  20.095  0.00  0.00    +0.000 A 
ATOM     11  C   UNL     1       1.693   5.592  20.919  0.00  0.00    +0.000 A 
ATOM     12  C   UNL     1       2.425   4.413  20.659  0.00  0.00    +0.000 A 
ATOM     13  C   UNL     1       2.260   3.226  21.571  0.00  0.00    +0.000 C 
ENDROOT
BRANCH   8  14
ATOM     14  C   UNL     1       0.763  10.391  19.783  0.00  0.00    +0.000 C 
ATOM     15  C   UNL     1       1.093  11.150  20.840  0.00  0.00    +0.000 C 
BRANCH  15  16
ATOM     16  C   UNL     1       0.539  12.521  21.021  0.00  0.00    +0.000 C 
ATOM     17  O   UNL     1       1.132  13.500  20.568  0.00  0.00    +0.000 OA
ATOM     18  N   UNL     1      -0.662  12.607  21.723  0.00  0.00    +0.000 N 
ATOM     19  C   UNL     1      -1.364  13.890  21.678  0.00  0.00    +0.000 C 
ATOM     20  C   UNL     1      -2.879  13.713  21.740  0.00  0.00    +0.000 C 
ATOM     21  C   UNL     1      -3.245  12.790  22.857  0.00  0.00    +0.000 C 
ATOM     22  C   UNL     1      -2.365  11.897  23.336  0.00  0.00    +0.000 C 
ATOM     23  C   UNL     1      -1.018  11.706  22.729  0.00  0.00    +0.000 C 
ATOM     24  O   UNL     1      -0.334  10.766  23.124  0.00  0.00    +0.000 OA
ENDBRANCH  15  16
ENDBRANCH   8  14
BRANCH   9  25
ATOM     25  O   UNL     1       0.386   8.013  21.531  0.00  0.00    +0.000 OA
ATOM     26  H   UNL     1       0.835   7.513  22.237  0.00  0.00    +0.000 HD
ENDBRANCH   9  25
TORSDOF 3
ENDMDL
MODEL 4
REMARK VINA RESULT:      -7.7      3.364      9.226
REMARK  Name = 
REMARK  5 active torsions:
REMARK  status: ('A' for Active; 'I' for Inactive)
REMARK    1  A    between atoms: C_1  and  C_2
REMARK    2  A    between atoms: C_8  and  C_9
REMARK    3  A    between atoms: C_10  and  C_11
REMARK    4  A    between atoms: C_20  and  O_21
REMARK    5  A    between atoms: C_24  and  C_25
REMARK                            x       y       z     vdW  Elec       q    Type
REMARK                         _______ _______ _______ _____ _____    ______ ____
ROOT
ATOM      1  C   UNL     1      -0.635  11.909  21.962  0.00  0.00    +0.000 C 
ATOM      2  C   UNL     1       0.096  10.676  21.502  0.00  0.00    +0.000 A 
ATOM      3  C   UNL     1       0.588  10.619  20.193  0.00  0.00    +0.000 A 
ATOM      4  C   UNL     1       1.241   9.471  19.739  0.00  0.00    +0.000 A 
ATOM      5  O   UNL     1       1.716   9.499  18.421  0.00  0.00    +0.000 OA
ATOM      6  C   UNL     1       2.405   8.427  17.878  0.00  0.00    +0.000 A 
ATOM      7  O   UNL     1       2.929   8.518  16.771  0.00  0.00    +0.000 OA
ATOM      8  C   UNL     1       2.483   7.165  18.679  0.00  0.00    +0.000 A 
ATOM      9  C   UNL     1       2.052   7.160  19.960  0.00  0.00    +0.000 A 
ATOM     10  C   UNL     1       1.422   8.355  20.541  0.00  0.00    +0.000 A 
ATOM     11  C   UNL     1       0.945   8.420  21.859  0.00  0.00    +0.000 A 
ATOM     12  C   UNL     1       0.288   9.568  22.351  0.00  0.00    +0.000 A 
ATOM     13  C   UNL     1      -0.197   9.587  23.777  0.00  0.00    +0.000 C 
ENDROOT
BRANCH   8  14
ATOM     14  C   UNL     1       2.982   5.989  17.969  0.00  0.00    +0.000 C 
ATOM     15  C   UNL     1       4.190   5.435  18.160  0.00  0.00    +0.000 C 
BRANCH  15  16
ATOM     16  C   UNL     1       4.620   4.221  17.412  0.00  0.00    +0.000 C 
ATOM     17  O   UNL     1       4.194   3.109  17.725  0.00  0.00    +0.000 OA
ATOM     18  N   UNL     1       5.514   4.434  16.363  0.00  0.00    +0.000 N 
ATOM     19  C   UNL     1       5.736   3.315  15.446  0.00  0.00    +0.000 C 
ATOM     20  C   UNL     1       6.023   3.793  14.025  0.00  0.00    +0.000 C 
ATOM     21  C   UNL     1       7.069   4.862  14.042  0.00  0.00    +0.000 C 
ATOM     22  C   UNL     1       7.289   5.601  15.140  0.00  0.00    +0.000 C 
ATOM     23  C   UNL     1       6.451   5.469  16.365  0.00  0.00    +0.000 C 
ATOM     24  O   UNL     1       6.615   6.285  17.269  0.00  0.00    +0.000 OA
ENDBRANCH  15  16
ENDBRANCH   8  14
BRANCH   9  25
ATOM     25  O   UNL     1       2.089   6.068  20.807  0.00  0.00    +0.000 OA
ATOM     26  H   UNL     1       2.249   5.243  20.312  0.00  0.00    +0.000 HD
ENDBRANCH   9  25
TORSDOF 3
ENDMDL
MODEL 5
REMARK VINA RESULT:      -7.7      2.879      8.499
REMARK  Name = 
REMARK  5 active torsions:
REMARK  status: ('A' for Active; 'I' for Inactive)
REMARK    1  A    between atoms: C_1  and  C_2
REMARK    2  A    between atoms: C_8  and  C_9
REMARK    3  A    between atoms: C_10  and  C_11
REMARK    4  A    between atoms: C_20  and  O_21
REMARK    5  A    between atoms: C_24  and  C_25
REMARK                            x       y       z     vdW  Elec       q    Type
REMARK                         _______ _______ _______ _____ _____    ______ ____
ROOT
ATOM      1  C   UNL     1      -2.631  12.977  20.553  0.00  0.00    +0.000 C 
ATOM      2  C   UNL     1      -1.576  11.904  20.610  0.00  0.00    +0.000 A 
ATOM      3  C   UNL     1      -0.933  11.512  19.430  0.00  0.00    +0.000 A 
ATOM      4  C   UNL     1       0.026  10.498  19.458  0.00  0.00    +0.000 A 
ATOM      5  O   UNL     1       0.633  10.174  18.238  0.00  0.00    +0.000 OA
ATOM      6  C   UNL     1       1.619   9.204  18.155  0.00  0.00    +0.000 A 
ATOM      7  O   UNL     1       2.233   9.026  17.107  0.00  0.00    +0.000 OA
ATOM      8  C   UNL     1       1.902   8.387  19.377  0.00  0.00    +0.000 A 
ATOM      9  C   UNL     1       1.337   8.730  20.555  0.00  0.00    +0.000 A 
ATOM     10  C   UNL     1       0.374   9.839  20.628  0.00  0.00    +0.000 A 
ATOM     11  C   UNL     1      -0.257  10.245  21.813  0.00  0.00    +0.000 A 
ATOM     12  C   UNL     1      -1.225  11.273  21.820  0.00  0.00    +0.000 A 
ATOM     13  C   UNL     1      -1.866  11.675  23.122  0.00  0.00    +0.000 C 
ENDROOT
BRANCH   8  14
ATOM     14  C   UNL     1       2.750   7.213  19.177  0.00  0.00    +0.000 C 
ATOM     15  C   UNL     1       2.894   6.563  18.011  0.00  0.00    +0.000 C 
BRANCH  15  16
ATOM     16  C   UNL     1       3.795   5.383  17.881  0.00  0.00    +0.000 C 
ATOM     17  O   UNL     1       4.968   5.527  17.534  0.00  0.00    +0.000 OA
ATOM     18  N   UNL     1       3.226   4.144  18.170  0.00  0.00    +0.000 N 
ATOM     19  C   UNL     1       4.143   3.014  18.319  0.00  0.00    +0.000 C 
ATOM     20  C   UNL     1       3.631   1.994  19.334  0.00  0.00    +0.000 C 
ATOM     21  C   UNL     1       2.200   1.662  19.053  0.00  0.00    +0.000 C 
ATOM     22  C   UNL     1       1.410   2.512  18.378  0.00  0.00    +0.000 C 
ATOM     23  C   UNL     1       1.875   3.861  17.955  0.00  0.00    +0.000 C 
ATOM     24  O   UNL     1       1.048   4.636  17.480  0.00  0.00    +0.000 OA
ENDBRANCH  15  16
ENDBRANCH   8  14
BRANCH   9  25
ATOM     25  O   UNL     1       1.536   8.070  21.754  0.00  0.00    +0.000 OA
ATOM     26  H   UNL     1       0.934   8.403  22.445  0.00  0.00    +0.000 HD
ENDBRANCH   9  25
TORSDOF 3
ENDMDL
MODEL 6
REMARK VINA RESULT:      -7.5      2.482      3.551
REMARK  Name = 
REMARK  5 active torsions:
REMARK  status: ('A' for Active; 'I' for Inactive)
REMARK    1  A    between atoms: C_1  and  C_2
REMARK    2  A    between atoms: C_8  and  C_9
REMARK    3  A    between atoms: C_10  and  C_11
REMARK    4  A    between atoms: C_20  and  O_21
REMARK    5  A    between atoms: C_24  and  C_25
REMARK                            x       y       z     vdW  Elec       q    Type
REMARK                         _______ _______ _______ _____ _____    ______ ____
ROOT
ATOM      1  C   UNL     1       3.744   3.022  19.654  0.00  0.00    +0.000 C 
ATOM      2  C   UNL     1       3.350   4.442  19.348  0.00  0.00    +0.000 A 
ATOM      3  C   UNL     1       2.601   5.163  20.286  0.00  0.00    +0.000 A 
ATOM      4  C   UNL     1       2.200   6.471  20.006  0.00  0.00    +0.000 A 
ATOM      5  O   UNL     1       1.465   7.129  21.002  0.00  0.00    +0.000 OA
ATOM      6  C   UNL     1       1.043   8.438  20.843  0.00  0.00    +0.000 A 
ATOM      7  O   UNL     1       0.519   9.042  21.774  0.00  0.00    +0.000 OA
ATOM      8  C   UNL     1       1.245   9.082  19.507  0.00  0.00    +0.000 A 
ATOM      9  C   UNL     1       1.984   8.453  18.567  0.00  0.00    +0.000 A 
ATOM     10  C   UNL     1       2.511   7.102  18.811  0.00  0.00    +0.000 A 
ATOM     11  C   UNL     1       3.278   6.386  17.880  0.00  0.00    +0.000 A 
ATOM     12  C   UNL     1       3.706   5.065  18.135  0.00  0.00    +0.000 A 
ATOM     13  C   UNL     1       4.534   4.345  17.104  0.00  0.00    +0.000 C 
ENDROOT
BRANCH   8  14
ATOM     14  C   UNL     1       0.556  10.356  19.302  0.00  0.00    +0.000 C 
ATOM     15  C   UNL     1       1.114  11.564  19.475  0.00  0.00    +0.000 C 
BRANCH  15  16
ATOM     16  C   UNL     1       0.352  12.820  19.226  0.00  0.00    +0.000 C 
ATOM     17  O   UNL     1      -0.877  12.830  19.297  0.00  0.00    +0.000 OA
ATOM     18  N   UNL     1       1.112  13.946  18.916  0.00  0.00    +0.000 N 
ATOM     19  C   UNL     1       0.423  15.237  18.939  0.00  0.00    +0.000 C 
ATOM     20  C   UNL     1       1.351  16.370  19.370  0.00  0.00    +0.000 C 
ATOM     21  C   UNL     1       2.631  16.309  18.599  0.00  0.00    +0.000 C 
ATOM     22  C   UNL     1       3.054  15.162  18.046  0.00  0.00    +0.000 C 
ATOM     23  C   UNL     1       2.334  13.873  18.242  0.00  0.00    +0.000 C 
ATOM     24  O   UNL     1       2.867  12.844  17.834  0.00  0.00    +0.000 OA
ENDBRANCH  15  16
ENDBRANCH   8  14
BRANCH   9  25
ATOM     25  O   UNL     1       2.259   8.951  17.307  0.00  0.00    +0.000 OA
ATOM     26  H   UNL     1       2.544   8.242  16.701  0.00  0.00    +0.000 HD
ENDBRANCH   9  25
TORSDOF 3
ENDMDL
MODEL 7
REMARK VINA RESULT:      -7.4      1.238      1.305
REMARK  Name = 
REMARK  5 active torsions:
REMARK  status: ('A' for Active; 'I' for Inactive)
REMARK    1  A    between atoms: C_1  and  C_2
REMARK    2  A    between atoms: C_8  and  C_9
REMARK    3  A    between atoms: C_10  and  C_11
REMARK    4  A    between atoms: C_20  and  O_21
REMARK    5  A    between atoms: C_24  and  C_25
REMARK                            x       y       z     vdW  Elec       q    Type
REMARK                         _______ _______ _______ _____ _____    ______ ____
ROOT
ATOM      1  C   UNL     1       4.173   3.685  19.181  0.00  0.00    +0.000 C 
ATOM      2  C   UNL     1       3.617   5.069  18.982  0.00  0.00    +0.000 A 
ATOM      3  C   UNL     1       2.810   5.633  19.977  0.00  0.00    +0.000 A 
ATOM      4  C   UNL     1       2.260   6.904  19.796  0.00  0.00    +0.000 A 
ATOM      5  O   UNL     1       1.475   7.403  20.844  0.00  0.00    +0.000 OA
ATOM      6  C   UNL     1       0.906   8.665  20.784  0.00  0.00    +0.000 A 
ATOM      7  O   UNL     1       0.335   9.139  21.762  0.00  0.00    +0.000 OA
ATOM      8  C   UNL     1       1.009   9.419  19.495  0.00  0.00    +0.000 A 
ATOM      9  C   UNL     1       1.795   8.944  18.504  0.00  0.00    +0.000 A 
ATOM     10  C   UNL     1       2.475   7.648  18.646  0.00  0.00    +0.000 A 
ATOM     11  C   UNL     1       3.299   7.090  17.657  0.00  0.00    +0.000 A 
ATOM     12  C   UNL     1       3.877   5.811  17.812  0.00  0.00    +0.000 A 
ATOM     13  C   UNL     1       4.761   5.263  16.723  0.00  0.00    +0.000 C 
ENDROOT
BRANCH   8  14
ATOM     14  C   UNL     1       0.177  10.617  19.390  0.00  0.00    +0.000 C 
ATOM     15  C   UNL     1       0.645  11.875  19.377  0.00  0.00    +0.000 C 
BRANCH  15  16
ATOM     16  C   UNL     1      -0.265  13.047  19.246  0.00  0.00    +0.000 C 
ATOM     17  O   UNL     1      -0.593  13.464  18.135  0.00  0.00    +0.000 OA
ATOM     18  N   UNL     1      -0.704  13.617  20.440  0.00  0.00    +0.000 N 
ATOM     19  C   UNL     1      -1.802  14.580  20.349  0.00  0.00    +0.000 C 
ATOM     20  C   UNL     1      -2.695  14.543  21.587  0.00  0.00    +0.000 C 
ATOM     21  C   UNL     1      -1.860  14.596  22.826  0.00  0.00    +0.000 C 
ATOM     22  C   UNL     1      -0.576  14.206  22.816  0.00  0.00    +0.000 C 
ATOM     23  C   UNL     1       0.063  13.614  21.607  0.00  0.00    +0.000 C 
ATOM     24  O   UNL     1       1.191  13.141  21.723  0.00  0.00    +0.000 OA
ENDBRANCH  15  16
ENDBRANCH   8  14
BRANCH   9  25
ATOM     25  O   UNL     1       1.988   9.557  17.280  0.00  0.00    +0.000 OA
ATOM     26  H   UNL     1       2.066   8.899  16.564  0.00  0.00    +0.000 HD
ENDBRANCH   9  25
TORSDOF 3
ENDMDL
MODEL 8
REMARK VINA RESULT:      -7.3      2.884      8.954
REMARK  Name = 
REMARK  5 active torsions:
REMARK  status: ('A' for Active; 'I' for Inactive)
REMARK    1  A    between atoms: C_1  and  C_2
REMARK    2  A    between atoms: C_8  and  C_9
REMARK    3  A    between atoms: C_10  and  C_11
REMARK    4  A    between atoms: C_20  and  O_21
REMARK    5  A    between atoms: C_24  and  C_25
REMARK                            x       y       z     vdW  Elec       q    Type
REMARK                         _______ _______ _______ _____ _____    ______ ____
ROOT
ATOM      1  C   UNL     1      -1.978  12.860  20.608  0.00  0.00    +0.000 C 
ATOM      2  C   UNL     1      -1.042  11.681  20.631  0.00  0.00    +0.000 A 
ATOM      3  C   UNL     1      -0.400  11.294  19.449  0.00  0.00    +0.000 A 
ATOM      4  C   UNL     1       0.447  10.184  19.443  0.00  0.00    +0.000 A 
ATOM      5  O   UNL     1       1.063   9.870  18.224  0.00  0.00    +0.000 OA
ATOM      6  C   UNL     1       1.946   8.808  18.112  0.00  0.00    +0.000 A 
ATOM      7  O   UNL     1       2.577   8.628  17.075  0.00  0.00    +0.000 OA
ATOM      8  C   UNL     1       2.098   7.896  19.289  0.00  0.00    +0.000 A 
ATOM      9  C   UNL     1       1.527   8.226  20.468  0.00  0.00    +0.000 A 
ATOM     10  C   UNL     1       0.682   9.424  20.580  0.00  0.00    +0.000 A 
ATOM     11  C   UNL     1       0.053   9.824  21.768  0.00  0.00    +0.000 A 
ATOM     12  C   UNL     1      -0.804  10.946  21.809  0.00  0.00    +0.000 A 
ATOM     13  C   UNL     1      -1.447  11.336  23.114  0.00  0.00    +0.000 C 
ENDROOT
BRANCH   8  14
ATOM     14  C   UNL     1       2.827   6.653  19.042  0.00  0.00    +0.000 C 
ATOM     15  C   UNL     1       2.810   5.973  17.885  0.00  0.00    +0.000 C 
BRANCH  15  16
ATOM     16  C   UNL     1       3.598   4.721  17.702  0.00  0.00    +0.000 C 
ATOM     17  O   UNL     1       3.255   3.679  18.260  0.00  0.00    +0.000 OA
ATOM     18  N   UNL     1       4.718   4.818  16.879  0.00  0.00    +0.000 N 
ATOM     19  C   UNL     1       5.344   3.563  16.463  0.00  0.00    +0.000 C 
ATOM     20  C   UNL     1       5.961   3.669  15.070  0.00  0.00    +0.000 C 
ATOM     21  C   UNL     1       6.803   4.900  14.972  0.00  0.00    +0.000 C 
ATOM     22  C   UNL     1       6.595   5.950  15.782  0.00  0.00    +0.000 C 
ATOM     23  C   UNL     1       5.467   5.991  16.753  0.00  0.00    +0.000 C 
ATOM     24  O   UNL     1       5.252   7.045  17.346  0.00  0.00    +0.000 OA
ENDBRANCH  15  16
ENDBRANCH   8  14
BRANCH   9  25
ATOM     25  O   UNL     1       1.612   7.480  21.629  0.00  0.00    +0.000 OA
ATOM     26  H   UNL     1       1.089   6.659  21.560  0.00  0.00    +0.000 HD
ENDBRANCH   9  25
TORSDOF 3
ENDMDL
MODEL 9
REMARK VINA RESULT:      -7.2      3.032      8.521
REMARK  Name = 
REMARK  5 active torsions:
REMARK  status: ('A' for Active; 'I' for Inactive)
REMARK    1  A    between atoms: C_1  and  C_2
REMARK    2  A    between atoms: C_8  and  C_9
REMARK    3  A    between atoms: C_10  and  C_11
REMARK    4  A    between atoms: C_20  and  O_21
REMARK    5  A    between atoms: C_24  and  C_25
REMARK                            x       y       z     vdW  Elec       q    Type
REMARK                         _______ _______ _______ _____ _____    ______ ____
ROOT
ATOM      1  C   UNL     1      -0.467  13.004  22.198  0.00  0.00    +0.000 C 
ATOM      2  C   UNL     1       0.032  12.009  21.184  0.00  0.00    +0.000 A 
ATOM      3  C   UNL     1       0.369  10.716  21.601  0.00  0.00    +0.000 A 
ATOM      4  C   UNL     1       0.863   9.789  20.681  0.00  0.00    +0.000 A 
ATOM      5  O   UNL     1       1.163   8.513  21.175  0.00  0.00    +0.000 OA
ATOM      6  C   UNL     1       1.630   7.507  20.344  0.00  0.00    +0.000 A 
ATOM      7  O   UNL     1       1.761   6.361  20.765  0.00  0.00    +0.000 OA
ATOM      8  C   UNL     1       1.969   7.866  18.931  0.00  0.00    +0.000 A 
ATOM      9  C   UNL     1       1.645   9.089  18.457  0.00  0.00    +0.000 A 
ATOM     10  C   UNL     1       1.047  10.099  19.342  0.00  0.00    +0.000 A 
ATOM     11  C   UNL     1       0.692  11.390  18.921  0.00  0.00    +0.000 A 
ATOM     12  C   UNL     1       0.182  12.348  19.824  0.00  0.00    +0.000 A 
ATOM     13  C   UNL     1      -0.191  13.716  19.318  0.00  0.00    +0.000 C 
ENDROOT
BRANCH   8  14
ATOM     14  C   UNL     1       2.700   6.851  18.173  0.00  0.00    +0.000 C 
ATOM     15  C   UNL     1       2.614   5.529  18.385  0.00  0.00    +0.000 C 
BRANCH  15  16
ATOM     16  C   UNL     1       3.375   4.553  17.556  0.00  0.00    +0.000 C 
ATOM     17  O   UNL     1       2.785   3.734  16.852  0.00  0.00    +0.000 OA
ATOM     18  N   UNL     1       4.765   4.636  17.636  0.00  0.00    +0.000 N 
ATOM     19  C   UNL     1       5.531   3.889  16.638  0.00  0.00    +0.000 C 
ATOM     20  C   UNL     1       6.840   4.590  16.283  0.00  0.00    +0.000 C 
ATOM     21  C   UNL     1       7.568   4.981  17.529  0.00  0.00    +0.000 C 
ATOM     22  C   UNL     1       6.917   5.152  18.690  0.00  0.00    +0.000 C 
ATOM     23  C   UNL     1       5.434   5.055  18.788  0.00  0.00    +0.000 C 
ATOM     24  O   UNL     1       4.902   5.375  19.848  0.00  0.00    +0.000 OA
ENDBRANCH  15  16
ENDBRANCH   8  14
BRANCH   9  25
ATOM     25  O   UNL     1       1.885   9.531  17.169  0.00  0.00    +0.000 OA
ATOM     26  H   UNL     1       1.391  10.350  16.979  0.00  0.00    +0.000 HD
ENDBRANCH   9  25
TORSDOF 3
ENDMDL
