MODEL 1
REMARK VINA RESULT:      -7.5      0.000      0.000
REMARK  Name = 
REMARK  7 active torsions:
REMARK  status: ('A' for Active; 'I' for Inactive)
REMARK    1  A    between atoms: C_1  and  C_2
REMARK    2  A    between atoms: C_2  and  C_3
REMARK    3  A    between atoms: C_3  and  N_4
REMARK    4  A    between atoms: C_6  and  S_7
REMARK    5  A    between atoms: S_7  and  C_10
REMARK    6  A    between atoms: C_10  and  C_11
REMARK    7  A    between atoms: N_13  and  C_14
REMARK                            x       y       z     vdW  Elec       q    Type
REMARK                         _______ _______ _______ _____ _____    ______ ____
ROOT
ATOM      1  S   UNL     1       3.456   2.682  18.915  0.00  0.00    +0.000 S 
ATOM      2  O   UNL     1       3.184   1.466  18.186  0.00  0.00    +0.000 OA
ATOM      3  O   UNL     1       4.186   2.682  20.172  0.00  0.00    +0.000 OA
ENDROOT
BRANCH   1   6
ATOM      4  N   UNL     1       5.252   4.538  15.978  0.00  0.00    +0.000 N 
ATOM      5  C   UNL     1       4.290   3.689  16.463  0.00  0.00    +0.000 A 
ATOM      6  C   UNL     1       4.435   3.621  17.834  0.00  0.00    +0.000 A 
ATOM      7  C   UNL     1       5.507   4.485  18.204  0.00  0.00    +0.000 A 
ATOM      8  C   UNL     1       6.104   4.866  19.428  0.00  0.00    +0.000 A 
ATOM      9  C   UNL     1       7.176   5.766  19.432  0.00  0.00    +0.000 A 
ATOM     10  C   UNL     1       7.655   6.302  18.242  0.00  0.00    +0.000 A 
ATOM     11  C   UNL     1       7.080   5.953  17.019  0.00  0.00    +0.000 A 
ATOM     12  C   UNL     1       6.007   5.044  17.019  0.00  0.00    +0.000 A 
BRANCH   4  13
ATOM     13  C   UNL     1       5.420   4.865  14.568  0.00  0.00    +0.000 C 
BRANCH  13  15
ATOM     14  C   UNL     1       5.743   3.436  12.515  0.00  0.00    +0.000 C 
ATOM     15  C   UNL     1       6.324   3.863  13.853  0.00  0.00    +0.000 C 
ENDBRANCH  13  15
ENDBRANCH   4  13
ENDBRANCH   1   6
BRANCH   1  16
ATOM     16  C   UNL     1       1.982   3.622  19.138  0.00  0.00    +0.000 C 
BRANCH  16  17
ATOM     17  C   UNL     1       2.314   4.980  19.684  0.00  0.00    +0.000 C 
ATOM     18  O   UNL     1       2.666   5.108  20.857  0.00  0.00    +0.000 OA
ATOM     19  N   UNL     1       2.120   6.070  18.849  0.00  0.00    +0.000 N 
ATOM     20  H   UNL     1       1.984   5.902  17.853  0.00  0.00    +0.000 HD
BRANCH  19  21
ATOM     21  C   UNL     1       2.589   7.399  19.256  0.00  0.00    +0.000 C 
ATOM     22  C   UNL     1       2.715   8.346  18.054  0.00  0.00    +0.000 C 
ATOM     23  C   UNL     1       1.410   9.040  17.683  0.00  0.00    +0.000 C 
ATOM     24  C   UNL     1       0.856   9.799  18.879  0.00  0.00    +0.000 C 
ATOM     25  C   UNL     1       0.558   8.838  20.021  0.00  0.00    +0.000 C 
ATOM     26  C   UNL     1       1.773   7.997  20.420  0.00  0.00    +0.000 C 
ENDBRANCH  19  21
ENDBRANCH  16  17
ENDBRANCH   1  16
TORSDOF 6
ENDMDL
MODEL 2
REMARK VINA RESULT:      -7.4      3.010      7.125
REMARK  Name = 
REMARK  7 active torsions:
REMARK  status: ('A' for Active; 'I' for Inactive)
REMARK    1  A    between atoms: C_1  and  C_2
REMARK    2  A    between atoms: C_2  and  C_3
REMARK    3  A    between atoms: C_3  and  N_4
REMARK    4  A    between atoms: C_6  and  S_7
REMARK    5  A    between atoms: S_7  and  C_10
REMARK    6  A    between atoms: C_10  and  C_11
REMARK    7  A    between atoms: N_13  and  C_14
REMARK                            x       y       z     vdW  Elec       q    Type
REMARK                         _______ _______ _______ _____ _____    ______ ____
ROOT
ATOM      1  S   UNL     1       6.111   6.131  16.377  0.00  0.00    +0.000 S 
ATOM      2  O   UNL     1       5.188   6.604  15.373  0.00  0.00    +0.000 OA
ATOM      3  O   UNL     1       6.995   7.033  17.100  0.00  0.00    +0.000 OA
ENDROOT
BRANCH   1   6
ATOM      4  N   UNL     1       4.232   3.995  19.060  0.00  0.00    +0.000 N 
ATOM      5  C   UNL     1       5.218   4.162  18.121  0.00  0.00    +0.000 A 
ATOM      6  C   UNL     1       5.096   5.433  17.598  0.00  0.00    +0.000 A 
ATOM      7  C   UNL     1       4.014   6.079  18.265  0.00  0.00    +0.000 A 
ATOM      8  C   UNL     1       3.429   7.365  18.204  0.00  0.00    +0.000 A 
ATOM      9  C   UNL     1       2.341   7.677  19.026  0.00  0.00    +0.000 A 
ATOM     10  C   UNL     1       1.832   6.738  19.915  0.00  0.00    +0.000 A 
ATOM     11  C   UNL     1       2.394   5.462  20.006  0.00  0.00    +0.000 A 
ATOM     12  C   UNL     1       3.484   5.151  19.174  0.00  0.00    +0.000 A 
BRANCH   4  13
ATOM     13  C   UNL     1       4.035   2.775  19.833  0.00  0.00    +0.000 C 
BRANCH  13  15
ATOM     14  C   UNL     1       1.756   1.950  19.136  0.00  0.00    +0.000 C 
ATOM     15  C   UNL     1       3.257   1.721  19.049  0.00  0.00    +0.000 C 
ENDBRANCH  13  15
ENDBRANCH   4  13
ENDBRANCH   1   6
BRANCH   1  16
ATOM     16  C   UNL     1       7.078   4.794  15.759  0.00  0.00    +0.000 C 
BRANCH  16  17
ATOM     17  C   UNL     1       7.114   4.834  14.259  0.00  0.00    +0.000 C 
ATOM     18  O   UNL     1       7.916   5.566  13.677  0.00  0.00    +0.000 OA
ATOM     19  N   UNL     1       6.161   4.094  13.577  0.00  0.00    +0.000 N 
ATOM     20  H   UNL     1       5.632   3.390  14.090  0.00  0.00    +0.000 HD
BRANCH  19  21
ATOM     21  C   UNL     1       6.250   3.949  12.120  0.00  0.00    +0.000 C 
ATOM     22  C   UNL     1       7.061   2.706  11.725  0.00  0.00    +0.000 C 
ATOM     23  C   UNL     1       6.239   1.423  11.694  0.00  0.00    +0.000 C 
ATOM     24  C   UNL     1       5.051   1.580  10.757  0.00  0.00    +0.000 C 
ATOM     25  C   UNL     1       4.141   2.699  11.243  0.00  0.00    +0.000 C 
ATOM     26  C   UNL     1       4.878   4.028  11.420  0.00  0.00    +0.000 C 
ENDBRANCH  19  21
ENDBRANCH  16  17
ENDBRANCH   1  16
TORSDOF 6
ENDMDL
MODEL 3
REMARK VINA RESULT:      -7.3      2.741      7.258
REMARK  Name = 
REMARK  7 active torsions:
REMARK  status: ('A' for Active; 'I' for Inactive)
REMARK    1  A    between atoms: C_1  and  C_2
REMARK    2  A    between atoms: C_2  and  C_3
REMARK    3  A    between atoms: C_3  and  N_4
REMARK    4  A    between atoms: C_6  and  S_7
REMARK    5  A    between atoms: S_7  and  C_10
REMARK    6  A    between atoms: C_10  and  C_11
REMARK    7  A    between atoms: N_13  and  C_14
REMARK                            x       y       z     vdW  Elec       q    Type
REMARK                         _______ _______ _______ _____ _____    ______ ____
ROOT
ATOM      1  S   UNL     1       7.065   5.481  17.354  0.00  0.00    +0.000 S 
ATOM      2  O   UNL     1       7.578   6.665  16.708  0.00  0.00    +0.000 OA
ATOM      3  O   UNL     1       7.505   5.071  18.678  0.00  0.00    +0.000 OA
ENDROOT
BRANCH   1   6
ATOM      4  N   UNL     1       3.415   6.842  17.696  0.00  0.00    +0.000 N 
ATOM      5  C   UNL     1       4.766   7.029  17.546  0.00  0.00    +0.000 A 
ATOM      6  C   UNL     1       5.366   5.786  17.527  0.00  0.00    +0.000 A 
ATOM      7  C   UNL     1       4.340   4.802  17.638  0.00  0.00    +0.000 A 
ATOM      8  C   UNL     1       4.310   3.389  17.645  0.00  0.00    +0.000 A 
ATOM      9  C   UNL     1       3.090   2.716  17.776  0.00  0.00    +0.000 A 
ATOM     10  C   UNL     1       1.900   3.425  17.890  0.00  0.00    +0.000 A 
ATOM     11  C   UNL     1       1.896   4.822  17.876  0.00  0.00    +0.000 A 
ATOM     12  C   UNL     1       3.125   5.493  17.750  0.00  0.00    +0.000 A 
BRANCH   4  13
ATOM     13  C   UNL     1       2.442   7.925  17.761  0.00  0.00    +0.000 C 
BRANCH  13  15
ATOM     14  C   UNL     1       1.180   9.475  19.299  0.00  0.00    +0.000 C 
ATOM     15  C   UNL     1       1.959   8.174  19.188  0.00  0.00    +0.000 C 
ENDBRANCH  13  15
ENDBRANCH   4  13
ENDBRANCH   1   6
BRANCH   1  16
ATOM     16  C   UNL     1       7.178   4.085  16.284  0.00  0.00    +0.000 C 
BRANCH  16  17
ATOM     17  C   UNL     1       6.934   4.503  14.863  0.00  0.00    +0.000 C 
ATOM     18  O   UNL     1       7.298   5.613  14.472  0.00  0.00    +0.000 OA
ATOM     19  N   UNL     1       6.212   3.637  14.057  0.00  0.00    +0.000 N 
ATOM     20  H   UNL     1       6.074   2.678  14.372  0.00  0.00    +0.000 HD
BRANCH  19  21
ATOM     21  C   UNL     1       6.091   3.902  12.619  0.00  0.00    +0.000 C 
ATOM     22  C   UNL     1       7.432   3.711  11.895  0.00  0.00    +0.000 C 
ATOM     23  C   UNL     1       7.710   2.267  11.495  0.00  0.00    +0.000 C 
ATOM     24  C   UNL     1       6.579   1.731  10.631  0.00  0.00    +0.000 C 
ATOM     25  C   UNL     1       5.270   1.749  11.406  0.00  0.00    +0.000 C 
ATOM     26  C   UNL     1       4.928   3.135  11.959  0.00  0.00    +0.000 C 
ENDBRANCH  19  21
ENDBRANCH  16  17
ENDBRANCH   1  16
TORSDOF 6
ENDMDL
MODEL 4
REMARK VINA RESULT:      -7.2      4.116      6.641
REMARK  Name = 
REMARK  7 active torsions:
REMARK  status: ('A' for Active; 'I' for Inactive)
REMARK    1  A    between atoms: C_1  and  C_2
REMARK    2  A    between atoms: C_2  and  C_3
REMARK    3  A    between atoms: C_3  and  N_4
REMARK    4  A    between atoms: C_6  and  S_7
REMARK    5  A    between atoms: S_7  and  C_10
REMARK    6  A    between atoms: C_10  and  C_11
REMARK    7  A    between atoms: N_13  and  C_14
REMARK                            x       y       z     vdW  Elec       q    Type
REMARK                         _______ _______ _______ _____ _____    ______ ____
ROOT
ATOM      1  S   UNL     1       7.422   5.658  17.395  0.00  0.00    +0.000 S 
ATOM      2  O   UNL     1       8.158   4.418  17.338  0.00  0.00    +0.000 OA
ATOM      3  O   UNL     1       7.239   6.502  16.225  0.00  0.00    +0.000 OA
ENDROOT
BRANCH   1   6
ATOM      4  N   UNL     1       4.094   3.973  18.569  0.00  0.00    +0.000 N 
ATOM      5  C   UNL     1       5.441   3.939  18.311  0.00  0.00    +0.000 A 
ATOM      6  C   UNL     1       5.818   5.186  17.855  0.00  0.00    +0.000 A 
ATOM      7  C   UNL     1       4.664   6.023  17.866  0.00  0.00    +0.000 A 
ATOM      8  C   UNL     1       4.412   7.378  17.553  0.00  0.00    +0.000 A 
ATOM      9  C   UNL     1       3.117   7.895  17.677  0.00  0.00    +0.000 A 
ATOM     10  C   UNL     1       2.073   7.091  18.117  0.00  0.00    +0.000 A 
ATOM     11  C   UNL     1       2.292   5.750  18.443  0.00  0.00    +0.000 A 
ATOM     12  C   UNL     1       3.593   5.234  18.312  0.00  0.00    +0.000 A 
BRANCH   4  13
ATOM     13  C   UNL     1       3.327   2.838  19.067  0.00  0.00    +0.000 C 
BRANCH  13  15
ATOM     14  C   UNL     1       2.219   3.274  21.290  0.00  0.00    +0.000 C 
ATOM     15  C   UNL     1       3.436   2.697  20.584  0.00  0.00    +0.000 C 
ENDBRANCH  13  15
ENDBRANCH   4  13
ENDBRANCH   1   6
BRANCH   1  16
ATOM     16  C   UNL     1       8.003   6.671  18.715  0.00  0.00    +0.000 C 
BRANCH  16  17
ATOM     17  C   UNL     1       8.120   8.096  18.258  0.00  0.00    +0.000 C 
ATOM     18  O   UNL     1       7.559   8.464  17.225  0.00  0.00    +0.000 OA
ATOM     19  N   UNL     1       8.948   8.935  18.987  0.00  0.00    +0.000 N 
ATOM     20  H   UNL     1       9.258   8.633  19.910  0.00  0.00    +0.000 HD
BRANCH  19  21
ATOM     21  C   UNL     1       8.969  10.374  18.701  0.00  0.00    +0.000 C 
ATOM     22  C   UNL     1       8.811  11.207  19.982  0.00  0.00    +0.000 C 
ATOM     23  C   UNL     1      10.121  11.445  20.722  0.00  0.00    +0.000 C 
ATOM     24  C   UNL     1      11.136  12.107  19.802  0.00  0.00    +0.000 C 
ATOM     25  C   UNL     1      11.435  11.205  18.613  0.00  0.00    +0.000 C 
ATOM     26  C   UNL     1      10.176  10.802  17.842  0.00  0.00    +0.000 C 
ENDBRANCH  19  21
ENDBRANCH  16  17
ENDBRANCH   1  16
TORSDOF 6
ENDMDL
MODEL 5
REMARK VINA RESULT:      -7.2      2.824      4.319
REMARK  Name = 
REMARK  7 active torsions:
REMARK  status: ('A' for Active; 'I' for Inactive)
REMARK    1  A    between atoms: C_1  and  C_2
REMARK    2  A    between atoms: C_2  and  C_3
REMARK    3  A    between atoms: C_3  and  N_4
REMARK    4  A    between atoms: C_6  and  S_7
REMARK    5  A    between atoms: S_7  and  C_10
REMARK    6  A    between atoms: C_10  and  C_11
REMARK    7  A    between atoms: N_13  and  C_14
REMARK                            x       y       z     vdW  Elec       q    Type
REMARK                         _______ _______ _______ _____ _____    ______ ____
ROOT
ATOM      1  S   UNL     1       2.360   7.782  18.278  0.00  0.00    +0.000 S 
ATOM      2  O   UNL     1       3.245   8.887  17.995  0.00  0.00    +0.000 OA
ATOM      3  O   UNL     1       1.090   7.613  17.589  0.00  0.00    +0.000 OA
ENDROOT
BRANCH   1   6
ATOM      4  N   UNL     1       4.954   5.060  17.201  0.00  0.00    +0.000 N 
ATOM      5  C   UNL     1       4.593   6.365  17.426  0.00  0.00    +0.000 A 
ATOM      6  C   UNL     1       3.282   6.374  17.857  0.00  0.00    +0.000 A 
ATOM      7  C   UNL     1       2.835   5.022  17.928  0.00  0.00    +0.000 A 
ATOM      8  C   UNL     1       1.633   4.388  18.320  0.00  0.00    +0.000 A 
ATOM      9  C   UNL     1       1.528   2.994  18.264  0.00  0.00    +0.000 A 
ATOM     10  C   UNL     1       2.601   2.220  17.836  0.00  0.00    +0.000 A 
ATOM     11  C   UNL     1       3.804   2.816  17.451  0.00  0.00    +0.000 A 
ATOM     12  C   UNL     1       3.902   4.217  17.504  0.00  0.00    +0.000 A 
BRANCH   4  13
ATOM     13  C   UNL     1       6.270   4.644  16.734  0.00  0.00    +0.000 C 
BRANCH  13  15
ATOM     14  C   UNL     1       5.980   4.021  14.307  0.00  0.00    +0.000 C 
ATOM     15  C   UNL     1       6.518   5.055  15.284  0.00  0.00    +0.000 C 
ENDBRANCH  13  15
ENDBRANCH   4  13
ENDBRANCH   1   6
BRANCH   1  16
ATOM     16  C   UNL     1       2.067   7.642  20.010  0.00  0.00    +0.000 C 
BRANCH  16  17
ATOM     17  C   UNL     1       1.120   8.716  20.461  0.00  0.00    +0.000 C 
ATOM     18  O   UNL     1       0.407   8.538  21.450  0.00  0.00    +0.000 OA
ATOM     19  N   UNL     1       1.021   9.853  19.674  0.00  0.00    +0.000 N 
ATOM     20  H   UNL     1       1.736  10.020  18.968  0.00  0.00    +0.000 HD
BRANCH  19  21
ATOM     21  C   UNL     1       0.251  11.009  20.149  0.00  0.00    +0.000 C 
ATOM     22  C   UNL     1       1.056  12.311  20.027  0.00  0.00    +0.000 C 
ATOM     23  C   UNL     1       0.968  12.956  18.649  0.00  0.00    +0.000 C 
ATOM     24  C   UNL     1      -0.484  13.212  18.276  0.00  0.00    +0.000 C 
ATOM     25  C   UNL     1      -1.253  11.900  18.220  0.00  0.00    +0.000 C 
ATOM     26  C   UNL     1      -1.153  11.098  19.520  0.00  0.00    +0.000 C 
ENDBRANCH  19  21
ENDBRANCH  16  17
ENDBRANCH   1  16
TORSDOF 6
ENDMDL
MODEL 6
REMARK VINA RESULT:      -7.1      2.930      4.610
REMARK  Name = 
REMARK  7 active torsions:
REMARK  status: ('A' for Active; 'I' for Inactive)
REMARK    1  A    between atoms: C_1  and  C_2
REMARK    2  A    between atoms: C_2  and  C_3
REMARK    3  A    between atoms: C_3  and  N_4
REMARK    4  A    between atoms: C_6  and  S_7
REMARK    5  A    between atoms: S_7  and  C_10
REMARK    6  A    between atoms: C_10  and  C_11
REMARK    7  A    between atoms: N_13  and  C_14
REMARK                            x       y       z     vdW  Elec       q    Type
REMARK                         _______ _______ _______ _____ _____    ______ ____
ROOT
ATOM      1  S   UNL     1       2.257   7.923  18.276  0.00  0.00    +0.000 S 
ATOM      2  O   UNL     1       3.063   9.093  18.021  0.00  0.00    +0.000 OA
ATOM      3  O   UNL     1       1.004   7.681  17.578  0.00  0.00    +0.000 OA
ENDROOT
BRANCH   1   6
ATOM      4  N   UNL     1       5.039   5.412  17.158  0.00  0.00    +0.000 N 
ATOM      5  C   UNL     1       4.587   6.683  17.410  0.00  0.00    +0.000 A 
ATOM      6  C   UNL     1       3.276   6.592  17.831  0.00  0.00    +0.000 A 
ATOM      7  C   UNL     1       2.923   5.211  17.867  0.00  0.00    +0.000 A 
ATOM      8  C   UNL     1       1.766   4.487  18.235  0.00  0.00    +0.000 A 
ATOM      9  C   UNL     1       1.757   3.091  18.147  0.00  0.00    +0.000 A 
ATOM     10  C   UNL     1       2.883   2.403  17.710  0.00  0.00    +0.000 A 
ATOM     11  C   UNL     1       4.045   3.089  17.348  0.00  0.00    +0.000 A 
ATOM     12  C   UNL     1       4.046   4.492  17.434  0.00  0.00    +0.000 A 
BRANCH   4  13
ATOM     13  C   UNL     1       6.384   5.099  16.692  0.00  0.00    +0.000 C 
BRANCH  13  15
ATOM     14  C   UNL     1       7.745   5.904  18.657  0.00  0.00    +0.000 C 
ATOM     15  C   UNL     1       7.307   4.698  17.841  0.00  0.00    +0.000 C 
ENDBRANCH  13  15
ENDBRANCH   4  13
ENDBRANCH   1   6
BRANCH   1  16
ATOM     16  C   UNL     1       1.968   7.726  20.003  0.00  0.00    +0.000 C 
BRANCH  16  17
ATOM     17  C   UNL     1       1.094   8.837  20.509  0.00  0.00    +0.000 C 
ATOM     18  O   UNL     1       0.517   8.727  21.592  0.00  0.00    +0.000 OA
ATOM     19  N   UNL     1       0.897   9.927  19.676  0.00  0.00    +0.000 N 
ATOM     20  H   UNL     1       1.514  10.043  18.873  0.00  0.00    +0.000 HD
BRANCH  19  21
ATOM     21  C   UNL     1       0.203  11.118  20.177  0.00  0.00    +0.000 C 
ATOM     22  C   UNL     1       1.074  12.376  20.045  0.00  0.00    +0.000 C 
ATOM     23  C   UNL     1       0.989  13.037  18.675  0.00  0.00    +0.000 C 
ATOM     24  C   UNL     1      -0.455  13.375  18.339  0.00  0.00    +0.000 C 
ATOM     25  C   UNL     1      -1.296  12.106  18.291  0.00  0.00    +0.000 C 
ATOM     26  C   UNL     1      -1.209  11.289  19.583  0.00  0.00    +0.000 C 
ENDBRANCH  19  21
ENDBRANCH  16  17
ENDBRANCH   1  16
TORSDOF 6
ENDMDL
MODEL 7
REMARK VINA RESULT:      -7.0      1.589      3.253
REMARK  Name = 
REMARK  7 active torsions:
REMARK  status: ('A' for Active; 'I' for Inactive)
REMARK    1  A    between atoms: C_1  and  C_2
REMARK    2  A    between atoms: C_2  and  C_3
REMARK    3  A    between atoms: C_3  and  N_4
REMARK    4  A    between atoms: C_6  and  S_7
REMARK    5  A    between atoms: S_7  and  C_10
REMARK    6  A    between atoms: C_10  and  C_11
REMARK    7  A    between atoms: N_13  and  C_14
REMARK                            x       y       z     vdW  Elec       q    Type
REMARK                         _______ _______ _______ _____ _____    ______ ____
ROOT
ATOM      1  S   UNL     1       3.089   4.412  18.927  0.00  0.00    +0.000 S 
ATOM      2  O   UNL     1       2.881   3.019  18.612  0.00  0.00    +0.000 OA
ATOM      3  O   UNL     1       3.031   4.911  20.292  0.00  0.00    +0.000 OA
ENDROOT
BRANCH   1   6
ATOM      4  N   UNL     1       6.864   5.301  18.423  0.00  0.00    +0.000 N 
ATOM      5  C   UNL     1       5.747   5.171  19.209  0.00  0.00    +0.000 A 
ATOM      6  C   UNL     1       4.713   4.733  18.407  0.00  0.00    +0.000 A 
ATOM      7  C   UNL     1       5.225   4.559  17.088  0.00  0.00    +0.000 A 
ATOM      8  C   UNL     1       4.685   4.114  15.859  0.00  0.00    +0.000 A 
ATOM      9  C   UNL     1       5.493   4.065  14.718  0.00  0.00    +0.000 A 
ATOM     10  C   UNL     1       6.830   4.442  14.781  0.00  0.00    +0.000 A 
ATOM     11  C   UNL     1       7.394   4.877  15.982  0.00  0.00    +0.000 A 
ATOM     12  C   UNL     1       6.577   4.929  17.124  0.00  0.00    +0.000 A 
BRANCH   4  13
ATOM     13  C   UNL     1       8.163   5.744  18.914  0.00  0.00    +0.000 C 
BRANCH  13  15
ATOM     14  C   UNL     1       7.714   7.851  17.603  0.00  0.00    +0.000 C 
ATOM     15  C   UNL     1       8.299   7.264  18.879  0.00  0.00    +0.000 C 
ENDBRANCH  13  15
ENDBRANCH   4  13
ENDBRANCH   1   6
BRANCH   1  16
ATOM     16  C   UNL     1       2.070   5.441  17.924  0.00  0.00    +0.000 C 
BRANCH  16  17
ATOM     17  C   UNL     1       2.351   6.886  18.215  0.00  0.00    +0.000 C 
ATOM     18  O   UNL     1       3.242   7.479  17.605  0.00  0.00    +0.000 OA
ATOM     19  N   UNL     1       1.640   7.481  19.246  0.00  0.00    +0.000 N 
ATOM     20  H   UNL     1       0.815   7.005  19.607  0.00  0.00    +0.000 HD
BRANCH  19  21
ATOM     21  C   UNL     1       1.738   8.929  19.464  0.00  0.00    +0.000 C 
ATOM     22  C   UNL     1       1.205   9.719  18.260  0.00  0.00    +0.000 C 
ATOM     23  C   UNL     1      -0.305   9.927  18.285  0.00  0.00    +0.000 C 
ATOM     24  C   UNL     1      -0.722  10.614  19.576  0.00  0.00    +0.000 C 
ATOM     25  C   UNL     1      -0.357   9.751  20.775  0.00  0.00    +0.000 C 
ATOM     26  C   UNL     1       1.128   9.380  20.807  0.00  0.00    +0.000 C 
ENDBRANCH  19  21
ENDBRANCH  16  17
ENDBRANCH   1  16
TORSDOF 6
ENDMDL
MODEL 8
REMARK VINA RESULT:      -6.9      4.142      6.704
REMARK  Name = 
REMARK  7 active torsions:
REMARK  status: ('A' for Active; 'I' for Inactive)
REMARK    1  A    between atoms: C_1  and  C_2
REMARK    2  A    between atoms: C_2  and  C_3
REMARK    3  A    between atoms: C_3  and  N_4
REMARK    4  A    between atoms: C_6  and  S_7
REMARK    5  A    between atoms: S_7  and  C_10
REMARK    6  A    between atoms: C_10  and  C_11
REMARK    7  A    between atoms: N_13  and  C_14
REMARK                            x       y       z     vdW  Elec       q    Type
REMARK                         _______ _______ _______ _____ _____    ______ ____
ROOT
ATOM      1  S   UNL     1       7.382   5.873  17.511  0.00  0.00    +0.000 S 
ATOM      2  O   UNL     1       7.671   4.472  17.702  0.00  0.00    +0.000 OA
ATOM      3  O   UNL     1       7.601   6.540  16.237  0.00  0.00    +0.000 OA
ENDROOT
BRANCH   1   6
ATOM      4  N   UNL     1       3.578   6.745  17.756  0.00  0.00    +0.000 N 
ATOM      5  C   UNL     1       4.853   7.007  17.322  0.00  0.00    +0.000 A 
ATOM      6  C   UNL     1       5.675   6.002  17.790  0.00  0.00    +0.000 A 
ATOM      7  C   UNL     1       4.866   5.075  18.510  0.00  0.00    +0.000 A 
ATOM      8  C   UNL     1       5.106   3.853  19.181  0.00  0.00    +0.000 A 
ATOM      9  C   UNL     1       4.050   3.179  19.804  0.00  0.00    +0.000 A 
ATOM     10  C   UNL     1       2.759   3.694  19.762  0.00  0.00    +0.000 A 
ATOM     11  C   UNL     1       2.489   4.893  19.099  0.00  0.00    +0.000 A 
ATOM     12  C   UNL     1       3.554   5.569  18.479  0.00  0.00    +0.000 A 
BRANCH   4  13
ATOM     13  C   UNL     1       2.424   7.587  17.462  0.00  0.00    +0.000 C 
BRANCH  13  15
ATOM     14  C   UNL     1       1.566   9.837  18.209  0.00  0.00    +0.000 C 
ATOM     15  C   UNL     1       2.038   8.462  18.653  0.00  0.00    +0.000 C 
ENDBRANCH  13  15
ENDBRANCH   4  13
ENDBRANCH   1   6
BRANCH   1  16
ATOM     16  C   UNL     1       8.132   6.846  18.773  0.00  0.00    +0.000 C 
BRANCH  16  17
ATOM     17  C   UNL     1       8.209   8.282  18.341  0.00  0.00    +0.000 C 
ATOM     18  O   UNL     1       7.664   8.645  17.298  0.00  0.00    +0.000 OA
ATOM     19  N   UNL     1       8.987   9.139  19.105  0.00  0.00    +0.000 N 
ATOM     20  H   UNL     1       9.282   8.834  20.031  0.00  0.00    +0.000 HD
BRANCH  19  21
ATOM     21  C   UNL     1       8.962  10.582  18.841  0.00  0.00    +0.000 C 
ATOM     22  C   UNL     1       8.982  11.395  20.143  0.00  0.00    +0.000 C 
ATOM     23  C   UNL     1      10.382  11.629  20.698  0.00  0.00    +0.000 C 
ATOM     24  C   UNL     1      11.256  12.310  19.655  0.00  0.00    +0.000 C 
ATOM     25  C   UNL     1      11.390  11.427  18.422  0.00  0.00    +0.000 C 
ATOM     26  C   UNL     1      10.036  11.028  17.828  0.00  0.00    +0.000 C 
ENDBRANCH  19  21
ENDBRANCH  16  17
ENDBRANCH   1  16
TORSDOF 6
ENDMDL
MODEL 9
REMARK VINA RESULT:      -6.9      2.135      6.574
REMARK  Name = 
REMARK  7 active torsions:
REMARK  status: ('A' for Active; 'I' for Inactive)
REMARK    1  A    between atoms: C_1  and  C_2
REMARK    2  A    between atoms: C_2  and  C_3
REMARK    3  A    between atoms: C_3  and  N_4
REMARK    4  A    between atoms: C_6  and  S_7
REMARK    5  A    between atoms: S_7  and  C_10
REMARK    6  A    between atoms: C_10  and  C_11
REMARK    7  A    between atoms: N_13  and  C_14
REMARK                            x       y       z     vdW  Elec       q    Type
REMARK                         _______ _______ _______ _____ _____    ______ ____
ROOT
ATOM      1  S   UNL     1       1.901   4.611  19.697  0.00  0.00    +0.000 S 
ATOM      2  O   UNL     1       0.706   3.966  20.188  0.00  0.00    +0.000 OA
ATOM      3  O   UNL     1       2.254   4.612  18.286  0.00  0.00    +0.000 OA
ENDROOT
BRANCH   1   6
ATOM      4  N   UNL     1       1.264   8.145  21.246  0.00  0.00    +0.000 N 
ATOM      5  C   UNL     1       1.329   6.777  21.339  0.00  0.00    +0.000 A 
ATOM      6  C   UNL     1       1.683   6.284  20.100  0.00  0.00    +0.000 A 
ATOM      7  C   UNL     1       1.873   7.393  19.225  0.00  0.00    +0.000 A 
ATOM      8  C   UNL     1       2.263   7.543  17.874  0.00  0.00    +0.000 A 
ATOM      9  C   UNL     1       2.350   8.820  17.309  0.00  0.00    +0.000 A 
ATOM     10  C   UNL     1       2.067   9.950  18.067  0.00  0.00    +0.000 A 
ATOM     11  C   UNL     1       1.688   9.835  19.407  0.00  0.00    +0.000 A 
ATOM     12  C   UNL     1       1.596   8.550  19.968  0.00  0.00    +0.000 A 
BRANCH   4  13
ATOM     13  C   UNL     1       0.917   9.025  22.355  0.00  0.00    +0.000 C 
BRANCH  13  15
ATOM     14  C   UNL     1      -0.934  10.566  23.104  0.00  0.00    +0.000 C 
ATOM     15  C   UNL     1      -0.592   9.224  22.476  0.00  0.00    +0.000 C 
ENDBRANCH  13  15
ENDBRANCH   4  13
ENDBRANCH   1   6
BRANCH   1  16
ATOM     16  C   UNL     1       3.314   4.094  20.614  0.00  0.00    +0.000 C 
BRANCH  16  17
ATOM     17  C   UNL     1       4.492   3.931  19.698  0.00  0.00    +0.000 C 
ATOM     18  O   UNL     1       4.935   2.809  19.451  0.00  0.00    +0.000 OA
ATOM     19  N   UNL     1       5.101   5.085  19.229  0.00  0.00    +0.000 N 
ATOM     20  H   UNL     1       4.608   5.971  19.329  0.00  0.00    +0.000 HD
BRANCH  19  21
ATOM     21  C   UNL     1       6.140   4.998  18.196  0.00  0.00    +0.000 C 
ATOM     22  C   UNL     1       5.753   5.790  16.939  0.00  0.00    +0.000 C 
ATOM     23  C   UNL     1       6.106   7.270  17.016  0.00  0.00    +0.000 C 
ATOM     24  C   UNL     1       7.591   7.445  17.297  0.00  0.00    +0.000 C 
ATOM     25  C   UNL     1       7.952   6.816  18.635  0.00  0.00    +0.000 C 
ATOM     26  C   UNL     1       7.547   5.342  18.725  0.00  0.00    +0.000 C 
ENDBRANCH  19  21
ENDBRANCH  16  17
ENDBRANCH   1  16
TORSDOF 6
ENDMDL
