MODEL 1
REMARK VINA RESULT:      -8.7      0.000      0.000
REMARK  Name = 
REMARK  3 active torsions:
REMARK  status: ('A' for Active; 'I' for Inactive)
REMARK    1  A    between atoms: C_4  and  C_5
REMARK    2  A    between atoms: C_8  and  C_9
REMARK    3  A    between atoms: C_9  and  C_11
REMARK                            x       y       z     vdW  Elec       q    Type
REMARK                         _______ _______ _______ _____ _____    ______ ____
ROOT
ATOM      1  O   UNL     1       0.256   9.948  23.610  0.00  0.00    +0.000 OA
ATOM      2  C   UNL     1       0.459   9.595  22.466  0.00  0.00    +0.000 C 
ATOM      3  O   UNL     1       1.156   8.481  22.090  0.00  0.00    +0.000 OA
ATOM      4  C   UNL     1       1.125   8.443  20.741  0.00  0.00    +0.000 C 
ATOM      5  N   UNL     1       0.489   9.385  20.128  0.00  0.00    +0.000 NA
ATOM      6  C   UNL     1       0.045  10.185  21.154  0.00  0.00    +0.000 C 
ATOM      7  C   UNL     1      -0.639  11.336  20.979  0.00  0.00    +0.000 C 
ATOM      8  C   UNL     1      -1.020  11.779  19.576  0.00  0.00    +0.000 C 
ATOM      9  C   UNL     1      -0.481  13.166  19.207  0.00  0.00    +0.000 C 
ATOM     10  C   UNL     1      -1.227  14.292  19.919  0.00  0.00    +0.000 C 
ATOM     11  C   UNL     1      -0.783  14.595  21.354  0.00  0.00    +0.000 C 
ATOM     12  C   UNL     1      -0.257  13.434  22.201  0.00  0.00    +0.000 C 
ATOM     13  N   UNL     1      -1.027  12.202  22.003  0.00  0.00    +0.000 N 
ATOM     14  H   UNL     1      -2.017  12.435  21.919  0.00  0.00    +0.000 HD
ENDROOT
BRANCH   4  15
ATOM     15  C   UNL     1       1.835   7.325  20.098  0.00  0.00    +0.000 A 
ATOM     16  C   UNL     1       1.883   6.054  20.678  0.00  0.00    +0.000 A 
ATOM     17  C   UNL     1       2.565   5.019  20.028  0.00  0.00    +0.000 A 
ATOM     18  C   UNL     1       3.208   5.246  18.802  0.00  0.00    +0.000 A 
ATOM     19  C   UNL     1       3.151   6.516  18.219  0.00  0.00    +0.000 A 
ATOM     20  C   UNL     1       2.473   7.553  18.871  0.00  0.00    +0.000 A 
BRANCH  18  21
ATOM     21  C   UNL     1       3.864   4.094  18.128  0.00  0.00    +0.000 C 
ATOM     22  O   UNL     1       3.441   2.961  18.351  0.00  0.00    +0.000 OA
BRANCH  21  23
ATOM     23  C   UNL     1       4.997   4.261  17.183  0.00  0.00    +0.000 A 
ATOM     24  C   UNL     1       6.272   4.492  17.715  0.00  0.00    +0.000 A 
ATOM     25  C   UNL     1       7.366   4.674  16.866  0.00  0.00    +0.000 A 
ATOM     26  C   UNL     1       7.186   4.639  15.485  0.00  0.00    +0.000 A 
ATOM     27  C   UNL     1       5.915   4.431  14.948  0.00  0.00    +0.000 A 
ATOM     28  C   UNL     1       4.817   4.249  15.795  0.00  0.00    +0.000 A 
ENDBRANCH  21  23
ENDBRANCH  18  21
ENDBRANCH   4  15
TORSDOF 3
ENDMDL
MODEL 2
REMARK VINA RESULT:      -8.7      0.393      1.008
REMARK  Name = 
REMARK  3 active torsions:
REMARK  status: ('A' for Active; 'I' for Inactive)
REMARK    1  A    between atoms: C_4  and  C_5
REMARK    2  A    between atoms: C_8  and  C_9
REMARK    3  A    between atoms: C_9  and  C_11
REMARK                            x       y       z     vdW  Elec       q    Type
REMARK                         _______ _______ _______ _____ _____    ______ ____
ROOT
ATOM      1  O   UNL     1       0.060  10.140  23.408  0.00  0.00    +0.000 OA
ATOM      2  C   UNL     1       0.356   9.797  22.281  0.00  0.00    +0.000 C 
ATOM      3  O   UNL     1       0.988   8.632  21.945  0.00  0.00    +0.000 OA
ATOM      4  C   UNL     1       1.102   8.630  20.600  0.00  0.00    +0.000 C 
ATOM      5  N   UNL     1       0.624   9.641  19.955  0.00  0.00    +0.000 NA
ATOM      6  C   UNL     1       0.144  10.454  20.953  0.00  0.00    +0.000 C 
ATOM      7  C   UNL     1      -0.411  11.667  20.744  0.00  0.00    +0.000 C 
ATOM      8  C   UNL     1      -0.594  12.176  19.324  0.00  0.00    +0.000 C 
ATOM      9  C   UNL     1       0.104  13.516  19.062  0.00  0.00    +0.000 C 
ATOM     10  C   UNL     1      -0.612  14.689  19.727  0.00  0.00    +0.000 C 
ATOM     11  C   UNL     1      -0.303  14.915  21.211  0.00  0.00    +0.000 C 
ATOM     12  C   UNL     1       0.020  13.691  22.070  0.00  0.00    +0.000 C 
ATOM     13  N   UNL     1      -0.830  12.541  21.749  0.00  0.00    +0.000 N 
ATOM     14  H   UNL     1      -1.780  12.866  21.567  0.00  0.00    +0.000 HD
ENDROOT
BRANCH   4  15
ATOM     15  C   UNL     1       1.776   7.466  20.000  0.00  0.00    +0.000 A 
ATOM     16  C   UNL     1       2.400   7.539  18.751  0.00  0.00    +0.000 A 
ATOM     17  C   UNL     1       3.034   6.409  18.224  0.00  0.00    +0.000 A 
ATOM     18  C   UNL     1       3.043   5.199  18.933  0.00  0.00    +0.000 A 
ATOM     19  C   UNL     1       2.427   5.130  20.186  0.00  0.00    +0.000 A 
ATOM     20  C   UNL     1       1.788   6.259  20.713  0.00  0.00    +0.000 A 
BRANCH  18  21
ATOM     21  C   UNL     1       3.786   4.048  18.351  0.00  0.00    +0.000 C 
ATOM     22  O   UNL     1       3.393   2.909  18.596  0.00  0.00    +0.000 OA
BRANCH  21  23
ATOM     23  C   UNL     1       4.969   4.224  17.472  0.00  0.00    +0.000 A 
ATOM     24  C   UNL     1       6.190   4.566  18.069  0.00  0.00    +0.000 A 
ATOM     25  C   UNL     1       7.327   4.761  17.282  0.00  0.00    +0.000 A 
ATOM     26  C   UNL     1       7.244   4.627  15.897  0.00  0.00    +0.000 A 
ATOM     27  C   UNL     1       6.027   4.308  15.295  0.00  0.00    +0.000 A 
ATOM     28  C   UNL     1       4.885   4.113  16.079  0.00  0.00    +0.000 A 
ENDBRANCH  21  23
ENDBRANCH  18  21
ENDBRANCH   4  15
TORSDOF 3
ENDMDL
MODEL 3
REMARK VINA RESULT:      -8.6      2.526      3.645
REMARK  Name = 
REMARK  3 active torsions:
REMARK  status: ('A' for Active; 'I' for Inactive)
REMARK    1  A    between atoms: C_4  and  C_5
REMARK    2  A    between atoms: C_8  and  C_9
REMARK    3  A    between atoms: C_9  and  C_11
REMARK                            x       y       z     vdW  Elec       q    Type
REMARK                         _______ _______ _______ _____ _____    ______ ____
ROOT
ATOM      1  O   UNL     1      -1.490  12.447  17.999  0.00  0.00    +0.000 OA
ATOM      2  C   UNL     1      -0.832  11.678  18.669  0.00  0.00    +0.000 C 
ATOM      3  O   UNL     1      -0.010  10.700  18.181  0.00  0.00    +0.000 OA
ATOM      4  C   UNL     1       0.547  10.095  19.251  0.00  0.00    +0.000 C 
ATOM      5  N   UNL     1       0.224  10.529  20.423  0.00  0.00    +0.000 NA
ATOM      6  C   UNL     1      -0.676  11.532  20.151  0.00  0.00    +0.000 C 
ATOM      7  C   UNL     1      -1.324  12.247  21.094  0.00  0.00    +0.000 C 
ATOM      8  C   UNL     1      -1.021  12.005  22.564  0.00  0.00    +0.000 C 
ATOM      9  C   UNL     1      -2.256  11.612  23.384  0.00  0.00    +0.000 C 
ATOM     10  C   UNL     1      -3.198  12.789  23.625  0.00  0.00    +0.000 C 
ATOM     11  C   UNL     1      -4.167  13.123  22.486  0.00  0.00    +0.000 C 
ATOM     12  C   UNL     1      -3.706  12.855  21.052  0.00  0.00    +0.000 C 
ATOM     13  N   UNL     1      -2.300  13.213  20.839  0.00  0.00    +0.000 N 
ATOM     14  H   UNL     1      -2.093  14.074  21.345  0.00  0.00    +0.000 HD
ENDROOT
BRANCH   4  15
ATOM     15  C   UNL     1       1.470   8.982  18.970  0.00  0.00    +0.000 A 
ATOM     16  C   UNL     1       2.194   8.911  17.776  0.00  0.00    +0.000 A 
ATOM     17  C   UNL     1       3.065   7.838  17.555  0.00  0.00    +0.000 A 
ATOM     18  C   UNL     1       3.212   6.827  18.516  0.00  0.00    +0.000 A 
ATOM     19  C   UNL     1       2.494   6.905  19.713  0.00  0.00    +0.000 A 
ATOM     20  C   UNL     1       1.619   7.975  19.934  0.00  0.00    +0.000 A 
BRANCH  18  21
ATOM     21  C   UNL     1       4.197   5.744  18.252  0.00  0.00    +0.000 C 
ATOM     22  O   UNL     1       5.343   6.055  17.932  0.00  0.00    +0.000 OA
BRANCH  21  23
ATOM     23  C   UNL     1       3.855   4.305  18.377  0.00  0.00    +0.000 A 
ATOM     24  C   UNL     1       2.897   3.776  17.503  0.00  0.00    +0.000 A 
ATOM     25  C   UNL     1       2.527   2.432  17.594  0.00  0.00    +0.000 A 
ATOM     26  C   UNL     1       3.105   1.618  18.568  0.00  0.00    +0.000 A 
ATOM     27  C   UNL     1       4.044   2.145  19.455  0.00  0.00    +0.000 A 
ATOM     28  C   UNL     1       4.415   3.490  19.368  0.00  0.00    +0.000 A 
ENDBRANCH  21  23
ENDBRANCH  18  21
ENDBRANCH   4  15
TORSDOF 3
ENDMDL
MODEL 4
REMARK VINA RESULT:      -8.5      2.191      2.803
REMARK  Name = 
REMARK  3 active torsions:
REMARK  status: ('A' for Active; 'I' for Inactive)
REMARK    1  A    between atoms: C_4  and  C_5
REMARK    2  A    between atoms: C_8  and  C_9
REMARK    3  A    between atoms: C_9  and  C_11
REMARK                            x       y       z     vdW  Elec       q    Type
REMARK                         _______ _______ _______ _____ _____    ______ ____
ROOT
ATOM      1  O   UNL     1      -1.401  12.140  17.899  0.00  0.00    +0.000 OA
ATOM      2  C   UNL     1      -0.784  11.413  18.651  0.00  0.00    +0.000 C 
ATOM      3  O   UNL     1       0.024  10.378  18.270  0.00  0.00    +0.000 OA
ATOM      4  C   UNL     1       0.534   9.850  19.403  0.00  0.00    +0.000 C 
ATOM      5  N   UNL     1       0.190  10.389  20.525  0.00  0.00    +0.000 NA
ATOM      6  C   UNL     1      -0.673  11.388  20.144  0.00  0.00    +0.000 C 
ATOM      7  C   UNL     1      -1.327  12.196  21.004  0.00  0.00    +0.000 C 
ATOM      8  C   UNL     1      -1.072  12.071  22.497  0.00  0.00    +0.000 C 
ATOM      9  C   UNL     1      -2.339  11.778  23.310  0.00  0.00    +0.000 C 
ATOM     10  C   UNL     1      -3.254  12.996  23.425  0.00  0.00    +0.000 C 
ATOM     11  C   UNL     1      -4.181  13.258  22.233  0.00  0.00    +0.000 C 
ATOM     12  C   UNL     1      -3.689  12.858  20.841  0.00  0.00    +0.000 C 
ATOM     13  N   UNL     1      -2.269  13.161  20.641  0.00  0.00    +0.000 N 
ATOM     14  H   UNL     1      -2.051  14.057  21.079  0.00  0.00    +0.000 HD
ENDROOT
BRANCH   4  15
ATOM     15  C   UNL     1       1.432   8.695  19.242  0.00  0.00    +0.000 A 
ATOM     16  C   UNL     1       1.616   7.757  20.263  0.00  0.00    +0.000 A 
ATOM     17  C   UNL     1       2.474   6.670  20.063  0.00  0.00    +0.000 A 
ATOM     18  C   UNL     1       3.161   6.516  18.849  0.00  0.00    +0.000 A 
ATOM     19  C   UNL     1       2.969   7.450  17.826  0.00  0.00    +0.000 A 
ATOM     20  C   UNL     1       2.114   8.540  18.027  0.00  0.00    +0.000 A 
BRANCH  18  21
ATOM     21  C   UNL     1       4.013   5.310  18.671  0.00  0.00    +0.000 C 
ATOM     22  O   UNL     1       3.876   4.371  19.454  0.00  0.00    +0.000 OA
BRANCH  21  23
ATOM     23  C   UNL     1       5.007   5.189  17.576  0.00  0.00    +0.000 A 
ATOM     24  C   UNL     1       4.723   4.315  16.518  0.00  0.00    +0.000 A 
ATOM     25  C   UNL     1       5.636   4.154  15.474  0.00  0.00    +0.000 A 
ATOM     26  C   UNL     1       6.840   4.855  15.491  0.00  0.00    +0.000 A 
ATOM     27  C   UNL     1       7.139   5.710  16.552  0.00  0.00    +0.000 A 
ATOM     28  C   UNL     1       6.228   5.874  17.600  0.00  0.00    +0.000 A 
ENDBRANCH  21  23
ENDBRANCH  18  21
ENDBRANCH   4  15
TORSDOF 3
ENDMDL
MODEL 5
REMARK VINA RESULT:      -8.5      0.627      1.131
REMARK  Name = 
REMARK  3 active torsions:
REMARK  status: ('A' for Active; 'I' for Inactive)
REMARK    1  A    between atoms: C_4  and  C_5
REMARK    2  A    between atoms: C_8  and  C_9
REMARK    3  A    between atoms: C_9  and  C_11
REMARK                            x       y       z     vdW  Elec       q    Type
REMARK                         _______ _______ _______ _____ _____    ______ ____
ROOT
ATOM      1  O   UNL     1      -0.143  10.521  23.210  0.00  0.00    +0.000 OA
ATOM      2  C   UNL     1       0.216  10.157  22.109  0.00  0.00    +0.000 C 
ATOM      3  O   UNL     1       0.848   8.977  21.828  0.00  0.00    +0.000 OA
ATOM      4  C   UNL     1       1.047   8.954  20.493  0.00  0.00    +0.000 C 
ATOM      5  N   UNL     1       0.629   9.964  19.806  0.00  0.00    +0.000 NA
ATOM      6  C   UNL     1       0.101  10.799  20.761  0.00  0.00    +0.000 C 
ATOM      7  C   UNL     1      -0.417  12.019  20.502  0.00  0.00    +0.000 C 
ATOM      8  C   UNL     1      -0.501  12.512  19.067  0.00  0.00    +0.000 C 
ATOM      9  C   UNL     1       0.237  13.835  18.833  0.00  0.00    +0.000 C 
ATOM     10  C   UNL     1      -0.498  15.030  19.437  0.00  0.00    +0.000 C 
ATOM     11  C   UNL     1      -0.280  15.271  20.934  0.00  0.00    +0.000 C 
ATOM     12  C   UNL     1      -0.034  14.053  21.827  0.00  0.00    +0.000 C 
ATOM     13  N   UNL     1      -0.883  12.914  21.467  0.00  0.00    +0.000 N 
ATOM     14  H   UNL     1      -1.814  13.253  21.221  0.00  0.00    +0.000 HD
ENDROOT
BRANCH   4  15
ATOM     15  C   UNL     1       1.736   7.771  19.952  0.00  0.00    +0.000 A 
ATOM     16  C   UNL     1       1.771   6.559  20.647  0.00  0.00    +0.000 A 
ATOM     17  C   UNL     1       2.432   5.458  20.091  0.00  0.00    +0.000 A 
ATOM     18  C   UNL     1       3.068   5.561  18.845  0.00  0.00    +0.000 A 
ATOM     19  C   UNL     1       3.024   6.772  18.147  0.00  0.00    +0.000 A 
ATOM     20  C   UNL     1       2.366   7.874  18.704  0.00  0.00    +0.000 A 
BRANCH  18  21
ATOM     21  C   UNL     1       3.702   4.341  18.276  0.00  0.00    +0.000 C 
ATOM     22  O   UNL     1       3.195   3.247  18.516  0.00  0.00    +0.000 OA
BRANCH  21  23
ATOM     23  C   UNL     1       4.912   4.397  17.417  0.00  0.00    +0.000 A 
ATOM     24  C   UNL     1       4.757   4.174  16.043  0.00  0.00    +0.000 A 
ATOM     25  C   UNL     1       5.868   4.198  15.196  0.00  0.00    +0.000 A 
ATOM     26  C   UNL     1       7.137   4.431  15.724  0.00  0.00    +0.000 A 
ATOM     27  C   UNL     1       7.300   4.633  17.094  0.00  0.00    +0.000 A 
ATOM     28  C   UNL     1       6.191   4.609  17.945  0.00  0.00    +0.000 A 
ENDBRANCH  21  23
ENDBRANCH  18  21
ENDBRANCH   4  15
TORSDOF 3
ENDMDL
MODEL 6
REMARK VINA RESULT:      -8.4      2.220      2.848
REMARK  Name = 
REMARK  3 active torsions:
REMARK  status: ('A' for Active; 'I' for Inactive)
REMARK    1  A    between atoms: C_4  and  C_5
REMARK    2  A    between atoms: C_8  and  C_9
REMARK    3  A    between atoms: C_9  and  C_11
REMARK                            x       y       z     vdW  Elec       q    Type
REMARK                         _______ _______ _______ _____ _____    ______ ____
ROOT
ATOM      1  O   UNL     1      -1.524  12.031  17.806  0.00  0.00    +0.000 OA
ATOM      2  C   UNL     1      -0.874  11.336  18.560  0.00  0.00    +0.000 C 
ATOM      3  O   UNL     1      -0.061  10.301  18.186  0.00  0.00    +0.000 OA
ATOM      4  C   UNL     1       0.490   9.815  19.318  0.00  0.00    +0.000 C 
ATOM      5  N   UNL     1       0.171  10.382  20.433  0.00  0.00    +0.000 NA
ATOM      6  C   UNL     1      -0.719  11.356  20.049  0.00  0.00    +0.000 C 
ATOM      7  C   UNL     1      -1.360  12.181  20.904  0.00  0.00    +0.000 C 
ATOM      8  C   UNL     1      -1.059  12.103  22.392  0.00  0.00    +0.000 C 
ATOM      9  C   UNL     1      -2.297  11.817  23.250  0.00  0.00    +0.000 C 
ATOM     10  C   UNL     1      -3.228  13.023  23.356  0.00  0.00    +0.000 C 
ATOM     11  C   UNL     1      -4.193  13.236  22.185  0.00  0.00    +0.000 C 
ATOM     12  C   UNL     1      -3.735  12.803  20.791  0.00  0.00    +0.000 C 
ATOM     13  N   UNL     1      -2.327  13.120  20.540  0.00  0.00    +0.000 N 
ATOM     14  H   UNL     1      -2.111  14.031  20.946  0.00  0.00    +0.000 HD
ENDROOT
BRANCH   4  15
ATOM     15  C   UNL     1       1.401   8.669  19.165  0.00  0.00    +0.000 A 
ATOM     16  C   UNL     1       2.131   8.461  17.991  0.00  0.00    +0.000 A 
ATOM     17  C   UNL     1       2.991   7.361  17.893  0.00  0.00    +0.000 A 
ATOM     18  C   UNL     1       3.122   6.459  18.959  0.00  0.00    +0.000 A 
ATOM     19  C   UNL     1       2.398   6.674  20.136  0.00  0.00    +0.000 A 
ATOM     20  C   UNL     1       1.535   7.771  20.234  0.00  0.00    +0.000 A 
BRANCH  18  21
ATOM     21  C   UNL     1       4.096   5.343  18.821  0.00  0.00    +0.000 C 
ATOM     22  O   UNL     1       4.141   4.487  19.703  0.00  0.00    +0.000 OA
BRANCH  21  23
ATOM     23  C   UNL     1       5.003   5.215  17.652  0.00  0.00    +0.000 A 
ATOM     24  C   UNL     1       6.207   5.931  17.668  0.00  0.00    +0.000 A 
ATOM     25  C   UNL     1       7.083   5.858  16.583  0.00  0.00    +0.000 A 
ATOM     26  C   UNL     1       6.752   5.080  15.475  0.00  0.00    +0.000 A 
ATOM     27  C   UNL     1       5.545   4.381  15.444  0.00  0.00    +0.000 A 
ATOM     28  C   UNL     1       4.664   4.453  16.527  0.00  0.00    +0.000 A 
ENDBRANCH  21  23
ENDBRANCH  18  21
ENDBRANCH   4  15
TORSDOF 3
ENDMDL
MODEL 7
REMARK VINA RESULT:      -8.4      2.060      2.554
REMARK  Name = 
REMARK  3 active torsions:
REMARK  status: ('A' for Active; 'I' for Inactive)
REMARK    1  A    between atoms: C_4  and  C_5
REMARK    2  A    between atoms: C_8  and  C_9
REMARK    3  A    between atoms: C_9  and  C_11
REMARK                            x       y       z     vdW  Elec       q    Type
REMARK                         _______ _______ _______ _____ _____    ______ ____
ROOT
ATOM      1  O   UNL     1      -0.571  12.661  18.182  0.00  0.00    +0.000 OA
ATOM      2  C   UNL     1      -0.196  11.764  18.910  0.00  0.00    +0.000 C 
ATOM      3  O   UNL     1       0.509  10.661  18.515  0.00  0.00    +0.000 OA
ATOM      4  C   UNL     1       0.744   9.934  19.627  0.00  0.00    +0.000 C 
ATOM      5  N   UNL     1       0.297  10.391  20.749  0.00  0.00    +0.000 NA
ATOM      6  C   UNL     1      -0.340  11.553  20.385  0.00  0.00    +0.000 C 
ATOM      7  C   UNL     1      -1.008  12.354  21.243  0.00  0.00    +0.000 C 
ATOM      8  C   UNL     1      -1.025  12.022  22.726  0.00  0.00    +0.000 C 
ATOM      9  C   UNL     1      -2.438  11.848  23.295  0.00  0.00    +0.000 C 
ATOM     10  C   UNL     1      -3.178  13.176  23.439  0.00  0.00    +0.000 C 
ATOM     11  C   UNL     1      -3.848  13.717  22.171  0.00  0.00    +0.000 C 
ATOM     12  C   UNL     1      -3.191  13.403  20.825  0.00  0.00    +0.000 C 
ATOM     13  N   UNL     1      -1.730  13.493  20.880  0.00  0.00    +0.000 N 
ATOM     14  H   UNL     1      -1.464  14.287  21.464  0.00  0.00    +0.000 HD
ENDROOT
BRANCH   4  15
ATOM     15  C   UNL     1       1.484   8.675  19.444  0.00  0.00    +0.000 A 
ATOM     16  C   UNL     1       1.542   7.703  20.447  0.00  0.00    +0.000 A 
ATOM     17  C   UNL     1       2.252   6.517  20.226  0.00  0.00    +0.000 A 
ATOM     18  C   UNL     1       2.914   6.297  19.009  0.00  0.00    +0.000 A 
ATOM     19  C   UNL     1       2.846   7.267  18.003  0.00  0.00    +0.000 A 
ATOM     20  C   UNL     1       2.140   8.454  18.225  0.00  0.00    +0.000 A 
BRANCH  18  21
ATOM     21  C   UNL     1       3.601   4.993  18.808  0.00  0.00    +0.000 C 
ATOM     22  O   UNL     1       3.168   4.002  19.393  0.00  0.00    +0.000 OA
BRANCH  21  23
ATOM     23  C   UNL     1       4.777   4.840  17.915  0.00  0.00    +0.000 A 
ATOM     24  C   UNL     1       6.022   5.281  18.381  0.00  0.00    +0.000 A 
ATOM     25  C   UNL     1       7.155   5.175  17.570  0.00  0.00    +0.000 A 
ATOM     26  C   UNL     1       7.042   4.641  16.288  0.00  0.00    +0.000 A 
ATOM     27  C   UNL     1       5.801   4.219  15.810  0.00  0.00    +0.000 A 
ATOM     28  C   UNL     1       4.665   4.325  16.618  0.00  0.00    +0.000 A 
ENDBRANCH  21  23
ENDBRANCH  18  21
ENDBRANCH   4  15
TORSDOF 3
ENDMDL
MODEL 8
REMARK VINA RESULT:      -8.4      2.697      3.900
REMARK  Name = 
REMARK  3 active torsions:
REMARK  status: ('A' for Active; 'I' for Inactive)
REMARK    1  A    between atoms: C_4  and  C_5
REMARK    2  A    between atoms: C_8  and  C_9
REMARK    3  A    between atoms: C_9  and  C_11
REMARK                            x       y       z     vdW  Elec       q    Type
REMARK                         _______ _______ _______ _____ _____    ______ ____
ROOT
ATOM      1  O   UNL     1      -0.750  13.875  18.766  0.00  0.00    +0.000 OA
ATOM      2  C   UNL     1      -0.464  12.840  19.332  0.00  0.00    +0.000 C 
ATOM      3  O   UNL     1       0.236  11.801  18.784  0.00  0.00    +0.000 OA
ATOM      4  C   UNL     1       0.357  10.865  19.749  0.00  0.00    +0.000 C 
ATOM      5  N   UNL     1      -0.164  11.120  20.902  0.00  0.00    +0.000 NA
ATOM      6  C   UNL     1      -0.733  12.359  20.724  0.00  0.00    +0.000 C 
ATOM      7  C   UNL     1      -1.442  13.012  21.669  0.00  0.00    +0.000 C 
ATOM      8  C   UNL     1      -1.589  12.404  23.054  0.00  0.00    +0.000 C 
ATOM      9  C   UNL     1      -3.049  12.191  23.474  0.00  0.00    +0.000 C 
ATOM     10  C   UNL     1      -3.756  13.501  23.818  0.00  0.00    +0.000 C 
ATOM     11  C   UNL     1      -4.303  14.303  22.633  0.00  0.00    +0.000 C 
ATOM     12  C   UNL     1      -3.551  14.221  21.303  0.00  0.00    +0.000 C 
ATOM     13  N   UNL     1      -2.096  14.232  21.481  0.00  0.00    +0.000 N 
ATOM     14  H   UNL     1      -1.854  14.886  22.226  0.00  0.00    +0.000 HD
ENDROOT
BRANCH   4  15
ATOM     15  C   UNL     1       1.069   9.630  19.380  0.00  0.00    +0.000 A 
ATOM     16  C   UNL     1       1.352   8.635  20.321  0.00  0.00    +0.000 A 
ATOM     17  C   UNL     1       2.026   7.475  19.923  0.00  0.00    +0.000 A 
ATOM     18  C   UNL     1       2.428   7.303  18.590  0.00  0.00    +0.000 A 
ATOM     19  C   UNL     1       2.136   8.295  17.649  0.00  0.00    +0.000 A 
ATOM     20  C   UNL     1       1.466   9.458  18.047  0.00  0.00    +0.000 A 
BRANCH  18  21
ATOM     21  C   UNL     1       3.086   6.023  18.213  0.00  0.00    +0.000 C 
ATOM     22  O   UNL     1       4.072   6.061  17.481  0.00  0.00    +0.000 OA
BRANCH  21  23
ATOM     23  C   UNL     1       2.607   4.705  18.702  0.00  0.00    +0.000 A 
ATOM     24  C   UNL     1       3.226   4.155  19.832  0.00  0.00    +0.000 A 
ATOM     25  C   UNL     1       2.823   2.910  20.319  0.00  0.00    +0.000 A 
ATOM     26  C   UNL     1       1.810   2.206  19.669  0.00  0.00    +0.000 A 
ATOM     27  C   UNL     1       1.205   2.739  18.531  0.00  0.00    +0.000 A 
ATOM     28  C   UNL     1       1.606   3.985  18.040  0.00  0.00    +0.000 A 
ENDBRANCH  21  23
ENDBRANCH  18  21
ENDBRANCH   4  15
TORSDOF 3
ENDMDL
MODEL 9
REMARK VINA RESULT:      -8.4      1.969      2.600
REMARK  Name = 
REMARK  3 active torsions:
REMARK  status: ('A' for Active; 'I' for Inactive)
REMARK    1  A    between atoms: C_4  and  C_5
REMARK    2  A    between atoms: C_8  and  C_9
REMARK    3  A    between atoms: C_9  and  C_11
REMARK                            x       y       z     vdW  Elec       q    Type
REMARK                         _______ _______ _______ _____ _____    ______ ____
ROOT
ATOM      1  O   UNL     1       0.372  12.985  18.410  0.00  0.00    +0.000 OA
ATOM      2  C   UNL     1       0.514  11.957  19.041  0.00  0.00    +0.000 C 
ATOM      3  O   UNL     1       1.124  10.822  18.585  0.00  0.00    +0.000 OA
ATOM      4  C   UNL     1       1.092   9.932  19.600  0.00  0.00    +0.000 C 
ATOM      5  N   UNL     1       0.543  10.304  20.707  0.00  0.00    +0.000 NA
ATOM      6  C   UNL     1       0.122  11.584  20.437  0.00  0.00    +0.000 C 
ATOM      7  C   UNL     1      -0.559  12.360  21.307  0.00  0.00    +0.000 C 
ATOM      8  C   UNL     1      -0.843  11.848  22.709  0.00  0.00    +0.000 C 
ATOM      9  C   UNL     1      -2.337  11.814  23.055  0.00  0.00    +0.000 C 
ATOM     10  C   UNL     1      -2.914  13.208  23.293  0.00  0.00    +0.000 C 
ATOM     11  C   UNL     1      -3.308  13.998  22.042  0.00  0.00    +0.000 C 
ATOM     12  C   UNL     1      -2.502  13.764  20.763  0.00  0.00    +0.000 C 
ATOM     13  N   UNL     1      -1.065  13.630  21.023  0.00  0.00    +0.000 N 
ATOM     14  H   UNL     1      -0.792  14.294  21.748  0.00  0.00    +0.000 HD
ENDROOT
BRANCH   4  15
ATOM     15  C   UNL     1       1.683   8.611  19.333  0.00  0.00    +0.000 A 
ATOM     16  C   UNL     1       2.276   8.304  18.105  0.00  0.00    +0.000 A 
ATOM     17  C   UNL     1       2.833   7.037  17.898  0.00  0.00    +0.000 A 
ATOM     18  C   UNL     1       2.793   6.066  18.910  0.00  0.00    +0.000 A 
ATOM     19  C   UNL     1       2.208   6.378  20.141  0.00  0.00    +0.000 A 
ATOM     20  C   UNL     1       1.648   7.643  20.347  0.00  0.00    +0.000 A 
BRANCH  18  21
ATOM     21  C   UNL     1       3.455   4.758  18.656  0.00  0.00    +0.000 C 
ATOM     22  O   UNL     1       2.896   3.731  19.038  0.00  0.00    +0.000 OA
BRANCH  21  23
ATOM     23  C   UNL     1       4.752   4.644  17.943  0.00  0.00    +0.000 A 
ATOM     24  C   UNL     1       5.910   5.065  18.609  0.00  0.00    +0.000 A 
ATOM     25  C   UNL     1       7.152   4.995  17.974  0.00  0.00    +0.000 A 
ATOM     26  C   UNL     1       7.237   4.518  16.668  0.00  0.00    +0.000 A 
ATOM     27  C   UNL     1       6.084   4.117  15.991  0.00  0.00    +0.000 A 
ATOM     28  C   UNL     1       4.839   4.187  16.623  0.00  0.00    +0.000 A 
ENDBRANCH  21  23
ENDBRANCH  18  21
ENDBRANCH   4  15
TORSDOF 3
ENDMDL
