MODEL 1
REMARK VINA RESULT:      -7.0      0.000      0.000
REMARK  Name = 
REMARK  9 active torsions:
REMARK  status: ('A' for Active; 'I' for Inactive)
REMARK    1  A    between atoms: C_1  and  N_2
REMARK    2  A    between atoms: N_2  and  C_3
REMARK    3  A    between atoms: N_2  and  C_15
REMARK    4  A    between atoms: C_3  and  C_4
REMARK    5  A    between atoms: C_4  and  O_5
REMARK    6  A    between atoms: O_5  and  C_6
REMARK    7  A    between atoms: C_6  and  C_8
REMARK    8  A    between atoms: C_9  and  C_10
REMARK    9  A    between atoms: C_15  and  C_16
REMARK                            x       y       z     vdW  Elec       q    Type
REMARK                         _______ _______ _______ _____ _____    ______ ____
ROOT
ATOM      1  C   UNL     1       4.992   6.437  17.155  0.00  0.00    +0.000 C 
ENDROOT
BRANCH   1   2
ATOM      2  C   UNL     1       3.884   7.504  17.207  0.00  0.00    +0.000 C 
BRANCH   2   4
ATOM      3  C   UNL     1       2.093   8.335  18.624  0.00  0.00    +0.000 C 
ATOM      4  N   UNL     1       2.733   7.138  18.060  0.00  0.00    +0.000 NA
BRANCH   4   5
ATOM      5  C   UNL     1       3.168   6.237  19.151  0.00  0.00    +0.000 C 
BRANCH   5   6
ATOM      6  C   UNL     1       2.255   5.031  19.303  0.00  0.00    +0.000 A 
ATOM      7  C   UNL     1       1.812   4.617  20.567  0.00  0.00    +0.000 A 
ATOM      8  C   UNL     1       1.097   3.427  20.711  0.00  0.00    +0.000 A 
ATOM      9  C   UNL     1       0.807   2.644  19.593  0.00  0.00    +0.000 A 
ATOM     10  C   UNL     1       1.210   3.065  18.328  0.00  0.00    +0.000 A 
ATOM     11  C   UNL     1       1.926   4.253  18.181  0.00  0.00    +0.000 A 
ENDBRANCH   5   6
ENDBRANCH   4   5
ENDBRANCH   2   4
ENDBRANCH   1   2
BRANCH   1  12
ATOM     12  O   UNL     1       6.237   7.023  16.738  0.00  0.00    +0.000 OA
BRANCH  12  13
ATOM     13  C   UNL     1       7.321   6.503  17.365  0.00  0.00    +0.000 C 
ATOM     14  O   UNL     1       7.703   5.344  17.315  0.00  0.00    +0.000 OA
BRANCH  13  15
ATOM     15  C   UNL     1       8.005   7.564  18.116  0.00  0.00    +0.000 C 
ATOM     16  C   UNL     1       8.011   8.806  17.621  0.00  0.00    +0.000 C 
BRANCH  16  17
ATOM     17  C   UNL     1       8.668   9.856  18.316  0.00  0.00    +0.000 A 
ATOM     18  C   UNL     1       8.842  11.183  17.937  0.00  0.00    +0.000 A 
ATOM     19  C   UNL     1       9.573  11.834  18.960  0.00  0.00    +0.000 A 
ATOM     20  C   UNL     1       9.807  10.882  19.918  0.00  0.00    +0.000 A 
ATOM     21  O   UNL     1       9.271   9.697  19.544  0.00  0.00    +0.000 OA
ENDBRANCH  16  17
ENDBRANCH  13  15
ENDBRANCH  12  13
ENDBRANCH   1  12
TORSDOF 8
ENDMDL
MODEL 2
REMARK VINA RESULT:      -7.0      1.459      2.224
REMARK  Name = 
REMARK  9 active torsions:
REMARK  status: ('A' for Active; 'I' for Inactive)
REMARK    1  A    between atoms: C_1  and  N_2
REMARK    2  A    between atoms: N_2  and  C_3
REMARK    3  A    between atoms: N_2  and  C_15
REMARK    4  A    between atoms: C_3  and  C_4
REMARK    5  A    between atoms: C_4  and  O_5
REMARK    6  A    between atoms: O_5  and  C_6
REMARK    7  A    between atoms: C_6  and  C_8
REMARK    8  A    between atoms: C_9  and  C_10
REMARK    9  A    between atoms: C_15  and  C_16
REMARK                            x       y       z     vdW  Elec       q    Type
REMARK                         _______ _______ _______ _____ _____    ______ ____
ROOT
ATOM      1  C   UNL     1       6.596   6.150  16.668  0.00  0.00    +0.000 C 
ENDROOT
BRANCH   1   2
ATOM      2  C   UNL     1       5.091   5.889  16.471  0.00  0.00    +0.000 C 
BRANCH   2   4
ATOM      3  C   UNL     1       4.533   3.591  17.031  0.00  0.00    +0.000 C 
ATOM      4  N   UNL     1       4.498   4.989  17.483  0.00  0.00    +0.000 NA
BRANCH   4   5
ATOM      5  C   UNL     1       3.103   5.391  17.774  0.00  0.00    +0.000 C 
BRANCH   5   6
ATOM      6  C   UNL     1       2.467   4.531  18.853  0.00  0.00    +0.000 A 
ATOM      7  C   UNL     1       1.465   3.602  18.537  0.00  0.00    +0.000 A 
ATOM      8  C   UNL     1       0.784   2.923  19.550  0.00  0.00    +0.000 A 
ATOM      9  C   UNL     1       1.106   3.156  20.887  0.00  0.00    +0.000 A 
ATOM     10  C   UNL     1       2.125   4.049  21.211  0.00  0.00    +0.000 A 
ATOM     11  C   UNL     1       2.805   4.730  20.201  0.00  0.00    +0.000 A 
ENDBRANCH   5   6
ENDBRANCH   4   5
ENDBRANCH   2   4
ENDBRANCH   1   2
BRANCH   1  12
ATOM     12  O   UNL     1       6.832   7.540  16.955  0.00  0.00    +0.000 OA
BRANCH  12  13
ATOM     13  C   UNL     1       7.770   7.746  17.913  0.00  0.00    +0.000 C 
ATOM     14  O   UNL     1       8.181   6.923  18.716  0.00  0.00    +0.000 OA
BRANCH  13  15
ATOM     15  C   UNL     1       8.251   9.131  17.831  0.00  0.00    +0.000 C 
ATOM     16  C   UNL     1       9.011   9.612  18.820  0.00  0.00    +0.000 C 
BRANCH  16  17
ATOM     17  C   UNL     1       9.489  10.949  18.778  0.00  0.00    +0.000 A 
ATOM     18  C   UNL     1      10.327  11.551  17.847  0.00  0.00    +0.000 A 
ATOM     19  C   UNL     1      10.523  12.896  18.244  0.00  0.00    +0.000 A 
ATOM     20  C   UNL     1       9.792  13.058  19.393  0.00  0.00    +0.000 A 
ATOM     21  O   UNL     1       9.170  11.902  19.721  0.00  0.00    +0.000 OA
ENDBRANCH  16  17
ENDBRANCH  13  15
ENDBRANCH  12  13
ENDBRANCH   1  12
TORSDOF 8
ENDMDL
MODEL 3
REMARK VINA RESULT:      -6.9      3.389      5.925
REMARK  Name = 
REMARK  9 active torsions:
REMARK  status: ('A' for Active; 'I' for Inactive)
REMARK    1  A    between atoms: C_1  and  N_2
REMARK    2  A    between atoms: N_2  and  C_3
REMARK    3  A    between atoms: N_2  and  C_15
REMARK    4  A    between atoms: C_3  and  C_4
REMARK    5  A    between atoms: C_4  and  O_5
REMARK    6  A    between atoms: O_5  and  C_6
REMARK    7  A    between atoms: C_6  and  C_8
REMARK    8  A    between atoms: C_9  and  C_10
REMARK    9  A    between atoms: C_15  and  C_16
REMARK                            x       y       z     vdW  Elec       q    Type
REMARK                         _______ _______ _______ _____ _____    ______ ____
ROOT
ATOM      1  C   UNL     1       6.565   6.645  17.207  0.00  0.00    +0.000 C 
ENDROOT
BRANCH   1   2
ATOM      2  C   UNL     1       5.034   6.751  17.071  0.00  0.00    +0.000 C 
BRANCH   2   4
ATOM      3  C   UNL     1       5.017   5.013  18.770  0.00  0.00    +0.000 C 
ATOM      4  N   UNL     1       4.285   6.151  18.196  0.00  0.00    +0.000 NA
BRANCH   4   5
ATOM      5  C   UNL     1       2.944   5.714  17.746  0.00  0.00    +0.000 C 
BRANCH   5   6
ATOM      6  C   UNL     1       2.354   4.641  18.646  0.00  0.00    +0.000 A 
ATOM      7  C   UNL     1       2.250   3.313  18.209  0.00  0.00    +0.000 A 
ATOM      8  C   UNL     1       1.576   2.365  18.981  0.00  0.00    +0.000 A 
ATOM      9  C   UNL     1       1.010   2.731  20.202  0.00  0.00    +0.000 A 
ATOM     10  C   UNL     1       1.139   4.039  20.664  0.00  0.00    +0.000 A 
ATOM     11  C   UNL     1       1.812   4.988  19.893  0.00  0.00    +0.000 A 
ENDBRANCH   5   6
ENDBRANCH   4   5
ENDBRANCH   2   4
ENDBRANCH   1   2
BRANCH   1  12
ATOM     12  O   UNL     1       7.131   6.012  16.046  0.00  0.00    +0.000 OA
BRANCH  12  13
ATOM     13  C   UNL     1       7.382   4.691  16.216  0.00  0.00    +0.000 C 
ATOM     14  O   UNL     1       8.069   4.187  17.091  0.00  0.00    +0.000 OA
BRANCH  13  15
ATOM     15  C   UNL     1       6.673   3.925  15.181  0.00  0.00    +0.000 C 
ATOM     16  C   UNL     1       6.662   4.388  13.927  0.00  0.00    +0.000 C 
BRANCH  16  17
ATOM     17  C   UNL     1       5.980   3.679  12.903  0.00  0.00    +0.000 A 
ATOM     18  C   UNL     1       4.688   3.860  12.422  0.00  0.00    +0.000 A 
ATOM     19  C   UNL     1       4.463   2.900  11.407  0.00  0.00    +0.000 A 
ATOM     20  C   UNL     1       5.625   2.179  11.308  0.00  0.00    +0.000 A 
ATOM     21  O   UNL     1       6.539   2.636  12.196  0.00  0.00    +0.000 OA
ENDBRANCH  16  17
ENDBRANCH  13  15
ENDBRANCH  12  13
ENDBRANCH   1  12
TORSDOF 8
ENDMDL
MODEL 4
REMARK VINA RESULT:      -6.9      1.030      1.196
REMARK  Name = 
REMARK  9 active torsions:
REMARK  status: ('A' for Active; 'I' for Inactive)
REMARK    1  A    between atoms: C_1  and  N_2
REMARK    2  A    between atoms: N_2  and  C_3
REMARK    3  A    between atoms: N_2  and  C_15
REMARK    4  A    between atoms: C_3  and  C_4
REMARK    5  A    between atoms: C_4  and  O_5
REMARK    6  A    between atoms: O_5  and  C_6
REMARK    7  A    between atoms: C_6  and  C_8
REMARK    8  A    between atoms: C_9  and  C_10
REMARK    9  A    between atoms: C_15  and  C_16
REMARK                            x       y       z     vdW  Elec       q    Type
REMARK                         _______ _______ _______ _____ _____    ______ ____
ROOT
ATOM      1  C   UNL     1       5.980   5.900  16.439  0.00  0.00    +0.000 C 
ENDROOT
BRANCH   1   2
ATOM      2  C   UNL     1       4.990   6.948  16.980  0.00  0.00    +0.000 C 
BRANCH   2   4
ATOM      3  C   UNL     1       2.872   7.425  18.071  0.00  0.00    +0.000 C 
ATOM      4  N   UNL     1       3.749   6.372  17.542  0.00  0.00    +0.000 NA
BRANCH   4   5
ATOM      5  C   UNL     1       4.071   5.399  18.610  0.00  0.00    +0.000 C 
BRANCH   5   6
ATOM      6  C   UNL     1       2.847   4.632  19.081  0.00  0.00    +0.000 A 
ATOM      7  C   UNL     1       2.473   4.634  20.433  0.00  0.00    +0.000 A 
ATOM      8  C   UNL     1       1.436   3.812  20.881  0.00  0.00    +0.000 A 
ATOM      9  C   UNL     1       0.757   2.990  19.982  0.00  0.00    +0.000 A 
ATOM     10  C   UNL     1       1.095   3.008  18.631  0.00  0.00    +0.000 A 
ATOM     11  C   UNL     1       2.131   3.827  18.181  0.00  0.00    +0.000 A 
ENDBRANCH   5   6
ENDBRANCH   4   5
ENDBRANCH   2   4
ENDBRANCH   1   2
BRANCH   1  12
ATOM     12  O   UNL     1       7.334   6.293  16.723  0.00  0.00    +0.000 OA
BRANCH  12  13
ATOM     13  C   UNL     1       7.684   6.137  18.024  0.00  0.00    +0.000 C 
ATOM     14  O   UNL     1       7.622   5.107  18.675  0.00  0.00    +0.000 OA
BRANCH  13  15
ATOM     15  C   UNL     1       8.186   7.415  18.547  0.00  0.00    +0.000 C 
ATOM     16  C   UNL     1       8.129   8.501  17.768  0.00  0.00    +0.000 C 
BRANCH  16  17
ATOM     17  C   UNL     1       8.611   9.752  18.239  0.00  0.00    +0.000 A 
ATOM     18  C   UNL     1       9.408  10.024  19.345  0.00  0.00    +0.000 A 
ATOM     19  C   UNL     1       9.609  11.424  19.402  0.00  0.00    +0.000 A 
ATOM     20  C   UNL     1       8.934  11.943  18.328  0.00  0.00    +0.000 A 
ATOM     21  O   UNL     1       8.335  10.954  17.626  0.00  0.00    +0.000 OA
ENDBRANCH  16  17
ENDBRANCH  13  15
ENDBRANCH  12  13
ENDBRANCH   1  12
TORSDOF 8
ENDMDL
MODEL 5
REMARK VINA RESULT:      -6.8      1.635      2.451
REMARK  Name = 
REMARK  9 active torsions:
REMARK  status: ('A' for Active; 'I' for Inactive)
REMARK    1  A    between atoms: C_1  and  N_2
REMARK    2  A    between atoms: N_2  and  C_3
REMARK    3  A    between atoms: N_2  and  C_15
REMARK    4  A    between atoms: C_3  and  C_4
REMARK    5  A    between atoms: C_4  and  O_5
REMARK    6  A    between atoms: O_5  and  C_6
REMARK    7  A    between atoms: C_6  and  C_8
REMARK    8  A    between atoms: C_9  and  C_10
REMARK    9  A    between atoms: C_15  and  C_16
REMARK                            x       y       z     vdW  Elec       q    Type
REMARK                         _______ _______ _______ _____ _____    ______ ____
ROOT
ATOM      1  C   UNL     1       7.056   5.572  17.441  0.00  0.00    +0.000 C 
ENDROOT
BRANCH   1   2
ATOM      2  C   UNL     1       5.798   5.204  18.248  0.00  0.00    +0.000 C 
BRANCH   2   4
ATOM      3  C   UNL     1       5.326   4.047  16.164  0.00  0.00    +0.000 C 
ATOM      4  N   UNL     1       4.863   4.308  17.534  0.00  0.00    +0.000 NA
BRANCH   4   5
ATOM      5  C   UNL     1       3.506   4.900  17.504  0.00  0.00    +0.000 C 
BRANCH   5   6
ATOM      6  C   UNL     1       2.540   4.176  18.427  0.00  0.00    +0.000 A 
ATOM      7  C   UNL     1       1.945   2.966  18.042  0.00  0.00    +0.000 A 
ATOM      8  C   UNL     1       0.950   2.385  18.831  0.00  0.00    +0.000 A 
ATOM      9  C   UNL     1       0.548   2.999  20.017  0.00  0.00    +0.000 A 
ATOM     10  C   UNL     1       1.159   4.182  20.428  0.00  0.00    +0.000 A 
ATOM     11  C   UNL     1       2.152   4.766  19.641  0.00  0.00    +0.000 A 
ENDBRANCH   5   6
ENDBRANCH   4   5
ENDBRANCH   2   4
ENDBRANCH   1   2
BRANCH   1  12
ATOM     12  O   UNL     1       7.881   6.486  18.184  0.00  0.00    +0.000 OA
BRANCH  12  13
ATOM     13  C   UNL     1       7.781   7.772  17.768  0.00  0.00    +0.000 C 
ATOM     14  O   UNL     1       7.075   8.191  16.864  0.00  0.00    +0.000 OA
BRANCH  13  15
ATOM     15  C   UNL     1       8.650   8.620  18.596  0.00  0.00    +0.000 C 
ATOM     16  C   UNL     1       8.750   9.921  18.307  0.00  0.00    +0.000 C 
BRANCH  16  17
ATOM     17  C   UNL     1       9.586  10.770  19.082  0.00  0.00    +0.000 A 
ATOM     18  C   UNL     1      10.761  11.415  18.714  0.00  0.00    +0.000 A 
ATOM     19  C   UNL     1      11.231  12.135  19.838  0.00  0.00    +0.000 A 
ATOM     20  C   UNL     1      10.323  11.905  20.838  0.00  0.00    +0.000 A 
ATOM     21  O   UNL     1       9.335  11.091  20.398  0.00  0.00    +0.000 OA
ENDBRANCH  16  17
ENDBRANCH  13  15
ENDBRANCH  12  13
ENDBRANCH   1  12
TORSDOF 8
ENDMDL
MODEL 6
REMARK VINA RESULT:      -6.8      3.760      5.267
REMARK  Name = 
REMARK  9 active torsions:
REMARK  status: ('A' for Active; 'I' for Inactive)
REMARK    1  A    between atoms: C_1  and  N_2
REMARK    2  A    between atoms: N_2  and  C_3
REMARK    3  A    between atoms: N_2  and  C_15
REMARK    4  A    between atoms: C_3  and  C_4
REMARK    5  A    between atoms: C_4  and  O_5
REMARK    6  A    between atoms: O_5  and  C_6
REMARK    7  A    between atoms: C_6  and  C_8
REMARK    8  A    between atoms: C_9  and  C_10
REMARK    9  A    between atoms: C_15  and  C_16
REMARK                            x       y       z     vdW  Elec       q    Type
REMARK                         _______ _______ _______ _____ _____    ______ ____
ROOT
ATOM      1  C   UNL     1       4.838   2.994  19.806  0.00  0.00    +0.000 C 
ENDROOT
BRANCH   1   2
ATOM      2  C   UNL     1       3.421   2.578  20.244  0.00  0.00    +0.000 C 
BRANCH   2   4
ATOM      3  C   UNL     1       3.296   2.078  17.869  0.00  0.00    +0.000 C 
ATOM      4  N   UNL     1       2.546   2.153  19.130  0.00  0.00    +0.000 NA
BRANCH   4   5
ATOM      5  C   UNL     1       1.407   3.087  18.986  0.00  0.00    +0.000 C 
BRANCH   5   6
ATOM      6  C   UNL     1       1.828   4.539  19.141  0.00  0.00    +0.000 A 
ATOM      7  C   UNL     1       1.692   5.201  20.369  0.00  0.00    +0.000 A 
ATOM      8  C   UNL     1       1.943   6.572  20.465  0.00  0.00    +0.000 A 
ATOM      9  C   UNL     1       2.342   7.291  19.339  0.00  0.00    +0.000 A 
ATOM     10  C   UNL     1       2.516   6.637  18.122  0.00  0.00    +0.000 A 
ATOM     11  C   UNL     1       2.265   5.268  18.023  0.00  0.00    +0.000 A 
ENDBRANCH   5   6
ENDBRANCH   4   5
ENDBRANCH   2   4
ENDBRANCH   1   2
BRANCH   1  12
ATOM     12  O   UNL     1       5.004   4.417  19.925  0.00  0.00    +0.000 OA
BRANCH  12  13
ATOM     13  C   UNL     1       6.107   4.891  19.295  0.00  0.00    +0.000 C 
ATOM     14  O   UNL     1       7.098   5.370  19.826  0.00  0.00    +0.000 OA
BRANCH  13  15
ATOM     15  C   UNL     1       5.948   4.722  17.845  0.00  0.00    +0.000 C 
ATOM     16  C   UNL     1       7.029   4.800  17.062  0.00  0.00    +0.000 C 
BRANCH  16  17
ATOM     17  C   UNL     1       6.912   4.649  15.654  0.00  0.00    +0.000 A 
ATOM     18  C   UNL     1       6.047   3.838  14.929  0.00  0.00    +0.000 A 
ATOM     19  C   UNL     1       6.323   4.028  13.554  0.00  0.00    +0.000 A 
ATOM     20  C   UNL     1       7.337   4.949  13.499  0.00  0.00    +0.000 A 
ATOM     21  O   UNL     1       7.697   5.327  14.747  0.00  0.00    +0.000 OA
ENDBRANCH  16  17
ENDBRANCH  13  15
ENDBRANCH  12  13
ENDBRANCH   1  12
TORSDOF 8
ENDMDL
MODEL 7
REMARK VINA RESULT:      -6.8      3.293      5.582
REMARK  Name = 
REMARK  9 active torsions:
REMARK  status: ('A' for Active; 'I' for Inactive)
REMARK    1  A    between atoms: C_1  and  N_2
REMARK    2  A    between atoms: N_2  and  C_3
REMARK    3  A    between atoms: N_2  and  C_15
REMARK    4  A    between atoms: C_3  and  C_4
REMARK    5  A    between atoms: C_4  and  O_5
REMARK    6  A    between atoms: O_5  and  C_6
REMARK    7  A    between atoms: C_6  and  C_8
REMARK    8  A    between atoms: C_9  and  C_10
REMARK    9  A    between atoms: C_15  and  C_16
REMARK                            x       y       z     vdW  Elec       q    Type
REMARK                         _______ _______ _______ _____ _____    ______ ____
ROOT
ATOM      1  C   UNL     1       5.746   4.316  18.485  0.00  0.00    +0.000 C 
ENDROOT
BRANCH   1   2
ATOM      2  C   UNL     1       5.095   5.631  18.952  0.00  0.00    +0.000 C 
BRANCH   2   4
ATOM      3  C   UNL     1       4.018   7.214  17.455  0.00  0.00    +0.000 C 
ATOM      4  N   UNL     1       3.851   5.977  18.230  0.00  0.00    +0.000 NA
BRANCH   4   5
ATOM      5  C   UNL     1       2.728   6.127  19.184  0.00  0.00    +0.000 C 
BRANCH   5   6
ATOM      6  C   UNL     1       2.220   4.788  19.693  0.00  0.00    +0.000 A 
ATOM      7  C   UNL     1       1.605   3.874  18.825  0.00  0.00    +0.000 A 
ATOM      8  C   UNL     1       1.012   2.713  19.326  0.00  0.00    +0.000 A 
ATOM      9  C   UNL     1       1.038   2.448  20.695  0.00  0.00    +0.000 A 
ATOM     10  C   UNL     1       1.679   3.331  21.562  0.00  0.00    +0.000 A 
ATOM     11  C   UNL     1       2.271   4.492  21.064  0.00  0.00    +0.000 A 
ENDBRANCH   5   6
ENDBRANCH   4   5
ENDBRANCH   2   4
ENDBRANCH   1   2
BRANCH   1  12
ATOM     12  O   UNL     1       7.073   4.561  17.987  0.00  0.00    +0.000 OA
BRANCH  12  13
ATOM     13  C   UNL     1       7.100   5.296  16.847  0.00  0.00    +0.000 C 
ATOM     14  O   UNL     1       7.594   6.404  16.708  0.00  0.00    +0.000 OA
BRANCH  13  15
ATOM     15  C   UNL     1       6.452   4.541  15.767  0.00  0.00    +0.000 C 
ATOM     16  C   UNL     1       6.842   4.751  14.506  0.00  0.00    +0.000 C 
BRANCH  16  17
ATOM     17  C   UNL     1       6.233   4.043  13.435  0.00  0.00    +0.000 A 
ATOM     18  C   UNL     1       6.832   3.368  12.378  0.00  0.00    +0.000 A 
ATOM     19  C   UNL     1       5.804   2.834  11.564  0.00  0.00    +0.000 A 
ATOM     20  C   UNL     1       4.626   3.201  12.161  0.00  0.00    +0.000 A 
ATOM     21  O   UNL     1       4.869   3.923  13.279  0.00  0.00    +0.000 OA
ENDBRANCH  16  17
ENDBRANCH  13  15
ENDBRANCH  12  13
ENDBRANCH   1  12
TORSDOF 8
ENDMDL
MODEL 8
REMARK VINA RESULT:      -6.6      3.657      6.126
REMARK  Name = 
REMARK  9 active torsions:
REMARK  status: ('A' for Active; 'I' for Inactive)
REMARK    1  A    between atoms: C_1  and  N_2
REMARK    2  A    between atoms: N_2  and  C_3
REMARK    3  A    between atoms: N_2  and  C_15
REMARK    4  A    between atoms: C_3  and  C_4
REMARK    5  A    between atoms: C_4  and  O_5
REMARK    6  A    between atoms: O_5  and  C_6
REMARK    7  A    between atoms: C_6  and  C_8
REMARK    8  A    between atoms: C_9  and  C_10
REMARK    9  A    between atoms: C_15  and  C_16
REMARK                            x       y       z     vdW  Elec       q    Type
REMARK                         _______ _______ _______ _____ _____    ______ ____
ROOT
ATOM      1  C   UNL     1       5.477   6.948  17.376  0.00  0.00    +0.000 C 
ENDROOT
BRANCH   1   2
ATOM      2  C   UNL     1       4.493   6.018  18.108  0.00  0.00    +0.000 C 
BRANCH   2   4
ATOM      3  C   UNL     1       6.543   5.459  19.287  0.00  0.00    +0.000 C 
ATOM      4  N   UNL     1       5.082   5.301  19.259  0.00  0.00    +0.000 NA
BRANCH   4   5
ATOM      5  C   UNL     1       4.731   3.863  19.205  0.00  0.00    +0.000 C 
BRANCH   5   6
ATOM      6  C   UNL     1       3.239   3.627  19.371  0.00  0.00    +0.000 A 
ATOM      7  C   UNL     1       2.601   3.883  20.593  0.00  0.00    +0.000 A 
ATOM      8  C   UNL     1       1.264   3.526  20.781  0.00  0.00    +0.000 A 
ATOM      9  C   UNL     1       0.549   2.921  19.748  0.00  0.00    +0.000 A 
ATOM     10  C   UNL     1       1.162   2.696  18.517  0.00  0.00    +0.000 A 
ATOM     11  C   UNL     1       2.497   3.051  18.327  0.00  0.00    +0.000 A 
ENDBRANCH   5   6
ENDBRANCH   4   5
ENDBRANCH   2   4
ENDBRANCH   1   2
BRANCH   1  12
ATOM     12  O   UNL     1       5.411   6.733  15.955  0.00  0.00    +0.000 OA
BRANCH  12  13
ATOM     13  C   UNL     1       6.313   5.829  15.499  0.00  0.00    +0.000 C 
ATOM     14  O   UNL     1       7.461   5.687  15.890  0.00  0.00    +0.000 OA
BRANCH  13  15
ATOM     15  C   UNL     1       5.689   5.005  14.455  0.00  0.00    +0.000 C 
ATOM     16  C   UNL     1       6.467   4.233  13.689  0.00  0.00    +0.000 C 
BRANCH  16  17
ATOM     17  C   UNL     1       5.899   3.428  12.665  0.00  0.00    +0.000 A 
ATOM     18  C   UNL     1       4.660   3.544  12.046  0.00  0.00    +0.000 A 
ATOM     19  C   UNL     1       4.548   2.499  11.097  0.00  0.00    +0.000 A 
ATOM     20  C   UNL     1       5.724   1.797  11.173  0.00  0.00    +0.000 A 
ATOM     21  O   UNL     1       6.538   2.343  12.106  0.00  0.00    +0.000 OA
ENDBRANCH  16  17
ENDBRANCH  13  15
ENDBRANCH  12  13
ENDBRANCH   1  12
TORSDOF 8
ENDMDL
MODEL 9
REMARK VINA RESULT:      -6.6      3.580      5.675
REMARK  Name = 
REMARK  9 active torsions:
REMARK  status: ('A' for Active; 'I' for Inactive)
REMARK    1  A    between atoms: C_1  and  N_2
REMARK    2  A    between atoms: N_2  and  C_3
REMARK    3  A    between atoms: N_2  and  C_15
REMARK    4  A    between atoms: C_3  and  C_4
REMARK    5  A    between atoms: C_4  and  O_5
REMARK    6  A    between atoms: O_5  and  C_6
REMARK    7  A    between atoms: C_6  and  C_8
REMARK    8  A    between atoms: C_9  and  C_10
REMARK    9  A    between atoms: C_15  and  C_16
REMARK                            x       y       z     vdW  Elec       q    Type
REMARK                         _______ _______ _______ _____ _____    ______ ____
ROOT
ATOM      1  C   UNL     1       5.008   5.183  19.299  0.00  0.00    +0.000 C 
ENDROOT
BRANCH   1   2
ATOM      2  C   UNL     1       3.671   4.421  19.343  0.00  0.00    +0.000 C 
BRANCH   2   4
ATOM      3  C   UNL     1       1.801   4.339  17.793  0.00  0.00    +0.000 C 
ATOM      4  N   UNL     1       2.533   5.166  18.763  0.00  0.00    +0.000 NA
BRANCH   4   5
ATOM      5  C   UNL     1       3.009   6.407  18.110  0.00  0.00    +0.000 C 
BRANCH   5   6
ATOM      6  C   UNL     1       2.318   7.647  18.653  0.00  0.00    +0.000 A 
ATOM      7  C   UNL     1       1.921   7.720  19.995  0.00  0.00    +0.000 A 
ATOM      8  C   UNL     1       1.159   8.799  20.449  0.00  0.00    +0.000 A 
ATOM      9  C   UNL     1       0.796   9.819  19.570  0.00  0.00    +0.000 A 
ATOM     10  C   UNL     1       1.217   9.775  18.243  0.00  0.00    +0.000 A 
ATOM     11  C   UNL     1       1.978   8.698  17.787  0.00  0.00    +0.000 A 
ENDBRANCH   5   6
ENDBRANCH   4   5
ENDBRANCH   2   4
ENDBRANCH   1   2
BRANCH   1  12
ATOM     12  O   UNL     1       6.067   4.318  18.854  0.00  0.00    +0.000 OA
BRANCH  12  13
ATOM     13  C   UNL     1       6.928   4.911  17.991  0.00  0.00    +0.000 C 
ATOM     14  O   UNL     1       7.799   5.718  18.273  0.00  0.00    +0.000 OA
BRANCH  13  15
ATOM     15  C   UNL     1       6.673   4.413  16.632  0.00  0.00    +0.000 C 
ATOM     16  C   UNL     1       7.224   5.052  15.595  0.00  0.00    +0.000 C 
BRANCH  16  17
ATOM     17  C   UNL     1       6.994   4.603  14.267  0.00  0.00    +0.000 A 
ATOM     18  C   UNL     1       7.579   5.035  13.083  0.00  0.00    +0.000 A 
ATOM     19  C   UNL     1       7.012   4.291  12.020  0.00  0.00    +0.000 A 
ATOM     20  C   UNL     1       6.111   3.436  12.601  0.00  0.00    +0.000 A 
ATOM     21  O   UNL     1       6.093   3.613  13.943  0.00  0.00    +0.000 OA
ENDBRANCH  16  17
ENDBRANCH  13  15
ENDBRANCH  12  13
ENDBRANCH   1  12
TORSDOF 8
ENDMDL
