MODEL 1
REMARK VINA RESULT:      -7.8      0.000      0.000
REMARK  Name = 
REMARK  7 active torsions:
REMARK  status: ('A' for Active; 'I' for Inactive)
REMARK    1  A    between atoms: C_1  and  O_2
REMARK    2  A    between atoms: O_2  and  C_3
REMARK    3  A    between atoms: C_3  and  C_5
REMARK    4  A    between atoms: C_10  and  N_11
REMARK    5  A    between atoms: C_12  and  C_14
REMARK    6  A    between atoms: C_14  and  C_15
REMARK    7  A    between atoms: C_20  and  N_21
REMARK                            x       y       z     vdW  Elec       q    Type
REMARK                         _______ _______ _______ _____ _____    ______ ____
ROOT
ATOM      1  N   UNL     1       2.631   6.668  20.123  0.00  0.00    +0.000 N 
ATOM      2  C   UNL     1       2.073   5.412  20.309  0.00  0.00    +0.000 C 
ATOM      3  O   UNL     1       0.896   5.204  20.591  0.00  0.00    +0.000 OA
ATOM      4  H   UNL     1       3.623   6.759  20.325  0.00  0.00    +0.000 HD
ENDROOT
BRANCH   1  10
ATOM      5  C   UNL     1       0.536   9.479  21.415  0.00  0.00    +0.000 A 
ATOM      6  C   UNL     1       0.404  10.248  20.250  0.00  0.00    +0.000 A 
ATOM      7  C   UNL     1       0.984   9.828  19.052  0.00  0.00    +0.000 A 
ATOM      8  C   UNL     1       1.700   8.631  19.013  0.00  0.00    +0.000 A 
ATOM      9 CL   UNL     1       2.431   8.156  17.520  0.00  0.00    +0.000 Cl
ATOM     10  C   UNL     1       1.876   7.866  20.177  0.00  0.00    +0.000 A 
ATOM     11  C   UNL     1       1.284   8.292  21.374  0.00  0.00    +0.000 A 
BRANCH   5  12
ATOM     12  C   UNL     1      -0.127   9.953  22.663  0.00  0.00    +0.000 C 
ATOM     13  O   UNL     1       0.290   9.705  23.783  0.00  0.00    +0.000 OA
BRANCH  12  15
ATOM     14  C   UNL     1      -1.304  11.945  23.041  0.00  0.00    +0.000 C 
ATOM     15  O   UNL     1      -1.225  10.688  22.367  0.00  0.00    +0.000 OA
ENDBRANCH  12  15
ENDBRANCH   5  12
ENDBRANCH   1  10
BRANCH   2  16
ATOM     16  C   UNL     1       3.072   4.269  20.194  0.00  0.00    +0.000 C 
BRANCH  16  17
ATOM     17  C   UNL     1       4.001   4.334  18.996  0.00  0.00    +0.000 A 
ATOM     18  C   UNL     1       5.342   4.726  19.154  0.00  0.00    +0.000 A 
ATOM     19  C   UNL     1       6.216   4.793  18.061  0.00  0.00    +0.000 A 
ATOM     20  C   UNL     1       5.784   4.444  16.784  0.00  0.00    +0.000 A 
ATOM     21  C   UNL     1       4.482   3.989  16.600  0.00  0.00    +0.000 A 
ATOM     22  C   UNL     1       3.614   3.923  17.701  0.00  0.00    +0.000 A 
BRANCH  22  23
ATOM     23  N   UNL     1       2.292   3.376  17.441  0.00  0.00    +0.000 N 
ATOM     24  O   UNL     1       2.174   2.145  17.450  0.00  0.00    +0.000 OA
ATOM     25  O   UNL     1       1.373   4.186  17.253  0.00  0.00    +0.000 OA
ENDBRANCH  22  23
ENDBRANCH  16  17
ENDBRANCH   2  16
TORSDOF 6
ENDMDL
MODEL 2
REMARK VINA RESULT:      -7.3      4.130      7.797
REMARK  Name = 
REMARK  7 active torsions:
REMARK  status: ('A' for Active; 'I' for Inactive)
REMARK    1  A    between atoms: C_1  and  O_2
REMARK    2  A    between atoms: O_2  and  C_3
REMARK    3  A    between atoms: C_3  and  C_5
REMARK    4  A    between atoms: C_10  and  N_11
REMARK    5  A    between atoms: C_12  and  C_14
REMARK    6  A    between atoms: C_14  and  C_15
REMARK    7  A    between atoms: C_20  and  N_21
REMARK                            x       y       z     vdW  Elec       q    Type
REMARK                         _______ _______ _______ _____ _____    ______ ____
ROOT
ATOM      1  N   UNL     1       3.837   4.465  17.213  0.00  0.00    +0.000 N 
ATOM      2  C   UNL     1       3.142   5.596  17.615  0.00  0.00    +0.000 C 
ATOM      3  O   UNL     1       3.538   6.749  17.466  0.00  0.00    +0.000 OA
ATOM      4  H   UNL     1       3.662   3.613  17.740  0.00  0.00    +0.000 HD
ENDROOT
BRANCH   1  10
ATOM      5  C   UNL     1       6.367   4.309  14.469  0.00  0.00    +0.000 A 
ATOM      6  C   UNL     1       7.527   4.653  15.178  0.00  0.00    +0.000 A 
ATOM      7  C   UNL     1       7.470   4.913  16.548  0.00  0.00    +0.000 A 
ATOM      8  C   UNL     1       6.250   4.826  17.218  0.00  0.00    +0.000 A 
ATOM      9 CL   UNL     1       6.211   5.182  18.909  0.00  0.00    +0.000 Cl
ATOM     10  C   UNL     1       5.071   4.520  16.520  0.00  0.00    +0.000 A 
ATOM     11  C   UNL     1       5.138   4.255  15.145  0.00  0.00    +0.000 A 
BRANCH   5  12
ATOM     12  C   UNL     1       6.482   4.011  13.013  0.00  0.00    +0.000 C 
ATOM     13  O   UNL     1       7.260   4.586  12.267  0.00  0.00    +0.000 OA
BRANCH  12  15
ATOM     14  C   UNL     1       4.692   3.377  11.639  0.00  0.00    +0.000 C 
ATOM     15  O   UNL     1       5.625   3.024  12.661  0.00  0.00    +0.000 OA
ENDBRANCH  12  15
ENDBRANCH   5  12
ENDBRANCH   1  10
BRANCH   2  16
ATOM     16  C   UNL     1       1.835   5.296  18.333  0.00  0.00    +0.000 C 
BRANCH  16  17
ATOM     17  C   UNL     1       1.955   4.411  19.560  0.00  0.00    +0.000 A 
ATOM     18  C   UNL     1       2.234   4.972  20.819  0.00  0.00    +0.000 A 
ATOM     19  C   UNL     1       2.349   4.173  21.965  0.00  0.00    +0.000 A 
ATOM     20  C   UNL     1       2.161   2.795  21.891  0.00  0.00    +0.000 A 
ATOM     21  C   UNL     1       1.818   2.214  20.675  0.00  0.00    +0.000 A 
ATOM     22  C   UNL     1       1.702   3.022  19.533  0.00  0.00    +0.000 A 
BRANCH  22  23
ATOM     23  N   UNL     1       1.278   2.351  18.315  0.00  0.00    +0.000 N 
ATOM     24  O   UNL     1       2.140   2.137  17.454  0.00  0.00    +0.000 OA
ATOM     25  O   UNL     1       0.086   2.019  18.239  0.00  0.00    +0.000 OA
ENDBRANCH  22  23
ENDBRANCH  16  17
ENDBRANCH   2  16
TORSDOF 6
ENDMDL
MODEL 3
REMARK VINA RESULT:      -7.2      2.483      7.421
REMARK  Name = 
REMARK  7 active torsions:
REMARK  status: ('A' for Active; 'I' for Inactive)
REMARK    1  A    between atoms: C_1  and  O_2
REMARK    2  A    between atoms: O_2  and  C_3
REMARK    3  A    between atoms: C_3  and  C_5
REMARK    4  A    between atoms: C_10  and  N_11
REMARK    5  A    between atoms: C_12  and  C_14
REMARK    6  A    between atoms: C_14  and  C_15
REMARK    7  A    between atoms: C_20  and  N_21
REMARK                            x       y       z     vdW  Elec       q    Type
REMARK                         _______ _______ _______ _____ _____    ______ ____
ROOT
ATOM      1  N   UNL     1       2.626   7.374  17.736  0.00  0.00    +0.000 N 
ATOM      2  C   UNL     1       2.153   8.223  18.726  0.00  0.00    +0.000 C 
ATOM      3  O   UNL     1       1.918   7.885  19.883  0.00  0.00    +0.000 OA
ATOM      4  H   UNL     1       2.378   7.610  16.779  0.00  0.00    +0.000 HD
ENDROOT
BRANCH   1  10
ATOM      5  C   UNL     1       2.314   3.754  18.606  0.00  0.00    +0.000 A 
ATOM      6  C   UNL     1       3.639   3.337  18.417  0.00  0.00    +0.000 A 
ATOM      7  C   UNL     1       4.622   4.248  18.026  0.00  0.00    +0.000 A 
ATOM      8  C   UNL     1       4.283   5.586  17.825  0.00  0.00    +0.000 A 
ATOM      9 CL   UNL     1       5.518   6.681  17.313  0.00  0.00    +0.000 Cl
ATOM     10  C   UNL     1       2.954   6.017  17.973  0.00  0.00    +0.000 A 
ATOM     11  C   UNL     1       1.975   5.096  18.371  0.00  0.00    +0.000 A 
BRANCH   5  12
ATOM     12  C   UNL     1       1.306   2.751  19.053  0.00  0.00    +0.000 C 
ATOM     13  O   UNL     1       0.276   2.513  18.442  0.00  0.00    +0.000 OA
BRANCH  12  15
ATOM     14  C   UNL     1       1.398   2.880  21.392  0.00  0.00    +0.000 C 
ATOM     15  O   UNL     1       1.706   2.155  20.201  0.00  0.00    +0.000 OA
ENDBRANCH  12  15
ENDBRANCH   5  12
ENDBRANCH   1  10
BRANCH   2  16
ATOM     16  C   UNL     1       1.878   9.640  18.245  0.00  0.00    +0.000 C 
BRANCH  16  17
ATOM     17  C   UNL     1       0.455  10.130  18.441  0.00  0.00    +0.000 A 
ATOM     18  C   UNL     1      -0.577   9.678  17.601  0.00  0.00    +0.000 A 
ATOM     19  C   UNL     1      -1.897  10.118  17.764  0.00  0.00    +0.000 A 
ATOM     20  C   UNL     1      -2.229  11.001  18.789  0.00  0.00    +0.000 A 
ATOM     21  C   UNL     1      -1.246  11.419  19.680  0.00  0.00    +0.000 A 
ATOM     22  C   UNL     1       0.073  10.970  19.510  0.00  0.00    +0.000 A 
BRANCH  22  23
ATOM     23  N   UNL     1       1.029  11.399  20.519  0.00  0.00    +0.000 N 
ATOM     24  O   UNL     1       1.663  12.437  20.296  0.00  0.00    +0.000 OA
ATOM     25  O   UNL     1       1.121  10.704  21.541  0.00  0.00    +0.000 OA
ENDBRANCH  22  23
ENDBRANCH  16  17
ENDBRANCH   2  16
TORSDOF 6
ENDMDL
MODEL 4
REMARK VINA RESULT:      -7.2      4.376      8.023
REMARK  Name = 
REMARK  7 active torsions:
REMARK  status: ('A' for Active; 'I' for Inactive)
REMARK    1  A    between atoms: C_1  and  O_2
REMARK    2  A    between atoms: O_2  and  C_3
REMARK    3  A    between atoms: C_3  and  C_5
REMARK    4  A    between atoms: C_10  and  N_11
REMARK    5  A    between atoms: C_12  and  C_14
REMARK    6  A    between atoms: C_14  and  C_15
REMARK    7  A    between atoms: C_20  and  N_21
REMARK                            x       y       z     vdW  Elec       q    Type
REMARK                         _______ _______ _______ _____ _____    ______ ____
ROOT
ATOM      1  N   UNL     1       4.574   5.601  16.729  0.00  0.00    +0.000 N 
ATOM      2  C   UNL     1       4.550   4.984  17.970  0.00  0.00    +0.000 C 
ATOM      3  O   UNL     1       5.266   4.042  18.297  0.00  0.00    +0.000 OA
ATOM      4  H   UNL     1       3.708   6.035  16.419  0.00  0.00    +0.000 HD
ENDROOT
BRANCH   1  10
ATOM      5  C   UNL     1       5.984   4.153  13.586  0.00  0.00    +0.000 A 
ATOM      6  C   UNL     1       7.317   4.573  13.694  0.00  0.00    +0.000 A 
ATOM      7  C   UNL     1       7.743   5.308  14.801  0.00  0.00    +0.000 A 
ATOM      8  C   UNL     1       6.835   5.625  15.811  0.00  0.00    +0.000 A 
ATOM      9 CL   UNL     1       7.389   6.561  17.154  0.00  0.00    +0.000 Cl
ATOM     10  C   UNL     1       5.487   5.246  15.705  0.00  0.00    +0.000 A 
ATOM     11  C   UNL     1       5.069   4.502  14.592  0.00  0.00    +0.000 A 
BRANCH   5  12
ATOM     12  C   UNL     1       5.583   3.344  12.400  0.00  0.00    +0.000 C 
ATOM     13  O   UNL     1       6.347   2.605  11.799  0.00  0.00    +0.000 OA
BRANCH  12  15
ATOM     14  C   UNL     1       3.848   2.995  10.862  0.00  0.00    +0.000 C 
ATOM     15  O   UNL     1       4.275   3.543  12.109  0.00  0.00    +0.000 OA
ENDBRANCH  12  15
ENDBRANCH   5  12
ENDBRANCH   1  10
BRANCH   2  16
ATOM     16  C   UNL     1       3.493   5.539  18.915  0.00  0.00    +0.000 C 
BRANCH  16  17
ATOM     17  C   UNL     1       2.711   4.501  19.699  0.00  0.00    +0.000 A 
ATOM     18  C   UNL     1       2.720   4.513  21.104  0.00  0.00    +0.000 A 
ATOM     19  C   UNL     1       2.006   3.564  21.848  0.00  0.00    +0.000 A 
ATOM     20  C   UNL     1       1.240   2.594  21.208  0.00  0.00    +0.000 A 
ATOM     21  C   UNL     1       1.154   2.591  19.820  0.00  0.00    +0.000 A 
ATOM     22  C   UNL     1       1.871   3.547  19.084  0.00  0.00    +0.000 A 
BRANCH  22  23
ATOM     23  N   UNL     1       1.679   3.520  17.643  0.00  0.00    +0.000 N 
ATOM     24  O   UNL     1       2.302   2.665  17.002  0.00  0.00    +0.000 OA
ATOM     25  O   UNL     1       0.884   4.342  17.163  0.00  0.00    +0.000 OA
ENDBRANCH  22  23
ENDBRANCH  16  17
ENDBRANCH   2  16
TORSDOF 6
ENDMDL
MODEL 5
REMARK VINA RESULT:      -7.1      3.883      7.582
REMARK  Name = 
REMARK  7 active torsions:
REMARK  status: ('A' for Active; 'I' for Inactive)
REMARK    1  A    between atoms: C_1  and  O_2
REMARK    2  A    between atoms: O_2  and  C_3
REMARK    3  A    between atoms: C_3  and  C_5
REMARK    4  A    between atoms: C_10  and  N_11
REMARK    5  A    between atoms: C_12  and  C_14
REMARK    6  A    between atoms: C_14  and  C_15
REMARK    7  A    between atoms: C_20  and  N_21
REMARK                            x       y       z     vdW  Elec       q    Type
REMARK                         _______ _______ _______ _____ _____    ______ ____
ROOT
ATOM      1  N   UNL     1       4.143   5.054  17.888  0.00  0.00    +0.000 N 
ATOM      2  C   UNL     1       3.487   6.261  18.077  0.00  0.00    +0.000 C 
ATOM      3  O   UNL     1       3.840   7.333  17.593  0.00  0.00    +0.000 OA
ATOM      4  H   UNL     1       4.052   4.366  18.630  0.00  0.00    +0.000 HD
ENDROOT
BRANCH   1  10
ATOM      5  C   UNL     1       6.267   4.460  14.871  0.00  0.00    +0.000 A 
ATOM      6  C   UNL     1       7.542   4.656  15.421  0.00  0.00    +0.000 A 
ATOM      7  C   UNL     1       7.692   4.962  16.774  0.00  0.00    +0.000 A 
ATOM      8  C   UNL     1       6.565   5.069  17.588  0.00  0.00    +0.000 A 
ATOM      9 CL   UNL     1       6.786   5.477  19.253  0.00  0.00    +0.000 Cl
ATOM     10  C   UNL     1       5.277   4.913  17.050  0.00  0.00    +0.000 A 
ATOM     11  C   UNL     1       5.136   4.601  15.691  0.00  0.00    +0.000 A 
BRANCH   5  12
ATOM     12  C   UNL     1       6.158   4.106  13.428  0.00  0.00    +0.000 C 
ATOM     13  O   UNL     1       7.101   4.141  12.653  0.00  0.00    +0.000 OA
BRANCH  12  15
ATOM     14  C   UNL     1       4.709   3.263  11.789  0.00  0.00    +0.000 C 
ATOM     15  O   UNL     1       4.891   3.738  13.123  0.00  0.00    +0.000 OA
ENDBRANCH  12  15
ENDBRANCH   5  12
ENDBRANCH   1  10
BRANCH   2  16
ATOM     16  C   UNL     1       2.287   6.172  19.009  0.00  0.00    +0.000 C 
BRANCH  16  17
ATOM     17  C   UNL     1       2.109   4.841  19.715  0.00  0.00    +0.000 A 
ATOM     18  C   UNL     1       2.188   4.760  21.116  0.00  0.00    +0.000 A 
ATOM     19  C   UNL     1       2.026   3.541  21.788  0.00  0.00    +0.000 A 
ATOM     20  C   UNL     1       1.753   2.373  21.081  0.00  0.00    +0.000 A 
ATOM     21  C   UNL     1       1.603   2.426  19.699  0.00  0.00    +0.000 A 
ATOM     22  C   UNL     1       1.764   3.652  19.036  0.00  0.00    +0.000 A 
BRANCH  22  23
ATOM     23  N   UNL     1       1.527   3.638  17.601  0.00  0.00    +0.000 N 
ATOM     24  O   UNL     1       0.580   4.310  17.174  0.00  0.00    +0.000 OA
ATOM     25  O   UNL     1       2.309   2.973  16.906  0.00  0.00    +0.000 OA
ENDBRANCH  22  23
ENDBRANCH  16  17
ENDBRANCH   2  16
TORSDOF 6
ENDMDL
MODEL 6
REMARK VINA RESULT:      -7.1      2.593      3.615
REMARK  Name = 
REMARK  7 active torsions:
REMARK  status: ('A' for Active; 'I' for Inactive)
REMARK    1  A    between atoms: C_1  and  O_2
REMARK    2  A    between atoms: O_2  and  C_3
REMARK    3  A    between atoms: C_3  and  C_5
REMARK    4  A    between atoms: C_10  and  N_11
REMARK    5  A    between atoms: C_12  and  C_14
REMARK    6  A    between atoms: C_14  and  C_15
REMARK    7  A    between atoms: C_20  and  N_21
REMARK                            x       y       z     vdW  Elec       q    Type
REMARK                         _______ _______ _______ _____ _____    ______ ____
ROOT
ATOM      1  N   UNL     1       3.175   5.513  18.455  0.00  0.00    +0.000 N 
ATOM      2  C   UNL     1       2.542   4.560  17.671  0.00  0.00    +0.000 C 
ATOM      3  O   UNL     1       1.330   4.502  17.482  0.00  0.00    +0.000 OA
ATOM      4  H   UNL     1       4.053   5.236  18.887  0.00  0.00    +0.000 HD
ENDROOT
BRANCH   1  10
ATOM      5  C   UNL     1       1.636   8.860  19.075  0.00  0.00    +0.000 A 
ATOM      6  C   UNL     1       1.105   8.658  20.357  0.00  0.00    +0.000 A 
ATOM      7  C   UNL     1       1.273   7.436  21.010  0.00  0.00    +0.000 A 
ATOM      8  C   UNL     1       1.979   6.409  20.384  0.00  0.00    +0.000 A 
ATOM      9 CL   UNL     1       2.142   4.899  21.210  0.00  0.00    +0.000 Cl
ATOM     10  C   UNL     1       2.486   6.578  19.086  0.00  0.00    +0.000 A 
ATOM     11  C   UNL     1       2.317   7.811  18.440  0.00  0.00    +0.000 A 
BRANCH   5  12
ATOM     12  C   UNL     1       1.457  10.192  18.430  0.00  0.00    +0.000 C 
ATOM     13  O   UNL     1       2.150  10.592  17.508  0.00  0.00    +0.000 OA
BRANCH  12  15
ATOM     14  C   UNL     1      -0.784  10.855  18.249  0.00  0.00    +0.000 C 
ATOM     15  O   UNL     1       0.429  10.862  19.002  0.00  0.00    +0.000 OA
ENDBRANCH  12  15
ENDBRANCH   5  12
ENDBRANCH   1  10
BRANCH   2  16
ATOM     16  C   UNL     1       3.483   3.517  17.086  0.00  0.00    +0.000 C 
BRANCH  16  17
ATOM     17  C   UNL     1       4.832   4.041  16.627  0.00  0.00    +0.000 A 
ATOM     18  C   UNL     1       5.075   4.288  15.265  0.00  0.00    +0.000 A 
ATOM     19  C   UNL     1       6.312   4.771  14.820  0.00  0.00    +0.000 A 
ATOM     20  C   UNL     1       7.333   5.048  15.726  0.00  0.00    +0.000 A 
ATOM     21  C   UNL     1       7.107   4.878  17.087  0.00  0.00    +0.000 A 
ATOM     22  C   UNL     1       5.863   4.397  17.524  0.00  0.00    +0.000 A 
BRANCH  22  23
ATOM     23  N   UNL     1       5.681   4.308  18.964  0.00  0.00    +0.000 N 
ATOM     24  O   UNL     1       5.874   5.336  19.626  0.00  0.00    +0.000 OA
ATOM     25  O   UNL     1       5.321   3.214  19.422  0.00  0.00    +0.000 OA
ENDBRANCH  22  23
ENDBRANCH  16  17
ENDBRANCH   2  16
TORSDOF 6
ENDMDL
MODEL 7
REMARK VINA RESULT:      -7.1      4.452      8.540
REMARK  Name = 
REMARK  7 active torsions:
REMARK  status: ('A' for Active; 'I' for Inactive)
REMARK    1  A    between atoms: C_1  and  O_2
REMARK    2  A    between atoms: O_2  and  C_3
REMARK    3  A    between atoms: C_3  and  C_5
REMARK    4  A    between atoms: C_10  and  N_11
REMARK    5  A    between atoms: C_12  and  C_14
REMARK    6  A    between atoms: C_14  and  C_15
REMARK    7  A    between atoms: C_20  and  N_21
REMARK                            x       y       z     vdW  Elec       q    Type
REMARK                         _______ _______ _______ _____ _____    ______ ____
ROOT
ATOM      1  N   UNL     1       5.952   3.883  16.974  0.00  0.00    +0.000 N 
ATOM      2  C   UNL     1       4.994   4.584  17.692  0.00  0.00    +0.000 C 
ATOM      3  O   UNL     1       4.399   5.576  17.280  0.00  0.00    +0.000 OA
ATOM      4  H   UNL     1       6.659   3.394  17.517  0.00  0.00    +0.000 HD
ENDROOT
BRANCH   1  10
ATOM      5  C   UNL     1       6.198   3.764  13.248  0.00  0.00    +0.000 A 
ATOM      6  C   UNL     1       7.021   4.876  13.016  0.00  0.00    +0.000 A 
ATOM      7  C   UNL     1       7.500   5.639  14.082  0.00  0.00    +0.000 A 
ATOM      8  C   UNL     1       7.161   5.290  15.389  0.00  0.00    +0.000 A 
ATOM      9 CL   UNL     1       7.748   6.274  16.683  0.00  0.00    +0.000 Cl
ATOM     10  C   UNL     1       6.308   4.203  15.641  0.00  0.00    +0.000 A 
ATOM     11  C   UNL     1       5.835   3.439  14.564  0.00  0.00    +0.000 A 
BRANCH   5  12
ATOM     12  C   UNL     1       5.735   2.962  12.080  0.00  0.00    +0.000 C 
ATOM     13  O   UNL     1       4.595   3.004  11.644  0.00  0.00    +0.000 OA
BRANCH  12  15
ATOM     14  C   UNL     1       6.350   0.972  11.005  0.00  0.00    +0.000 C 
ATOM     15  O   UNL     1       6.749   2.214  11.586  0.00  0.00    +0.000 OA
ENDBRANCH  12  15
ENDBRANCH   5  12
ENDBRANCH   1  10
BRANCH   2  16
ATOM     16  C   UNL     1       4.769   4.055  19.101  0.00  0.00    +0.000 C 
BRANCH  16  17
ATOM     17  C   UNL     1       3.317   3.945  19.531  0.00  0.00    +0.000 A 
ATOM     18  C   UNL     1       2.743   4.927  20.357  0.00  0.00    +0.000 A 
ATOM     19  C   UNL     1       1.405   4.845  20.766  0.00  0.00    +0.000 A 
ATOM     20  C   UNL     1       0.596   3.796  20.339  0.00  0.00    +0.000 A 
ATOM     21  C   UNL     1       1.112   2.841  19.468  0.00  0.00    +0.000 A 
ATOM     22  C   UNL     1       2.452   2.933  19.062  0.00  0.00    +0.000 A 
BRANCH  22  23
ATOM     23  N   UNL     1       2.898   1.937  18.101  0.00  0.00    +0.000 N 
ATOM     24  O   UNL     1       2.505   2.057  16.934  0.00  0.00    +0.000 OA
ATOM     25  O   UNL     1       3.661   1.053  18.517  0.00  0.00    +0.000 OA
ENDBRANCH  22  23
ENDBRANCH  16  17
ENDBRANCH   2  16
TORSDOF 6
ENDMDL
MODEL 8
REMARK VINA RESULT:      -7.1      3.036      3.992
REMARK  Name = 
REMARK  7 active torsions:
REMARK  status: ('A' for Active; 'I' for Inactive)
REMARK    1  A    between atoms: C_1  and  O_2
REMARK    2  A    between atoms: O_2  and  C_3
REMARK    3  A    between atoms: C_3  and  C_5
REMARK    4  A    between atoms: C_10  and  N_11
REMARK    5  A    between atoms: C_12  and  C_14
REMARK    6  A    between atoms: C_14  and  C_15
REMARK    7  A    between atoms: C_20  and  N_21
REMARK                            x       y       z     vdW  Elec       q    Type
REMARK                         _______ _______ _______ _____ _____    ______ ____
ROOT
ATOM      1  N   UNL     1       3.750   5.436  18.725  0.00  0.00    +0.000 N 
ATOM      2  C   UNL     1       3.377   4.446  17.829  0.00  0.00    +0.000 C 
ATOM      3  O   UNL     1       2.239   4.287  17.395  0.00  0.00    +0.000 OA
ATOM      4  H   UNL     1       4.542   5.229  19.329  0.00  0.00    +0.000 HD
ENDROOT
BRANCH   1  10
ATOM      5  C   UNL     1       1.805   8.615  18.989  0.00  0.00    +0.000 A 
ATOM      6  C   UNL     1       1.068   8.361  20.155  0.00  0.00    +0.000 A 
ATOM      7  C   UNL     1       1.230   7.162  20.851  0.00  0.00    +0.000 A 
ATOM      8  C   UNL     1       2.136   6.210  20.384  0.00  0.00    +0.000 A 
ATOM      9 CL   UNL     1       2.291   4.724  21.254  0.00  0.00    +0.000 Cl
ATOM     10  C   UNL     1       2.856   6.429  19.198  0.00  0.00    +0.000 A 
ATOM     11  C   UNL     1       2.691   7.638  18.509  0.00  0.00    +0.000 A 
BRANCH   5  12
ATOM     12  C   UNL     1       1.619   9.923  18.298  0.00  0.00    +0.000 C 
ATOM     13  O   UNL     1       2.301  10.287  17.353  0.00  0.00    +0.000 OA
BRANCH  12  15
ATOM     14  C   UNL     1       0.931  11.941  19.272  0.00  0.00    +0.000 C 
ATOM     15  O   UNL     1       0.599  10.615  18.857  0.00  0.00    +0.000 OA
ENDBRANCH  12  15
ENDBRANCH   5  12
ENDBRANCH   1  10
BRANCH   2  16
ATOM     16  C   UNL     1       4.506   3.497  17.453  0.00  0.00    +0.000 C 
BRANCH  16  17
ATOM     17  C   UNL     1       5.374   3.946  16.292  0.00  0.00    +0.000 A 
ATOM     18  C   UNL     1       4.957   3.734  14.966  0.00  0.00    +0.000 A 
ATOM     19  C   UNL     1       5.743   4.140  13.880  0.00  0.00    +0.000 A 
ATOM     20  C   UNL     1       6.955   4.793  14.086  0.00  0.00    +0.000 A 
ATOM     21  C   UNL     1       7.369   5.078  15.383  0.00  0.00    +0.000 A 
ATOM     22  C   UNL     1       6.574   4.670  16.465  0.00  0.00    +0.000 A 
BRANCH  22  23
ATOM     23  N   UNL     1       7.041   5.061  17.785  0.00  0.00    +0.000 N 
ATOM     24  O   UNL     1       7.900   4.349  18.318  0.00  0.00    +0.000 OA
ATOM     25  O   UNL     1       6.562   6.096  18.271  0.00  0.00    +0.000 OA
ENDBRANCH  22  23
ENDBRANCH  16  17
ENDBRANCH   2  16
TORSDOF 6
ENDMDL
MODEL 9
REMARK VINA RESULT:      -7.0      2.543      7.806
REMARK  Name = 
REMARK  7 active torsions:
REMARK  status: ('A' for Active; 'I' for Inactive)
REMARK    1  A    between atoms: C_1  and  O_2
REMARK    2  A    between atoms: O_2  and  C_3
REMARK    3  A    between atoms: C_3  and  C_5
REMARK    4  A    between atoms: C_10  and  N_11
REMARK    5  A    between atoms: C_12  and  C_14
REMARK    6  A    between atoms: C_14  and  C_15
REMARK    7  A    between atoms: C_20  and  N_21
REMARK                            x       y       z     vdW  Elec       q    Type
REMARK                         _______ _______ _______ _____ _____    ______ ____
ROOT
ATOM      1  N   UNL     1       1.961   7.943  21.070  0.00  0.00    +0.000 N 
ATOM      2  C   UNL     1       0.758   8.477  21.509  0.00  0.00    +0.000 C 
ATOM      3  O   UNL     1      -0.351   8.093  21.149  0.00  0.00    +0.000 OA
ATOM      4  H   UNL     1       2.763   8.568  21.070  0.00  0.00    +0.000 HD
ENDROOT
BRANCH   1  10
ATOM      5  C   UNL     1       2.014   4.434  19.789  0.00  0.00    +0.000 A 
ATOM      6  C   UNL     1       2.186   4.671  18.417  0.00  0.00    +0.000 A 
ATOM      7  C   UNL     1       2.303   5.974  17.932  0.00  0.00    +0.000 A 
ATOM      8  C   UNL     1       2.250   7.050  18.818  0.00  0.00    +0.000 A 
ATOM      9 CL   UNL     1       2.368   8.651  18.179  0.00  0.00    +0.000 Cl
ATOM     10  C   UNL     1       2.040   6.836  20.190  0.00  0.00    +0.000 A 
ATOM     11  C   UNL     1       1.930   5.523  20.670  0.00  0.00    +0.000 A 
BRANCH   5  12
ATOM     12  C   UNL     1       1.925   3.024  20.264  0.00  0.00    +0.000 C 
ATOM     13  O   UNL     1       1.133   2.648  21.114  0.00  0.00    +0.000 OA
BRANCH  12  15
ATOM     14  C   UNL     1       4.152   2.302  20.141  0.00  0.00    +0.000 C 
ATOM     15  O   UNL     1       2.825   2.247  19.616  0.00  0.00    +0.000 OA
ENDBRANCH  12  15
ENDBRANCH   5  12
ENDBRANCH   1  10
BRANCH   2  16
ATOM     16  C   UNL     1       0.917   9.656  22.459  0.00  0.00    +0.000 C 
BRANCH  16  17
ATOM     17  C   UNL     1      -0.144  10.735  22.341  0.00  0.00    +0.000 A 
ATOM     18  C   UNL     1      -1.255  10.740  23.202  0.00  0.00    +0.000 A 
ATOM     19  C   UNL     1      -2.246  11.726  23.110  0.00  0.00    +0.000 A 
ATOM     20  C   UNL     1      -2.141  12.751  22.173  0.00  0.00    +0.000 A 
ATOM     21  C   UNL     1      -1.023  12.816  21.348  0.00  0.00    +0.000 A 
ATOM     22  C   UNL     1      -0.034  11.825  21.450  0.00  0.00    +0.000 A 
BRANCH  22  23
ATOM     23  N   UNL     1       1.133  11.998  20.601  0.00  0.00    +0.000 N 
ATOM     24  O   UNL     1       1.121  11.439  19.497  0.00  0.00    +0.000 OA
ATOM     25  O   UNL     1       2.047  12.714  21.034  0.00  0.00    +0.000 OA
ENDBRANCH  22  23
ENDBRANCH  16  17
ENDBRANCH   2  16
TORSDOF 6
ENDMDL
