MODEL 1
REMARK VINA RESULT:      -6.8      0.000      0.000
REMARK  Name = 
REMARK  4 active torsions:
REMARK  status: ('A' for Active; 'I' for Inactive)
REMARK    1  A    between atoms: C_1  and  N_2
REMARK    2  A    between atoms: N_2  and  C_3
REMARK    3  A    between atoms: C_4  and  C_6
REMARK    4  A    between atoms: C_6  and  C_7
REMARK                            x       y       z     vdW  Elec       q    Type
REMARK                         _______ _______ _______ _____ _____    ______ ____
ROOT
ATOM      1  C   UNL     1       0.337  12.284  19.482  0.00  0.00    +0.000 C 
ATOM      2  C   UNL     1       1.190  11.013  19.703  0.00  0.00    +0.000 C 
ATOM      3  C   UNL     1       0.482   9.780  19.061  0.00  0.00    +0.000 C 
ATOM      4  C   UNL     1       0.334   8.636  20.093  0.00  0.00    +0.000 C 
ATOM      5  C   UNL     1       1.683   8.007  20.444  0.00  0.00    +0.000 C 
ATOM      6  N   UNL     1       2.356   7.596  19.223  0.00  0.00    +0.000 N 
ATOM      7  C   UNL     1       2.617   6.272  18.968  0.00  0.00    +0.000 A 
ATOM      8  N   UNL     1       2.200   5.341  19.842  0.00  0.00    +0.000 NA
ATOM      9  C   UNL     1       2.469   4.049  19.568  0.00  0.00    +0.000 A 
ATOM     10  C   UNL     1       3.152   3.639  18.455  0.00  0.00    +0.000 A 
ATOM     11  C   UNL     1       3.550   4.647  17.620  0.00  0.00    +0.000 A 
ATOM     12  N   UNL     1       3.292   5.948  17.852  0.00  0.00    +0.000 NA
ATOM     13  C   UNL     1       2.577   8.603  18.200  0.00  0.00    +0.000 C 
ATOM     14  C   UNL     1       1.243   9.256  17.824  0.00  0.00    +0.000 C 
ATOM     15  C   UNL     1      -0.866  10.352  18.690  0.00  0.00    +0.000 A 
ATOM     16  C   UNL     1      -1.947   9.673  18.137  0.00  0.00    +0.000 A 
ATOM     17  C   UNL     1      -3.140  10.364  17.912  0.00  0.00    +0.000 A 
ATOM     18  C   UNL     1      -3.246  11.719  18.248  0.00  0.00    +0.000 A 
ATOM     19  C   UNL     1      -2.152  12.403  18.781  0.00  0.00    +0.000 A 
ATOM     20  C   UNL     1      -0.960  11.715  18.978  0.00  0.00    +0.000 A 
ENDROOT
BRANCH   1  21
ATOM     21  C   UNL     1       0.962  13.260  18.477  0.00  0.00    +0.000 C 
BRANCH  21  25
ATOM     22  C   UNL     1       2.076  16.628  19.895  0.00  0.00    +0.000 C 
ATOM     23  N   UNL     1       2.095  15.250  19.437  0.00  0.00    +0.000 N 
ATOM     24  C   UNL     1       3.347  14.515  19.506  0.00  0.00    +0.000 C 
ATOM     25  C   UNL     1       0.910  14.711  18.943  0.00  0.00    +0.000 C 
ATOM     26  O   UNL     1      -0.126  15.375  18.880  0.00  0.00    +0.000 OA
ENDBRANCH  21  25
ENDBRANCH   1  21
TORSDOF 2
ENDMDL
MODEL 2
REMARK VINA RESULT:      -6.8      3.652      7.965
REMARK  Name = 
REMARK  4 active torsions:
REMARK  status: ('A' for Active; 'I' for Inactive)
REMARK    1  A    between atoms: C_1  and  N_2
REMARK    2  A    between atoms: N_2  and  C_3
REMARK    3  A    between atoms: C_4  and  C_6
REMARK    4  A    between atoms: C_6  and  C_7
REMARK                            x       y       z     vdW  Elec       q    Type
REMARK                         _______ _______ _______ _____ _____    ______ ____
ROOT
ATOM      1  C   UNL     1       0.401  10.830  18.763  0.00  0.00    +0.000 C 
ATOM      2  C   UNL     1       0.361  11.967  19.810  0.00  0.00    +0.000 C 
ATOM      3  C   UNL     1      -1.119  12.335  20.138  0.00  0.00    +0.000 C 
ATOM      4  C   UNL     1      -1.356  13.855  19.963  0.00  0.00    +0.000 C 
ATOM      5  C   UNL     1      -0.641  14.670  21.041  0.00  0.00    +0.000 C 
ATOM      6  N   UNL     1      -1.022  14.175  22.354  0.00  0.00    +0.000 N 
ATOM      7  C   UNL     1      -1.721  14.966  23.235  0.00  0.00    +0.000 A 
ATOM      8  N   UNL     1      -2.094  16.199  22.856  0.00  0.00    +0.000 NA
ATOM      9  C   UNL     1      -2.777  16.954  23.739  0.00  0.00    +0.000 A 
ATOM     10  C   UNL     1      -3.099  16.534  25.001  0.00  0.00    +0.000 A 
ATOM     11  C   UNL     1      -2.676  15.271  25.314  0.00  0.00    +0.000 A 
ATOM     12  N   UNL     1      -2.001  14.482  24.457  0.00  0.00    +0.000 NA
ATOM     13  C   UNL     1      -0.810  12.766  22.635  0.00  0.00    +0.000 C 
ATOM     14  C   UNL     1      -1.514  11.918  21.570  0.00  0.00    +0.000 C 
ATOM     15  C   UNL     1      -1.875  11.547  19.095  0.00  0.00    +0.000 A 
ATOM     16  C   UNL     1      -3.248  11.547  18.869  0.00  0.00    +0.000 A 
ATOM     17  C   UNL     1      -3.763  10.789  17.814  0.00  0.00    +0.000 A 
ATOM     18  C   UNL     1      -2.906  10.047  16.993  0.00  0.00    +0.000 A 
ATOM     19  C   UNL     1      -1.531  10.030  17.237  0.00  0.00    +0.000 A 
ATOM     20  C   UNL     1      -1.029  10.767  18.304  0.00  0.00    +0.000 A 
ENDROOT
BRANCH   1  21
ATOM     21  C   UNL     1       0.874   9.493  19.346  0.00  0.00    +0.000 C 
BRANCH  21  25
ATOM     22  C   UNL     1       3.287   6.822  18.063  0.00  0.00    +0.000 C 
ATOM     23  N   UNL     1       2.361   7.552  18.912  0.00  0.00    +0.000 N 
ATOM     24  C   UNL     1       2.025   6.993  20.211  0.00  0.00    +0.000 C 
ATOM     25  C   UNL     1       1.836   8.747  18.426  0.00  0.00    +0.000 C 
ATOM     26  O   UNL     1       2.129   9.176  17.310  0.00  0.00    +0.000 OA
ENDBRANCH  21  25
ENDBRANCH   1  21
TORSDOF 2
ENDMDL
MODEL 3
REMARK VINA RESULT:      -6.8      0.782      1.037
REMARK  Name = 
REMARK  4 active torsions:
REMARK  status: ('A' for Active; 'I' for Inactive)
REMARK    1  A    between atoms: C_1  and  N_2
REMARK    2  A    between atoms: N_2  and  C_3
REMARK    3  A    between atoms: C_4  and  C_6
REMARK    4  A    between atoms: C_6  and  C_7
REMARK                            x       y       z     vdW  Elec       q    Type
REMARK                         _______ _______ _______ _____ _____    ______ ____
ROOT
ATOM      1  C   UNL     1       0.364  12.313  19.473  0.00  0.00    +0.000 C 
ATOM      2  C   UNL     1       1.218  11.040  19.681  0.00  0.00    +0.000 C 
ATOM      3  C   UNL     1       0.501   9.811  19.043  0.00  0.00    +0.000 C 
ATOM      4  C   UNL     1       0.361   8.664  20.073  0.00  0.00    +0.000 C 
ATOM      5  C   UNL     1       1.713   8.032  20.408  0.00  0.00    +0.000 C 
ATOM      6  N   UNL     1       2.373   7.623  19.179  0.00  0.00    +0.000 N 
ATOM      7  C   UNL     1       2.629   6.299  18.917  0.00  0.00    +0.000 A 
ATOM      8  N   UNL     1       2.220   5.366  19.792  0.00  0.00    +0.000 NA
ATOM      9  C   UNL     1       2.484   4.075  19.512  0.00  0.00    +0.000 A 
ATOM     10  C   UNL     1       3.154   3.667  18.390  0.00  0.00    +0.000 A 
ATOM     11  C   UNL     1       3.545   4.678  17.554  0.00  0.00    +0.000 A 
ATOM     12  N   UNL     1       3.292   5.978  17.792  0.00  0.00    +0.000 NA
ATOM     13  C   UNL     1       2.585   8.633  18.156  0.00  0.00    +0.000 C 
ATOM     14  C   UNL     1       1.248   9.289  17.797  0.00  0.00    +0.000 C 
ATOM     15  C   UNL     1      -0.850  10.385  18.688  0.00  0.00    +0.000 A 
ATOM     16  C   UNL     1      -1.938   9.710  18.144  0.00  0.00    +0.000 A 
ATOM     17  C   UNL     1      -3.132  10.403  17.934  0.00  0.00    +0.000 A 
ATOM     18  C   UNL     1      -3.232  11.757  18.275  0.00  0.00    +0.000 A 
ATOM     19  C   UNL     1      -2.132  12.439  18.798  0.00  0.00    +0.000 A 
ATOM     20  C   UNL     1      -0.939  11.748  18.981  0.00  0.00    +0.000 A 
ENDROOT
BRANCH   1  21
ATOM     21  C   UNL     1       0.980  13.291  18.465  0.00  0.00    +0.000 C 
BRANCH  21  25
ATOM     22  C   UNL     1       1.970  16.727  19.812  0.00  0.00    +0.000 C 
ATOM     23  N   UNL     1       1.211  15.653  19.194  0.00  0.00    +0.000 N 
ATOM     24  C   UNL     1      -0.123  15.947  18.695  0.00  0.00    +0.000 C 
ATOM     25  C   UNL     1       1.800  14.394  19.126  0.00  0.00    +0.000 C 
ATOM     26  O   UNL     1       2.925  14.180  19.581  0.00  0.00    +0.000 OA
ENDBRANCH  21  25
ENDBRANCH   1  21
TORSDOF 2
ENDMDL
MODEL 4
REMARK VINA RESULT:      -6.7      0.980      1.150
REMARK  Name = 
REMARK  4 active torsions:
REMARK  status: ('A' for Active; 'I' for Inactive)
REMARK    1  A    between atoms: C_1  and  N_2
REMARK    2  A    between atoms: N_2  and  C_3
REMARK    3  A    between atoms: C_4  and  C_6
REMARK    4  A    between atoms: C_6  and  C_7
REMARK                            x       y       z     vdW  Elec       q    Type
REMARK                         _______ _______ _______ _____ _____    ______ ____
ROOT
ATOM      1  C   UNL     1      -0.372  12.477  19.554  0.00  0.00    +0.000 C 
ATOM      2  C   UNL     1       0.603  11.301  19.794  0.00  0.00    +0.000 C 
ATOM      3  C   UNL     1       0.059  10.012  19.106  0.00  0.00    +0.000 C 
ATOM      4  C   UNL     1      -0.009   8.840  20.116  0.00  0.00    +0.000 C 
ATOM      5  C   UNL     1       1.384   8.353  20.516  0.00  0.00    +0.000 C 
ATOM      6  N   UNL     1       2.148   8.038  19.321  0.00  0.00    +0.000 N 
ATOM      7  C   UNL     1       2.560   6.754  19.059  0.00  0.00    +0.000 A 
ATOM      8  N   UNL     1       2.210   5.768  19.902  0.00  0.00    +0.000 NA
ATOM      9  C   UNL     1       2.627   4.518  19.623  0.00  0.00    +0.000 A 
ATOM     10  C   UNL     1       3.396   4.203  18.535  0.00  0.00    +0.000 A 
ATOM     11  C   UNL     1       3.718   5.263  17.731  0.00  0.00    +0.000 A 
ATOM     12  N   UNL     1       3.312   6.524  17.969  0.00  0.00    +0.000 NA
ATOM     13  C   UNL     1       2.302   9.081  18.321  0.00  0.00    +0.000 C 
ATOM     14  C   UNL     1       0.922   9.594  17.897  0.00  0.00    +0.000 C 
ATOM     15  C   UNL     1      -1.326  10.442  18.685  0.00  0.00    +0.000 A 
ATOM     16  C   UNL     1      -2.304   9.662  18.076  0.00  0.00    +0.000 A 
ATOM     17  C   UNL     1      -3.554  10.225  17.809  0.00  0.00    +0.000 A 
ATOM     18  C   UNL     1      -3.819  11.555  18.158  0.00  0.00    +0.000 A 
ATOM     19  C   UNL     1      -2.828  12.343  18.747  0.00  0.00    +0.000 A 
ATOM     20  C   UNL     1      -1.579  11.783  18.987  0.00  0.00    +0.000 A 
ENDROOT
BRANCH   1  21
ATOM     21  C   UNL     1       0.185  13.533  18.590  0.00  0.00    +0.000 C 
BRANCH  21  25
ATOM     22  C   UNL     1       3.718  14.640  19.532  0.00  0.00    +0.000 C 
ATOM     23  N   UNL     1       2.270  14.532  19.495  0.00  0.00    +0.000 N 
ATOM     24  C   UNL     1       1.490  15.373  20.388  0.00  0.00    +0.000 C 
ATOM     25  C   UNL     1       1.708  13.615  18.610  0.00  0.00    +0.000 C 
ATOM     26  O   UNL     1       2.405  12.904  17.885  0.00  0.00    +0.000 OA
ENDBRANCH  21  25
ENDBRANCH   1  21
TORSDOF 2
ENDMDL
MODEL 5
REMARK VINA RESULT:      -6.4      2.416      8.009
REMARK  Name = 
REMARK  4 active torsions:
REMARK  status: ('A' for Active; 'I' for Inactive)
REMARK    1  A    between atoms: C_1  and  N_2
REMARK    2  A    between atoms: N_2  and  C_3
REMARK    3  A    between atoms: C_4  and  C_6
REMARK    4  A    between atoms: C_6  and  C_7
REMARK                            x       y       z     vdW  Elec       q    Type
REMARK                         _______ _______ _______ _____ _____    ______ ____
ROOT
ATOM      1  C   UNL     1       0.769   9.353  19.351  0.00  0.00    +0.000 C 
ATOM      2  C   UNL     1       0.738  10.776  18.747  0.00  0.00    +0.000 C 
ATOM      3  C   UNL     1       0.387  11.815  19.856  0.00  0.00    +0.000 C 
ATOM      4  C   UNL     1      -0.808  12.697  19.420  0.00  0.00    +0.000 C 
ATOM      5  C   UNL     1      -0.430  13.648  18.283  0.00  0.00    +0.000 C 
ATOM      6  N   UNL     1       0.742  14.417  18.667  0.00  0.00    +0.000 N 
ATOM      7  C   UNL     1       0.676  15.780  18.822  0.00  0.00    +0.000 A 
ATOM      8  N   UNL     1      -0.503  16.403  18.660  0.00  0.00    +0.000 NA
ATOM      9  C   UNL     1      -0.540  17.741  18.817  0.00  0.00    +0.000 A 
ATOM     10  C   UNL     1       0.560  18.496  19.122  0.00  0.00    +0.000 A 
ATOM     11  C   UNL     1       1.724  17.790  19.261  0.00  0.00    +0.000 A 
ATOM     12  N   UNL     1       1.801  16.453  19.122  0.00  0.00    +0.000 NA
ATOM     13  C   UNL     1       1.933  13.685  19.062  0.00  0.00    +0.000 C 
ATOM     14  C   UNL     1       1.589  12.720  20.201  0.00  0.00    +0.000 C 
ATOM     15  C   UNL     1       0.006  10.922  21.012  0.00  0.00    +0.000 A 
ATOM     16  C   UNL     1      -0.466  11.314  22.261  0.00  0.00    +0.000 A 
ATOM     17  C   UNL     1      -0.821  10.334  23.191  0.00  0.00    +0.000 A 
ATOM     18  C   UNL     1      -0.709   8.977  22.865  0.00  0.00    +0.000 A 
ATOM     19  C   UNL     1      -0.212   8.587  21.620  0.00  0.00    +0.000 A 
ATOM     20  C   UNL     1       0.162   9.568  20.709  0.00  0.00    +0.000 A 
ENDROOT
BRANCH   1  21
ATOM     21  C   UNL     1       2.185   8.770  19.443  0.00  0.00    +0.000 C 
BRANCH  21  25
ATOM     22  C   UNL     1       2.737   5.374  17.781  0.00  0.00    +0.000 C 
ATOM     23  N   UNL     1       2.460   6.394  18.778  0.00  0.00    +0.000 N 
ATOM     24  C   UNL     1       2.172   5.970  20.139  0.00  0.00    +0.000 C 
ATOM     25  C   UNL     1       2.472   7.724  18.370  0.00  0.00    +0.000 C 
ATOM     26  O   UNL     1       2.698   8.041  17.202  0.00  0.00    +0.000 OA
ENDBRANCH  21  25
ENDBRANCH   1  21
TORSDOF 2
ENDMDL
MODEL 6
REMARK VINA RESULT:      -6.4      1.115      1.156
REMARK  Name = 
REMARK  4 active torsions:
REMARK  status: ('A' for Active; 'I' for Inactive)
REMARK    1  A    between atoms: C_1  and  N_2
REMARK    2  A    between atoms: N_2  and  C_3
REMARK    3  A    between atoms: C_4  and  C_6
REMARK    4  A    between atoms: C_6  and  C_7
REMARK                            x       y       z     vdW  Elec       q    Type
REMARK                         _______ _______ _______ _____ _____    ______ ____
ROOT
ATOM      1  C   UNL     1       0.240  12.225  20.291  0.00  0.00    +0.000 C 
ATOM      2  C   UNL     1       1.069  10.921  20.361  0.00  0.00    +0.000 C 
ATOM      3  C   UNL     1       0.419   9.831  19.455  0.00  0.00    +0.000 C 
ATOM      4  C   UNL     1       0.178   8.528  20.256  0.00  0.00    +0.000 C 
ATOM      5  C   UNL     1       1.489   7.825  20.609  0.00  0.00    +0.000 C 
ATOM      6  N   UNL     1       2.269   7.621  19.400  0.00  0.00    +0.000 N 
ATOM      7  C   UNL     1       2.550   6.356  18.942  0.00  0.00    +0.000 A 
ATOM      8  N   UNL     1       2.055   5.295  19.600  0.00  0.00    +0.000 NA
ATOM      9  C   UNL     1       2.346   4.066  19.131  0.00  0.00    +0.000 A 
ATOM     10  C   UNL     1       3.125   3.844  18.028  0.00  0.00    +0.000 A 
ATOM     11  C   UNL     1       3.598   4.974  17.419  0.00  0.00    +0.000 A 
ATOM     12  N   UNL     1       3.322   6.219  17.850  0.00  0.00    +0.000 NA
ATOM     13  C   UNL     1       2.582   8.786  18.590  0.00  0.00    +0.000 C 
ATOM     14  C   UNL     1       1.287   9.516  18.218  0.00  0.00    +0.000 C 
ATOM     15  C   UNL     1      -0.889  10.480  19.072  0.00  0.00    +0.000 A 
ATOM     16  C   UNL     1      -1.917   9.925  18.316  0.00  0.00    +0.000 A 
ATOM     17  C   UNL     1      -3.085  10.665  18.111  0.00  0.00    +0.000 A 
ATOM     18  C   UNL     1      -3.219  11.942  18.666  0.00  0.00    +0.000 A 
ATOM     19  C   UNL     1      -2.176  12.506  19.404  0.00  0.00    +0.000 A 
ATOM     20  C   UNL     1      -1.008  11.774  19.584  0.00  0.00    +0.000 A 
ENDROOT
BRANCH   1  21
ATOM     21  C   UNL     1       0.953  13.350  19.530  0.00  0.00    +0.000 C 
BRANCH  21  25
ATOM     22  C   UNL     1       4.319  15.005  20.260  0.00  0.00    +0.000 C 
ATOM     23  N   UNL     1       3.186  14.436  19.550  0.00  0.00    +0.000 N 
ATOM     24  C   UNL     1       3.217  14.419  18.097  0.00  0.00    +0.000 C 
ATOM     25  C   UNL     1       2.122  13.948  20.305  0.00  0.00    +0.000 C 
ATOM     26  O   UNL     1       2.124  14.002  21.535  0.00  0.00    +0.000 OA
ENDBRANCH  21  25
ENDBRANCH   1  21
TORSDOF 2
ENDMDL
MODEL 7
REMARK VINA RESULT:      -6.3      4.785      8.174
REMARK  Name = 
REMARK  4 active torsions:
REMARK  status: ('A' for Active; 'I' for Inactive)
REMARK    1  A    between atoms: C_1  and  N_2
REMARK    2  A    between atoms: N_2  and  C_3
REMARK    3  A    between atoms: C_4  and  C_6
REMARK    4  A    between atoms: C_6  and  C_7
REMARK                            x       y       z     vdW  Elec       q    Type
REMARK                         _______ _______ _______ _____ _____    ______ ____
ROOT
ATOM      1  C   UNL     1      -1.181  12.106  23.171  0.00  0.00    +0.000 C 
ATOM      2  C   UNL     1      -0.845  13.489  22.566  0.00  0.00    +0.000 C 
ATOM      3  C   UNL     1      -0.325  13.318  21.106  0.00  0.00    +0.000 C 
ATOM      4  C   UNL     1       1.037  14.031  20.922  0.00  0.00    +0.000 C 
ATOM      5  C   UNL     1       0.893  15.553  20.971  0.00  0.00    +0.000 C 
ATOM      6  N   UNL     1      -0.111  15.974  20.008  0.00  0.00    +0.000 N 
ATOM      7  C   UNL     1       0.224  16.759  18.931  0.00  0.00    +0.000 A 
ATOM      8  N   UNL     1       1.509  17.103  18.744  0.00  0.00    +0.000 NA
ATOM      9  C   UNL     1       1.811  17.874  17.681  0.00  0.00    +0.000 A 
ATOM     10  C   UNL     1       0.877  18.332  16.791  0.00  0.00    +0.000 A 
ATOM     11  C   UNL     1      -0.409  17.946  17.055  0.00  0.00    +0.000 A 
ATOM     12  N   UNL     1      -0.750  17.169  18.100  0.00  0.00    +0.000 NA
ATOM     13  C   UNL     1      -1.437  15.390  20.112  0.00  0.00    +0.000 C 
ATOM     14  C   UNL     1      -1.330  13.861  20.067  0.00  0.00    +0.000 C 
ATOM     15  C   UNL     1      -0.168  11.819  21.003  0.00  0.00    +0.000 A 
ATOM     16  C   UNL     1       0.335  11.095  19.927  0.00  0.00    +0.000 A 
ATOM     17  C   UNL     1       0.456   9.708  20.038  0.00  0.00    +0.000 A 
ATOM     18  C   UNL     1       0.083   9.059  21.221  0.00  0.00    +0.000 A 
ATOM     19  C   UNL     1      -0.444   9.785  22.291  0.00  0.00    +0.000 A 
ATOM     20  C   UNL     1      -0.585  11.162  22.163  0.00  0.00    +0.000 A 
ENDROOT
BRANCH   1  21
ATOM     21  C   UNL     1      -2.687  11.877  23.347  0.00  0.00    +0.000 C 
BRANCH  21  25
ATOM     22  C   UNL     1      -5.103  14.794  22.847  0.00  0.00    +0.000 C 
ATOM     23  N   UNL     1      -4.356  13.567  22.626  0.00  0.00    +0.000 N 
ATOM     24  C   UNL     1      -4.594  12.823  21.401  0.00  0.00    +0.000 C 
ATOM     25  C   UNL     1      -3.460  13.164  23.613  0.00  0.00    +0.000 C 
ATOM     26  O   UNL     1      -3.304  13.811  24.649  0.00  0.00    +0.000 OA
ENDBRANCH  21  25
ENDBRANCH   1  21
TORSDOF 2
ENDMDL
MODEL 8
REMARK VINA RESULT:      -6.2      3.674      7.986
REMARK  Name = 
REMARK  4 active torsions:
REMARK  status: ('A' for Active; 'I' for Inactive)
REMARK    1  A    between atoms: C_1  and  N_2
REMARK    2  A    between atoms: N_2  and  C_3
REMARK    3  A    between atoms: C_4  and  C_6
REMARK    4  A    between atoms: C_6  and  C_7
REMARK                            x       y       z     vdW  Elec       q    Type
REMARK                         _______ _______ _______ _____ _____    ______ ____
ROOT
ATOM      1  C   UNL     1       0.513  10.932  20.181  0.00  0.00    +0.000 C 
ATOM      2  C   UNL     1      -1.032  10.999  20.152  0.00  0.00    +0.000 C 
ATOM      3  C   UNL     1      -1.493  12.320  19.462  0.00  0.00    +0.000 C 
ATOM      4  C   UNL     1      -2.483  13.093  20.367  0.00  0.00    +0.000 C 
ATOM      5  C   UNL     1      -3.828  12.376  20.481  0.00  0.00    +0.000 C 
ATOM      6  N   UNL     1      -4.351  12.114  19.150  0.00  0.00    +0.000 N 
ATOM      7  C   UNL     1      -5.514  12.702  18.716  0.00  0.00    +0.000 A 
ATOM      8  N   UNL     1      -6.152  13.567  19.521  0.00  0.00    +0.000 NA
ATOM      9  C   UNL     1      -7.291  14.130  19.072  0.00  0.00    +0.000 A 
ATOM     10  C   UNL     1      -7.835  13.857  17.846  0.00  0.00    +0.000 A 
ATOM     11  C   UNL     1      -7.131  12.959  17.090  0.00  0.00    +0.000 A 
ATOM     12  N   UNL     1      -5.985  12.384  17.498  0.00  0.00    +0.000 NA
ATOM     13  C   UNL     1      -3.514  11.364  18.230  0.00  0.00    +0.000 C 
ATOM     14  C   UNL     1      -2.153  12.056  18.092  0.00  0.00    +0.000 C 
ATOM     15  C   UNL     1      -0.190  13.071  19.322  0.00  0.00    +0.000 A 
ATOM     16  C   UNL     1      -0.007  14.358  18.827  0.00  0.00    +0.000 A 
ATOM     17  C   UNL     1       1.277  14.909  18.826  0.00  0.00    +0.000 A 
ATOM     18  C   UNL     1       2.361  14.177  19.325  0.00  0.00    +0.000 A 
ATOM     19  C   UNL     1       2.178  12.876  19.799  0.00  0.00    +0.000 A 
ATOM     20  C   UNL     1       0.902  12.326  19.774  0.00  0.00    +0.000 A 
ENDROOT
BRANCH   1  21
ATOM     21  C   UNL     1       1.086   9.876  19.227  0.00  0.00    +0.000 C 
BRANCH  21  25
ATOM     22  C   UNL     1       2.579   6.412  19.837  0.00  0.00    +0.000 C 
ATOM     23  N   UNL     1       2.217   7.666  19.198  0.00  0.00    +0.000 N 
ATOM     24  C   UNL     1       2.678   7.910  17.841  0.00  0.00    +0.000 C 
ATOM     25  C   UNL     1       1.456   8.574  19.930  0.00  0.00    +0.000 C 
ATOM     26  O   UNL     1       1.104   8.339  21.086  0.00  0.00    +0.000 OA
ENDBRANCH  21  25
ENDBRANCH   1  21
TORSDOF 2
ENDMDL
MODEL 9
REMARK VINA RESULT:      -6.2      2.772      7.928
REMARK  Name = 
REMARK  4 active torsions:
REMARK  status: ('A' for Active; 'I' for Inactive)
REMARK    1  A    between atoms: C_1  and  N_2
REMARK    2  A    between atoms: N_2  and  C_3
REMARK    3  A    between atoms: C_4  and  C_6
REMARK    4  A    between atoms: C_6  and  C_7
REMARK                            x       y       z     vdW  Elec       q    Type
REMARK                         _______ _______ _______ _____ _____    ______ ____
ROOT
ATOM      1  C   UNL     1       0.623  10.611  18.319  0.00  0.00    +0.000 C 
ATOM      2  C   UNL     1       0.895  11.916  19.104  0.00  0.00    +0.000 C 
ATOM      3  C   UNL     1      -0.453  12.537  19.583  0.00  0.00    +0.000 C 
ATOM      4  C   UNL     1      -0.560  14.017  19.140  0.00  0.00    +0.000 C 
ATOM      5  C   UNL     1       0.422  14.910  19.899  0.00  0.00    +0.000 C 
ATOM      6  N   UNL     1       0.240  14.723  21.329  0.00  0.00    +0.000 N 
ATOM      7  C   UNL     1      -0.198  15.750  22.130  0.00  0.00    +0.000 A 
ATOM      8  N   UNL     1      -0.505  16.932  21.571  0.00  0.00    +0.000 NA
ATOM      9  C   UNL     1      -0.932  17.923  22.378  0.00  0.00    +0.000 A 
ATOM     10  C   UNL     1      -1.057  17.791  23.735  0.00  0.00    +0.000 A 
ATOM     11  C   UNL     1      -0.716  16.560  24.227  0.00  0.00    +0.000 A 
ATOM     12  N   UNL     1      -0.296  15.542  23.454  0.00  0.00    +0.000 NA
ATOM     13  C   UNL     1       0.354  13.373  21.855  0.00  0.00    +0.000 C 
ATOM     14  C   UNL     1      -0.618  12.449  21.114  0.00  0.00    +0.000 C 
ATOM     15  C   UNL     1      -1.466  11.683  18.859  0.00  0.00    +0.000 A 
ATOM     16  C   UNL     1      -2.850  11.830  18.860  0.00  0.00    +0.000 A 
ATOM     17  C   UNL     1      -3.625  10.970  18.080  0.00  0.00    +0.000 A 
ATOM     18  C   UNL     1      -3.016   9.979  17.301  0.00  0.00    +0.000 A 
ATOM     19  C   UNL     1      -1.629   9.817  17.320  0.00  0.00    +0.000 A 
ATOM     20  C   UNL     1      -0.866  10.661  18.119  0.00  0.00    +0.000 A 
ENDROOT
BRANCH   1  21
ATOM     21  C   UNL     1       1.055   9.351  19.080  0.00  0.00    +0.000 C 
BRANCH  21  25
ATOM     22  C   UNL     1       3.411   6.475  18.198  0.00  0.00    +0.000 C 
ATOM     23  N   UNL     1       2.457   7.309  18.910  0.00  0.00    +0.000 N 
ATOM     24  C   UNL     1       1.970   6.856  20.202  0.00  0.00    +0.000 C 
ATOM     25  C   UNL     1       2.050   8.495  18.304  0.00  0.00    +0.000 C 
ATOM     26  O   UNL     1       2.470   8.833  17.196  0.00  0.00    +0.000 OA
ENDBRANCH  21  25
ENDBRANCH   1  21
TORSDOF 2
ENDMDL
