MODEL 1
REMARK VINA RESULT:      -6.6      0.000      0.000
REMARK  Name = 
REMARK  9 active torsions:
REMARK  status: ('A' for Active; 'I' for Inactive)
REMARK    1  A    between atoms: C_1  and  O_2
REMARK    2  A    between atoms: O_2  and  C_3
REMARK    3  A    between atoms: C_3  and  C_5
REMARK    4  A    between atoms: C_8  and  S_9
REMARK    5  A    between atoms: S_9  and  C_10
REMARK    6  A    between atoms: C_14  and  C_15
REMARK    7  A    between atoms: C_17  and  C_18
REMARK    8  A    between atoms: C_21  and  O_22
REMARK    9  A    between atoms: C_25  and  C_26
REMARK                            x       y       z     vdW  Elec       q    Type
REMARK                         _______ _______ _______ _____ _____    ______ ____
ROOT
ATOM      1  C   UNL     1       0.113  10.598  18.603  0.00  0.00    +0.000 A 
ATOM      2  N   UNL     1      -0.782  10.073  17.733  0.00  0.00    +0.000 NA
ATOM      3  C   UNL     1      -2.070  10.439  17.836  0.00  0.00    +0.000 A 
ATOM      4  N   UNL     1      -2.939   9.736  17.004  0.00  0.00    +0.000 N 
ATOM      5  C   UNL     1      -2.524  11.364  18.785  0.00  0.00    +0.000 A 
ATOM      6  C   UNL     1      -1.615  11.893  19.749  0.00  0.00    +0.000 A 
ATOM      7  C   UNL     1      -0.256  11.470  19.635  0.00  0.00    +0.000 A 
ATOM      8  H   UNL     1      -2.407   9.166  16.354  0.00  0.00    +0.000 HD
ATOM      9  H   UNL     1      -3.660  10.285  16.548  0.00  0.00    +0.000 HD
ENDROOT
BRANCH   6  10
ATOM     10  C   UNL     1      -2.077  12.820  20.842  0.00  0.00    +0.000 A 
ATOM     11  C   UNL     1      -2.514  12.332  22.092  0.00  0.00    +0.000 A 
ATOM     12  C   UNL     1      -2.963  13.174  23.114  0.00  0.00    +0.000 A 
ATOM     13  C   UNL     1      -2.893  14.545  22.945  0.00  0.00    +0.000 A 
ATOM     14  C   UNL     1      -2.437  15.076  21.751  0.00  0.00    +0.000 A 
ATOM     15  C   UNL     1      -2.084  14.223  20.698  0.00  0.00    +0.000 A 
BRANCH  13  16
ATOM     16  O   UNL     1      -3.261  15.404  23.933  0.00  0.00    +0.000 OA
ATOM     17  H   UNL     1      -3.730  16.154  23.532  0.00  0.00    +0.000 HD
ENDBRANCH  13  16
ENDBRANCH   6  10
BRANCH   5  18
ATOM     18  C   UNL     1      -3.914  11.751  18.709  0.00  0.00    +0.000 C 
ATOM     19  N   UNL     1      -5.036  12.035  18.666  0.00  0.00    +0.000 NA
ENDBRANCH   5  18
BRANCH   7  20
ATOM     20  C   UNL     1       0.765  11.887  20.555  0.00  0.00    +0.000 C 
ATOM     21  N   UNL     1       1.580  12.254  21.297  0.00  0.00    +0.000 NA
ENDBRANCH   7  20
BRANCH   1  22
ATOM     22  S   UNL     1       1.826  10.177  18.254  0.00  0.00    +0.000 S 
BRANCH  22  26
ATOM     23  C   UNL     1       2.237   5.831  19.702  0.00  0.00    +0.000 A 
ATOM     24  C   UNL     1       2.575   6.175  18.386  0.00  0.00    +0.000 A 
ATOM     25  C   UNL     1       2.427   7.491  17.935  0.00  0.00    +0.000 A 
ATOM     26  C   UNL     1       1.927   8.479  18.788  0.00  0.00    +0.000 A 
ATOM     27  C   UNL     1       1.595   8.139  20.106  0.00  0.00    +0.000 A 
ATOM     28  C   UNL     1       1.748   6.821  20.561  0.00  0.00    +0.000 A 
BRANCH  23  29
ATOM     29  C   UNL     1       2.429   4.417  20.131  0.00  0.00    +0.000 C 
ATOM     30  O   UNL     1       3.466   3.796  19.958  0.00  0.00    +0.000 OA
BRANCH  29  32
ATOM     31  C   UNL     1       1.524   2.835  21.596  0.00  0.00    +0.000 C 
ATOM     32  O   UNL     1       1.304   3.940  20.717  0.00  0.00    +0.000 OA
ENDBRANCH  29  32
ENDBRANCH  23  29
ENDBRANCH  22  26
ENDBRANCH   1  22
TORSDOF 8
ENDMDL
MODEL 2
REMARK VINA RESULT:      -6.5      0.523      1.194
REMARK  Name = 
REMARK  9 active torsions:
REMARK  status: ('A' for Active; 'I' for Inactive)
REMARK    1  A    between atoms: C_1  and  O_2
REMARK    2  A    between atoms: O_2  and  C_3
REMARK    3  A    between atoms: C_3  and  C_5
REMARK    4  A    between atoms: C_8  and  S_9
REMARK    5  A    between atoms: S_9  and  C_10
REMARK    6  A    between atoms: C_14  and  C_15
REMARK    7  A    between atoms: C_17  and  C_18
REMARK    8  A    between atoms: C_21  and  O_22
REMARK    9  A    between atoms: C_25  and  C_26
REMARK                            x       y       z     vdW  Elec       q    Type
REMARK                         _______ _______ _______ _____ _____    ______ ____
ROOT
ATOM      1  C   UNL     1       0.061  10.579  18.560  0.00  0.00    +0.000 A 
ATOM      2  N   UNL     1      -0.840  10.052  17.697  0.00  0.00    +0.000 NA
ATOM      3  C   UNL     1      -2.127  10.421  17.805  0.00  0.00    +0.000 A 
ATOM      4  N   UNL     1      -3.002   9.716  16.982  0.00  0.00    +0.000 N 
ATOM      5  C   UNL     1      -2.574  11.351  18.754  0.00  0.00    +0.000 A 
ATOM      6  C   UNL     1      -1.659  11.881  19.710  0.00  0.00    +0.000 A 
ATOM      7  C   UNL     1      -0.301  11.455  19.591  0.00  0.00    +0.000 A 
ATOM      8  H   UNL     1      -2.475   9.143  16.331  0.00  0.00    +0.000 HD
ATOM      9  H   UNL     1      -3.724  10.265  16.528  0.00  0.00    +0.000 HD
ENDROOT
BRANCH   6  10
ATOM     10  C   UNL     1      -2.112  12.814  20.803  0.00  0.00    +0.000 A 
ATOM     11  C   UNL     1      -2.106  14.214  20.631  0.00  0.00    +0.000 A 
ATOM     12  C   UNL     1      -2.506  15.098  21.638  0.00  0.00    +0.000 A 
ATOM     13  C   UNL     1      -3.021  14.594  22.819  0.00  0.00    +0.000 A 
ATOM     14  C   UNL     1      -3.083  13.227  23.024  0.00  0.00    +0.000 A 
ATOM     15  C   UNL     1      -2.587  12.353  22.049  0.00  0.00    +0.000 A 
BRANCH  13  16
ATOM     16  O   UNL     1      -3.478  15.415  23.803  0.00  0.00    +0.000 OA
ATOM     17  H   UNL     1      -4.224  14.978  24.247  0.00  0.00    +0.000 HD
ENDBRANCH  13  16
ENDBRANCH   6  10
BRANCH   5  18
ATOM     18  C   UNL     1      -3.964  11.740  18.684  0.00  0.00    +0.000 C 
ATOM     19  N   UNL     1      -5.084  12.023  18.615  0.00  0.00    +0.000 NA
ENDBRANCH   5  18
BRANCH   7  20
ATOM     20  C   UNL     1       0.726  11.873  20.503  0.00  0.00    +0.000 C 
ATOM     21  N   UNL     1       1.566  12.182  21.243  0.00  0.00    +0.000 NA
ENDBRANCH   7  20
BRANCH   1  22
ATOM     22  S   UNL     1       1.770  10.153  18.202  0.00  0.00    +0.000 S 
BRANCH  22  26
ATOM     23  C   UNL     1       2.247   5.904  19.898  0.00  0.00    +0.000 A 
ATOM     24  C   UNL     1       2.613   6.184  18.574  0.00  0.00    +0.000 A 
ATOM     25  C   UNL     1       2.445   7.469  18.048  0.00  0.00    +0.000 A 
ATOM     26  C   UNL     1       1.898   8.489  18.831  0.00  0.00    +0.000 A 
ATOM     27  C   UNL     1       1.538   8.212  20.157  0.00  0.00    +0.000 A 
ATOM     28  C   UNL     1       1.711   6.926  20.688  0.00  0.00    +0.000 A 
BRANCH  23  29
ATOM     29  C   UNL     1       2.461   4.520  20.409  0.00  0.00    +0.000 C 
ATOM     30  O   UNL     1       2.274   4.196  21.570  0.00  0.00    +0.000 OA
BRANCH  29  32
ATOM     31  C   UNL     1       4.008   2.888  19.769  0.00  0.00    +0.000 C 
ATOM     32  O   UNL     1       2.892   3.707  19.414  0.00  0.00    +0.000 OA
ENDBRANCH  29  32
ENDBRANCH  23  29
ENDBRANCH  22  26
ENDBRANCH   1  22
TORSDOF 8
ENDMDL
MODEL 3
REMARK VINA RESULT:      -6.5      0.579      1.117
REMARK  Name = 
REMARK  9 active torsions:
REMARK  status: ('A' for Active; 'I' for Inactive)
REMARK    1  A    between atoms: C_1  and  O_2
REMARK    2  A    between atoms: O_2  and  C_3
REMARK    3  A    between atoms: C_3  and  C_5
REMARK    4  A    between atoms: C_8  and  S_9
REMARK    5  A    between atoms: S_9  and  C_10
REMARK    6  A    between atoms: C_14  and  C_15
REMARK    7  A    between atoms: C_17  and  C_18
REMARK    8  A    between atoms: C_21  and  O_22
REMARK    9  A    between atoms: C_25  and  C_26
REMARK                            x       y       z     vdW  Elec       q    Type
REMARK                         _______ _______ _______ _____ _____    ______ ____
ROOT
ATOM      1  C   UNL     1       0.126  10.562  18.539  0.00  0.00    +0.000 A 
ATOM      2  N   UNL     1      -0.778  10.017  17.691  0.00  0.00    +0.000 NA
ATOM      3  C   UNL     1      -2.068  10.370  17.812  0.00  0.00    +0.000 A 
ATOM      4  N   UNL     1      -2.944   9.647  17.004  0.00  0.00    +0.000 N 
ATOM      5  C   UNL     1      -2.516  11.299  18.760  0.00  0.00    +0.000 A 
ATOM      6  C   UNL     1      -1.597  11.849  19.702  0.00  0.00    +0.000 A 
ATOM      7  C   UNL     1      -0.235  11.440  19.568  0.00  0.00    +0.000 A 
ATOM      8  H   UNL     1      -2.417   9.077  16.351  0.00  0.00    +0.000 HD
ATOM      9  H   UNL     1      -3.679  10.183  16.556  0.00  0.00    +0.000 HD
ENDROOT
BRANCH   6  10
ATOM     10  C   UNL     1      -2.050  12.782  20.794  0.00  0.00    +0.000 A 
ATOM     11  C   UNL     1      -2.452  12.302  22.059  0.00  0.00    +0.000 A 
ATOM     12  C   UNL     1      -2.893  13.150  23.080  0.00  0.00    +0.000 A 
ATOM     13  C   UNL     1      -2.848  14.520  22.893  0.00  0.00    +0.000 A 
ATOM     14  C   UNL     1      -2.427  15.043  21.684  0.00  0.00    +0.000 A 
ATOM     15  C   UNL     1      -2.082  14.183  20.633  0.00  0.00    +0.000 A 
BRANCH  13  16
ATOM     16  O   UNL     1      -3.209  15.385  23.879  0.00  0.00    +0.000 OA
ATOM     17  H   UNL     1      -3.795  16.059  23.498  0.00  0.00    +0.000 HD
ENDBRANCH  13  16
ENDBRANCH   6  10
BRANCH   5  18
ATOM     18  C   UNL     1      -3.912  11.668  18.705  0.00  0.00    +0.000 C 
ATOM     19  N   UNL     1      -5.024  11.985  18.638  0.00  0.00    +0.000 NA
ENDBRANCH   5  18
BRANCH   7  20
ATOM     20  C   UNL     1       0.797  11.879  20.465  0.00  0.00    +0.000 C 
ATOM     21  N   UNL     1       1.613  12.257  21.200  0.00  0.00    +0.000 NA
ENDBRANCH   7  20
BRANCH   1  22
ATOM     22  S   UNL     1       1.837  10.157  18.163  0.00  0.00    +0.000 S 
BRANCH  22  26
ATOM     23  C   UNL     1       2.119   5.869  19.801  0.00  0.00    +0.000 A 
ATOM     24  C   UNL     1       1.649   6.909  20.614  0.00  0.00    +0.000 A 
ATOM     25  C   UNL     1       1.587   8.219  20.127  0.00  0.00    +0.000 A 
ATOM     26  C   UNL     1       2.003   8.511  18.825  0.00  0.00    +0.000 A 
ATOM     27  C   UNL     1       2.467   7.471  18.009  0.00  0.00    +0.000 A 
ATOM     28  C   UNL     1       2.526   6.156  18.494  0.00  0.00    +0.000 A 
BRANCH  23  29
ATOM     29  C   UNL     1       2.151   4.491  20.369  0.00  0.00    +0.000 C 
ATOM     30  O   UNL     1       2.204   4.258  21.566  0.00  0.00    +0.000 OA
BRANCH  29  32
ATOM     31  C   UNL     1       0.911   2.810  19.319  0.00  0.00    +0.000 C 
ATOM     32  O   UNL     1       2.121   3.567  19.378  0.00  0.00    +0.000 OA
ENDBRANCH  29  32
ENDBRANCH  23  29
ENDBRANCH  22  26
ENDBRANCH   1  22
TORSDOF 8
ENDMDL
MODEL 4
REMARK VINA RESULT:      -6.5      1.185      1.385
REMARK  Name = 
REMARK  9 active torsions:
REMARK  status: ('A' for Active; 'I' for Inactive)
REMARK    1  A    between atoms: C_1  and  O_2
REMARK    2  A    between atoms: O_2  and  C_3
REMARK    3  A    between atoms: C_3  and  C_5
REMARK    4  A    between atoms: C_8  and  S_9
REMARK    5  A    between atoms: S_9  and  C_10
REMARK    6  A    between atoms: C_14  and  C_15
REMARK    7  A    between atoms: C_17  and  C_18
REMARK    8  A    between atoms: C_21  and  O_22
REMARK    9  A    between atoms: C_25  and  C_26
REMARK                            x       y       z     vdW  Elec       q    Type
REMARK                         _______ _______ _______ _____ _____    ______ ____
ROOT
ATOM      1  C   UNL     1      -0.712  11.632  18.997  0.00  0.00    +0.000 A 
ATOM      2  N   UNL     1      -1.514  11.049  18.075  0.00  0.00    +0.000 NA
ATOM      3  C   UNL     1      -2.844  11.187  18.200  0.00  0.00    +0.000 A 
ATOM      4  N   UNL     1      -3.592  10.430  17.301  0.00  0.00    +0.000 N 
ATOM      5  C   UNL     1      -3.438  11.933  19.227  0.00  0.00    +0.000 A 
ATOM      6  C   UNL     1      -2.621  12.512  20.244  0.00  0.00    +0.000 A 
ATOM      7  C   UNL     1      -1.212  12.331  20.102  0.00  0.00    +0.000 A 
ATOM      8  H   UNL     1      -2.977  10.018  16.605  0.00  0.00    +0.000 HD
ATOM      9  H   UNL     1      -4.396  10.892  16.892  0.00  0.00    +0.000 HD
ENDROOT
BRANCH   6  10
ATOM     10  C   UNL     1      -3.222  13.246  21.414  0.00  0.00    +0.000 A 
ATOM     11  C   UNL     1      -3.556  12.580  22.612  0.00  0.00    +0.000 A 
ATOM     12  C   UNL     1      -4.131  13.239  23.705  0.00  0.00    +0.000 A 
ATOM     13  C   UNL     1      -4.295  14.611  23.660  0.00  0.00    +0.000 A 
ATOM     14  C   UNL     1      -3.948  15.317  22.522  0.00  0.00    +0.000 A 
ATOM     15  C   UNL     1      -3.467  14.635  21.398  0.00  0.00    +0.000 A 
BRANCH  13  16
ATOM     16  O   UNL     1      -4.793  15.303  24.721  0.00  0.00    +0.000 OA
ATOM     17  H   UNL     1      -4.998  14.673  25.431  0.00  0.00    +0.000 HD
ENDBRANCH  13  16
ENDBRANCH   6  10
BRANCH   5  18
ATOM     18  C   UNL     1      -4.873  12.090  19.176  0.00  0.00    +0.000 C 
ATOM     19  N   UNL     1      -6.022  12.209  19.104  0.00  0.00    +0.000 NA
ENDBRANCH   5  18
BRANCH   7  20
ATOM     20  C   UNL     1      -0.267  12.824  21.064  0.00  0.00    +0.000 C 
ATOM     21  N   UNL     1       0.488  13.252  21.836  0.00  0.00    +0.000 NA
ENDBRANCH   7  20
BRANCH   1  22
ATOM     22  S   UNL     1       1.044  11.533  18.624  0.00  0.00    +0.000 S 
BRANCH  22  26
ATOM     23  C   UNL     1       2.161   7.177  19.590  0.00  0.00    +0.000 A 
ATOM     24  C   UNL     1       2.416   7.709  18.319  0.00  0.00    +0.000 A 
ATOM     25  C   UNL     1       2.053   9.025  18.014  0.00  0.00    +0.000 A 
ATOM     26  C   UNL     1       1.422   9.825  18.970  0.00  0.00    +0.000 A 
ATOM     27  C   UNL     1       1.172   9.297  20.244  0.00  0.00    +0.000 A 
ATOM     28  C   UNL     1       1.539   7.980  20.552  0.00  0.00    +0.000 A 
BRANCH  23  29
ATOM     29  C   UNL     1       2.581   5.773  19.863  0.00  0.00    +0.000 C 
ATOM     30  O   UNL     1       3.699   5.347  19.624  0.00  0.00    +0.000 OA
BRANCH  29  32
ATOM     31  C   UNL     1       1.961   4.007  21.263  0.00  0.00    +0.000 C 
ATOM     32  O   UNL     1       1.555   5.063  20.392  0.00  0.00    +0.000 OA
ENDBRANCH  29  32
ENDBRANCH  23  29
ENDBRANCH  22  26
ENDBRANCH   1  22
TORSDOF 8
ENDMDL
MODEL 5
REMARK VINA RESULT:      -6.4      1.328      1.834
REMARK  Name = 
REMARK  9 active torsions:
REMARK  status: ('A' for Active; 'I' for Inactive)
REMARK    1  A    between atoms: C_1  and  O_2
REMARK    2  A    between atoms: O_2  and  C_3
REMARK    3  A    between atoms: C_3  and  C_5
REMARK    4  A    between atoms: C_8  and  S_9
REMARK    5  A    between atoms: S_9  and  C_10
REMARK    6  A    between atoms: C_14  and  C_15
REMARK    7  A    between atoms: C_17  and  C_18
REMARK    8  A    between atoms: C_21  and  O_22
REMARK    9  A    between atoms: C_25  and  C_26
REMARK                            x       y       z     vdW  Elec       q    Type
REMARK                         _______ _______ _______ _____ _____    ______ ____
ROOT
ATOM      1  C   UNL     1      -0.664  11.574  18.928  0.00  0.00    +0.000 A 
ATOM      2  N   UNL     1      -1.469  11.019  17.991  0.00  0.00    +0.000 NA
ATOM      3  C   UNL     1      -2.798  11.174  18.111  0.00  0.00    +0.000 A 
ATOM      4  N   UNL     1      -3.551  10.443  17.195  0.00  0.00    +0.000 N 
ATOM      5  C   UNL     1      -3.386  11.911  19.148  0.00  0.00    +0.000 A 
ATOM      6  C   UNL     1      -2.568  12.461  20.178  0.00  0.00    +0.000 A 
ATOM      7  C   UNL     1      -1.160  12.262  20.042  0.00  0.00    +0.000 A 
ATOM      8  H   UNL     1      -2.938  10.035  16.495  0.00  0.00    +0.000 HD
ATOM      9  H   UNL     1      -4.346  10.925  16.789  0.00  0.00    +0.000 HD
ENDROOT
BRANCH   6  10
ATOM     10  C   UNL     1      -3.164  13.183  21.358  0.00  0.00    +0.000 A 
ATOM     11  C   UNL     1      -3.461  14.562  21.310  0.00  0.00    +0.000 A 
ATOM     12  C   UNL     1      -3.998  15.255  22.399  0.00  0.00    +0.000 A 
ATOM     13  C   UNL     1      -4.347  14.558  23.542  0.00  0.00    +0.000 A 
ATOM     14  C   UNL     1      -4.111  13.198  23.627  0.00  0.00    +0.000 A 
ATOM     15  C   UNL     1      -3.481  12.532  22.568  0.00  0.00    +0.000 A 
BRANCH  13  16
ATOM     16  O   UNL     1      -4.928  15.179  24.604  0.00  0.00    +0.000 OA
ATOM     17  H   UNL     1      -4.300  15.176  25.345  0.00  0.00    +0.000 HD
ENDBRANCH  13  16
ENDBRANCH   6  10
BRANCH   5  18
ATOM     18  C   UNL     1      -4.819  12.090  19.091  0.00  0.00    +0.000 C 
ATOM     19  N   UNL     1      -5.971  12.208  19.064  0.00  0.00    +0.000 NA
ENDBRANCH   5  18
BRANCH   7  20
ATOM     20  C   UNL     1      -0.214  12.724  21.018  0.00  0.00    +0.000 C 
ATOM     21  N   UNL     1       0.536  13.081  21.829  0.00  0.00    +0.000 NA
ENDBRANCH   7  20
BRANCH   1  22
ATOM     22  S   UNL     1       1.093  11.456  18.562  0.00  0.00    +0.000 S 
BRANCH  22  26
ATOM     23  C   UNL     1       2.163   7.098  19.570  0.00  0.00    +0.000 A 
ATOM     24  C   UNL     1       2.441   7.620  18.299  0.00  0.00    +0.000 A 
ATOM     25  C   UNL     1       2.093   8.938  17.982  0.00  0.00    +0.000 A 
ATOM     26  C   UNL     1       1.453   9.748  18.924  0.00  0.00    +0.000 A 
ATOM     27  C   UNL     1       1.181   9.228  20.197  0.00  0.00    +0.000 A 
ATOM     28  C   UNL     1       1.533   7.910  20.518  0.00  0.00    +0.000 A 
BRANCH  23  29
ATOM     29  C   UNL     1       2.569   5.692  19.856  0.00  0.00    +0.000 C 
ATOM     30  O   UNL     1       2.294   5.111  20.893  0.00  0.00    +0.000 OA
BRANCH  29  32
ATOM     31  C   UNL     1       4.440   4.447  19.211  0.00  0.00    +0.000 C 
ATOM     32  O   UNL     1       3.278   5.181  18.820  0.00  0.00    +0.000 OA
ENDBRANCH  29  32
ENDBRANCH  23  29
ENDBRANCH  22  26
ENDBRANCH   1  22
TORSDOF 8
ENDMDL
MODEL 6
REMARK VINA RESULT:      -6.3      0.249      1.285
REMARK  Name = 
REMARK  9 active torsions:
REMARK  status: ('A' for Active; 'I' for Inactive)
REMARK    1  A    between atoms: C_1  and  O_2
REMARK    2  A    between atoms: O_2  and  C_3
REMARK    3  A    between atoms: C_3  and  C_5
REMARK    4  A    between atoms: C_8  and  S_9
REMARK    5  A    between atoms: S_9  and  C_10
REMARK    6  A    between atoms: C_14  and  C_15
REMARK    7  A    between atoms: C_17  and  C_18
REMARK    8  A    between atoms: C_21  and  O_22
REMARK    9  A    between atoms: C_25  and  C_26
REMARK                            x       y       z     vdW  Elec       q    Type
REMARK                         _______ _______ _______ _____ _____    ______ ____
ROOT
ATOM      1  C   UNL     1       0.109  10.735  18.590  0.00  0.00    +0.000 A 
ATOM      2  N   UNL     1      -0.786  10.162  17.749  0.00  0.00    +0.000 NA
ATOM      3  C   UNL     1      -2.089  10.451  17.903  0.00  0.00    +0.000 A 
ATOM      4  N   UNL     1      -2.946   9.701  17.099  0.00  0.00    +0.000 N 
ATOM      5  C   UNL     1      -2.561  11.341  18.876  0.00  0.00    +0.000 A 
ATOM      6  C   UNL     1      -1.649  11.917  19.810  0.00  0.00    +0.000 A 
ATOM      7  C   UNL     1      -0.272  11.577  19.642  0.00  0.00    +0.000 A 
ATOM      8  H   UNL     1      -2.405   9.168  16.425  0.00  0.00    +0.000 HD
ATOM      9  H   UNL     1      -3.714  10.209  16.675  0.00  0.00    +0.000 HD
ENDROOT
BRANCH   6  10
ATOM     10  C   UNL     1      -2.123  12.809  20.928  0.00  0.00    +0.000 A 
ATOM     11  C   UNL     1      -2.242  14.205  20.761  0.00  0.00    +0.000 A 
ATOM     12  C   UNL     1      -2.664  15.053  21.791  0.00  0.00    +0.000 A 
ATOM     13  C   UNL     1      -3.074  14.507  22.994  0.00  0.00    +0.000 A 
ATOM     14  C   UNL     1      -3.012  13.140  23.196  0.00  0.00    +0.000 A 
ATOM     15  C   UNL     1      -2.495  12.310  22.194  0.00  0.00    +0.000 A 
BRANCH  13  16
ATOM     16  O   UNL     1      -3.549  15.287  24.003  0.00  0.00    +0.000 OA
ATOM     17  H   UNL     1      -4.383  15.692  23.714  0.00  0.00    +0.000 HD
ENDBRANCH  13  16
ENDBRANCH   6  10
BRANCH   5  18
ATOM     18  C   UNL     1      -3.973  11.644  18.856  0.00  0.00    +0.000 C 
ATOM     19  N   UNL     1      -5.099  11.913  18.823  0.00  0.00    +0.000 NA
ENDBRANCH   5  18
BRANCH   7  20
ATOM     20  C   UNL     1       0.756  12.048  20.526  0.00  0.00    +0.000 C 
ATOM     21  N   UNL     1       1.608  12.432  21.216  0.00  0.00    +0.000 NA
ENDBRANCH   7  20
BRANCH   1  22
ATOM     22  S   UNL     1       1.829  10.419  18.172  0.00  0.00    +0.000 S 
BRANCH  22  26
ATOM     23  C   UNL     1       2.295   6.051  19.535  0.00  0.00    +0.000 A 
ATOM     24  C   UNL     1       1.733   7.005  20.394  0.00  0.00    +0.000 A 
ATOM     25  C   UNL     1       1.614   8.340  19.992  0.00  0.00    +0.000 A 
ATOM     26  C   UNL     1       2.064   8.742  18.732  0.00  0.00    +0.000 A 
ATOM     27  C   UNL     1       2.620   7.788  17.869  0.00  0.00    +0.000 A 
ATOM     28  C   UNL     1       2.736   6.449  18.269  0.00  0.00    +0.000 A 
BRANCH  23  29
ATOM     29  C   UNL     1       2.384   4.641  20.012  0.00  0.00    +0.000 C 
ATOM     30  O   UNL     1       3.197   3.837  19.585  0.00  0.00    +0.000 OA
BRANCH  29  32
ATOM     31  C   UNL     1       1.299   3.019  21.299  0.00  0.00    +0.000 C 
ATOM     32  O   UNL     1       1.445   4.399  20.958  0.00  0.00    +0.000 OA
ENDBRANCH  29  32
ENDBRANCH  23  29
ENDBRANCH  22  26
ENDBRANCH   1  22
TORSDOF 8
ENDMDL
MODEL 7
REMARK VINA RESULT:      -6.3      1.486      1.997
REMARK  Name = 
REMARK  9 active torsions:
REMARK  status: ('A' for Active; 'I' for Inactive)
REMARK    1  A    between atoms: C_1  and  O_2
REMARK    2  A    between atoms: O_2  and  C_3
REMARK    3  A    between atoms: C_3  and  C_5
REMARK    4  A    between atoms: C_8  and  S_9
REMARK    5  A    between atoms: S_9  and  C_10
REMARK    6  A    between atoms: C_14  and  C_15
REMARK    7  A    between atoms: C_17  and  C_18
REMARK    8  A    between atoms: C_21  and  O_22
REMARK    9  A    between atoms: C_25  and  C_26
REMARK                            x       y       z     vdW  Elec       q    Type
REMARK                         _______ _______ _______ _____ _____    ______ ____
ROOT
ATOM      1  C   UNL     1      -0.968  11.844  19.027  0.00  0.00    +0.000 A 
ATOM      2  N   UNL     1      -1.683  11.231  18.053  0.00  0.00    +0.000 NA
ATOM      3  C   UNL     1      -3.024  11.303  18.098  0.00  0.00    +0.000 A 
ATOM      4  N   UNL     1      -3.677  10.518  17.149  0.00  0.00    +0.000 N 
ATOM      5  C   UNL     1      -3.715  12.008  19.092  0.00  0.00    +0.000 A 
ATOM      6  C   UNL     1      -2.992  12.618  20.160  0.00  0.00    +0.000 A 
ATOM      7  C   UNL     1      -1.569  12.508  20.104  0.00  0.00    +0.000 A 
ATOM      8  H   UNL     1      -3.001  10.144  16.490  0.00  0.00    +0.000 HD
ATOM      9  H   UNL     1      -4.476  10.944  16.695  0.00  0.00    +0.000 HD
ENDROOT
BRANCH   6  10
ATOM     10  C   UNL     1      -3.698  13.310  21.296  0.00  0.00    +0.000 A 
ATOM     11  C   UNL     1      -4.014  14.684  21.244  0.00  0.00    +0.000 A 
ATOM     12  C   UNL     1      -4.653  15.350  22.295  0.00  0.00    +0.000 A 
ATOM     13  C   UNL     1      -5.084  14.628  23.394  0.00  0.00    +0.000 A 
ATOM     14  C   UNL     1      -4.832  13.270  23.477  0.00  0.00    +0.000 A 
ATOM     15  C   UNL     1      -4.103  12.633  22.465  0.00  0.00    +0.000 A 
BRANCH  13  16
ATOM     16  O   UNL     1      -5.763  15.221  24.413  0.00  0.00    +0.000 OA
ATOM     17  H   UNL     1      -6.638  14.804  24.485  0.00  0.00    +0.000 HD
ENDBRANCH  13  16
ENDBRANCH   6  10
BRANCH   5  18
ATOM     18  C   UNL     1      -5.151  12.096  18.953  0.00  0.00    +0.000 C 
ATOM     19  N   UNL     1      -6.298  12.196  18.836  0.00  0.00    +0.000 NA
ENDBRANCH   5  18
BRANCH   7  20
ATOM     20  C   UNL     1      -0.710  13.037  21.125  0.00  0.00    +0.000 C 
ATOM     21  N   UNL     1      -0.038  13.486  21.959  0.00  0.00    +0.000 NA
ENDBRANCH   7  20
BRANCH   1  22
ATOM     22  S   UNL     1       0.810  11.835  18.761  0.00  0.00    +0.000 S 
BRANCH  22  26
ATOM     23  C   UNL     1       2.051   7.473  19.527  0.00  0.00    +0.000 A 
ATOM     24  C   UNL     1       2.288   8.069  18.281  0.00  0.00    +0.000 A 
ATOM     25  C   UNL     1       1.888   9.387  18.036  0.00  0.00    +0.000 A 
ATOM     26  C   UNL     1       1.236  10.125  19.029  0.00  0.00    +0.000 A 
ATOM     27  C   UNL     1       1.005   9.532  20.278  0.00  0.00    +0.000 A 
ATOM     28  C   UNL     1       1.409   8.213  20.525  0.00  0.00    +0.000 A 
BRANCH  23  29
ATOM     29  C   UNL     1       2.511   6.071  19.735  0.00  0.00    +0.000 C 
ATOM     30  O   UNL     1       3.354   5.529  19.037  0.00  0.00    +0.000 OA
BRANCH  29  32
ATOM     31  C   UNL     1       1.126   4.327  20.446  0.00  0.00    +0.000 C 
ATOM     32  O   UNL     1       1.860   5.506  20.781  0.00  0.00    +0.000 OA
ENDBRANCH  29  32
ENDBRANCH  23  29
ENDBRANCH  22  26
ENDBRANCH   1  22
TORSDOF 8
ENDMDL
MODEL 8
REMARK VINA RESULT:      -6.2      5.650      8.326
REMARK  Name = 
REMARK  9 active torsions:
REMARK  status: ('A' for Active; 'I' for Inactive)
REMARK    1  A    between atoms: C_1  and  O_2
REMARK    2  A    between atoms: O_2  and  C_3
REMARK    3  A    between atoms: C_3  and  C_5
REMARK    4  A    between atoms: C_8  and  S_9
REMARK    5  A    between atoms: S_9  and  C_10
REMARK    6  A    between atoms: C_14  and  C_15
REMARK    7  A    between atoms: C_17  and  C_18
REMARK    8  A    between atoms: C_21  and  O_22
REMARK    9  A    between atoms: C_25  and  C_26
REMARK                            x       y       z     vdW  Elec       q    Type
REMARK                         _______ _______ _______ _____ _____    ______ ____
ROOT
ATOM      1  C   UNL     1       5.662   4.866  18.494  0.00  0.00    +0.000 A 
ATOM      2  N   UNL     1       5.287   3.726  19.122  0.00  0.00    +0.000 NA
ATOM      3  C   UNL     1       4.066   3.671  19.680  0.00  0.00    +0.000 A 
ATOM      4  N   UNL     1       3.827   2.523  20.433  0.00  0.00    +0.000 N 
ATOM      5  C   UNL     1       3.152   4.730  19.616  0.00  0.00    +0.000 A 
ATOM      6  C   UNL     1       3.538   5.962  19.009  0.00  0.00    +0.000 A 
ATOM      7  C   UNL     1       4.849   6.005  18.444  0.00  0.00    +0.000 A 
ATOM      8  H   UNL     1       4.582   1.859  20.297  0.00  0.00    +0.000 HD
ATOM      9  H   UNL     1       2.910   2.104  20.325  0.00  0.00    +0.000 HD
ENDROOT
BRANCH   6  10
ATOM     10  C   UNL     1       2.620   7.156  18.996  0.00  0.00    +0.000 A 
ATOM     11  C   UNL     1       2.066   7.677  20.185  0.00  0.00    +0.000 A 
ATOM     12  C   UNL     1       1.198   8.773  20.193  0.00  0.00    +0.000 A 
ATOM     13  C   UNL     1       0.939   9.444  19.011  0.00  0.00    +0.000 A 
ATOM     14  C   UNL     1       1.487   8.996  17.822  0.00  0.00    +0.000 A 
ATOM     15  C   UNL     1       2.275   7.838  17.810  0.00  0.00    +0.000 A 
BRANCH  13  16
ATOM     16  O   UNL     1       0.150  10.551  18.980  0.00  0.00    +0.000 OA
ATOM     17  H   UNL     1      -0.375  10.580  19.797  0.00  0.00    +0.000 HD
ENDBRANCH  13  16
ENDBRANCH   6  10
BRANCH   5  18
ATOM     18  C   UNL     1       1.836   4.492  20.161  0.00  0.00    +0.000 C 
ATOM     19  N   UNL     1       0.785   4.270  20.594  0.00  0.00    +0.000 NA
ENDBRANCH   5  18
BRANCH   7  20
ATOM     20  C   UNL     1       5.391   7.186  17.833  0.00  0.00    +0.000 C 
ATOM     21  N   UNL     1       5.855   8.124  17.329  0.00  0.00    +0.000 NA
ENDBRANCH   7  20
BRANCH   1  22
ATOM     22  S   UNL     1       7.236   4.757  17.632  0.00  0.00    +0.000 S 
BRANCH  22  26
ATOM     23  C   UNL     1       6.037   3.661  13.330  0.00  0.00    +0.000 A 
ATOM     24  C   UNL     1       7.158   4.468  13.569  0.00  0.00    +0.000 A 
ATOM     25  C   UNL     1       7.510   4.824  14.876  0.00  0.00    +0.000 A 
ATOM     26  C   UNL     1       6.741   4.390  15.960  0.00  0.00    +0.000 A 
ATOM     27  C   UNL     1       5.625   3.577  15.722  0.00  0.00    +0.000 A 
ATOM     28  C   UNL     1       5.274   3.215  14.413  0.00  0.00    +0.000 A 
BRANCH  23  29
ATOM     29  C   UNL     1       5.718   3.302  11.919  0.00  0.00    +0.000 C 
ATOM     30  O   UNL     1       4.667   3.596  11.371  0.00  0.00    +0.000 OA
BRANCH  29  32
ATOM     31  C   UNL     1       6.454   1.236  11.109  0.00  0.00    +0.000 C 
ATOM     32  O   UNL     1       6.742   2.613  11.359  0.00  0.00    +0.000 OA
ENDBRANCH  29  32
ENDBRANCH  23  29
ENDBRANCH  22  26
ENDBRANCH   1  22
TORSDOF 8
ENDMDL
MODEL 9
REMARK VINA RESULT:      -6.2      1.223      1.697
REMARK  Name = 
REMARK  9 active torsions:
REMARK  status: ('A' for Active; 'I' for Inactive)
REMARK    1  A    between atoms: C_1  and  O_2
REMARK    2  A    between atoms: O_2  and  C_3
REMARK    3  A    between atoms: C_3  and  C_5
REMARK    4  A    between atoms: C_8  and  S_9
REMARK    5  A    between atoms: S_9  and  C_10
REMARK    6  A    between atoms: C_14  and  C_15
REMARK    7  A    between atoms: C_17  and  C_18
REMARK    8  A    between atoms: C_21  and  O_22
REMARK    9  A    between atoms: C_25  and  C_26
REMARK                            x       y       z     vdW  Elec       q    Type
REMARK                         _______ _______ _______ _____ _____    ______ ____
ROOT
ATOM      1  C   UNL     1      -0.530  11.515  18.896  0.00  0.00    +0.000 A 
ATOM      2  N   UNL     1      -1.331  10.926  17.977  0.00  0.00    +0.000 NA
ATOM      3  C   UNL     1      -2.661  11.060  18.103  0.00  0.00    +0.000 A 
ATOM      4  N   UNL     1      -3.407  10.296  17.207  0.00  0.00    +0.000 N 
ATOM      5  C   UNL     1      -3.256  11.808  19.127  0.00  0.00    +0.000 A 
ATOM      6  C   UNL     1      -2.442  12.395  20.140  0.00  0.00    +0.000 A 
ATOM      7  C   UNL     1      -1.032  12.218  19.998  0.00  0.00    +0.000 A 
ATOM      8  H   UNL     1      -2.791   9.883  16.513  0.00  0.00    +0.000 HD
ATOM      9  H   UNL     1      -4.213  10.754  16.797  0.00  0.00    +0.000 HD
ENDROOT
BRANCH   6  10
ATOM     10  C   UNL     1      -3.044  13.131  21.308  0.00  0.00    +0.000 A 
ATOM     11  C   UNL     1      -3.324  12.481  22.529  0.00  0.00    +0.000 A 
ATOM     12  C   UNL     1      -3.899  13.142  23.619  0.00  0.00    +0.000 A 
ATOM     13  C   UNL     1      -4.119  14.506  23.547  0.00  0.00    +0.000 A 
ATOM     14  C   UNL     1      -3.827  15.198  22.386  0.00  0.00    +0.000 A 
ATOM     15  C   UNL     1      -3.345  14.509  21.266  0.00  0.00    +0.000 A 
BRANCH  13  16
ATOM     16  O   UNL     1      -4.619  15.202  24.604  0.00  0.00    +0.000 OA
ATOM     17  H   UNL     1      -4.379  14.737  25.422  0.00  0.00    +0.000 HD
ENDBRANCH  13  16
ENDBRANCH   6  10
BRANCH   5  18
ATOM     18  C   UNL     1      -4.693  11.960  19.076  0.00  0.00    +0.000 C 
ATOM     19  N   UNL     1      -5.841  12.107  19.053  0.00  0.00    +0.000 NA
ENDBRANCH   5  18
BRANCH   7  20
ATOM     20  C   UNL     1      -0.088  12.718  20.958  0.00  0.00    +0.000 C 
ATOM     21  N   UNL     1       0.685  13.093  21.740  0.00  0.00    +0.000 NA
ENDBRANCH   7  20
BRANCH   1  22
ATOM     22  S   UNL     1       1.226  11.421  18.522  0.00  0.00    +0.000 S 
BRANCH  22  26
ATOM     23  C   UNL     1       2.111   7.022  19.534  0.00  0.00    +0.000 A 
ATOM     24  C   UNL     1       1.552   7.873  20.497  0.00  0.00    +0.000 A 
ATOM     25  C   UNL     1       1.306   9.218  20.201  0.00  0.00    +0.000 A 
ATOM     26  C   UNL     1       1.625   9.735  18.942  0.00  0.00    +0.000 A 
ATOM     27  C   UNL     1       2.177   8.884  17.975  0.00  0.00    +0.000 A 
ATOM     28  C   UNL     1       2.420   7.535  18.269  0.00  0.00    +0.000 A 
BRANCH  23  29
ATOM     29  C   UNL     1       2.338   5.596  19.901  0.00  0.00    +0.000 C 
ATOM     30  O   UNL     1       1.905   5.088  20.924  0.00  0.00    +0.000 OA
BRANCH  29  32
ATOM     31  C   UNL     1       3.922   3.933  19.464  0.00  0.00    +0.000 C 
ATOM     32  O   UNL     1       3.084   4.974  18.957  0.00  0.00    +0.000 OA
ENDBRANCH  29  32
ENDBRANCH  23  29
ENDBRANCH  22  26
ENDBRANCH   1  22
TORSDOF 8
ENDMDL
