MODEL 1
REMARK VINA RESULT:      -6.8      0.000      0.000
REMARK  Name = 
REMARK  6 active torsions:
REMARK  status: ('A' for Active; 'I' for Inactive)
REMARK    1  A    between atoms: C_1  and  C_2
REMARK    2  A    between atoms: C_2  and  C_3
REMARK    3  A    between atoms: C_3  and  C_4
REMARK    4  A    between atoms: C_4  and  C_5
REMARK    5  A    between atoms: C_5  and  O_7
REMARK    6  A    between atoms: O_7  and  N_8
REMARK                            x       y       z     vdW  Elec       q    Type
REMARK                         _______ _______ _______ _____ _____    ______ ____
ROOT
ATOM      1  N   UNL     1       3.990   5.469  17.529  0.00  0.00    +0.000 N 
ATOM      2  C   UNL     1       3.442   6.672  17.927  0.00  0.00    +0.000 C 
ATOM      3  O   UNL     1       3.513   7.726  17.298  0.00  0.00    +0.000 OA
ATOM      4  C   UNL     1       2.839   6.581  19.306  0.00  0.00    +0.000 C 
ATOM      5  O   UNL     1       2.091   5.416  19.594  0.00  0.00    +0.000 OA
ATOM      6  C   UNL     1       2.604   4.254  19.074  0.00  0.00    +0.000 A 
ATOM      7  C   UNL     1       2.088   3.049  19.571  0.00  0.00    +0.000 A 
ATOM      8 CL   UNL     1       0.918   3.029  20.841  0.00  0.00    +0.000 Cl
ATOM      9  C   UNL     1       2.511   1.831  19.038  0.00  0.00    +0.000 A 
ATOM     10  C   UNL     1       3.451   1.812  18.007  0.00  0.00    +0.000 A 
ATOM     11  C   UNL     1       3.978   3.010  17.509  0.00  0.00    +0.000 A 
ATOM     12  C   UNL     1       3.555   4.236  18.038  0.00  0.00    +0.000 A 
ENDROOT
BRANCH   1  13
ATOM     13  O   UNL     1       4.741   5.518  16.331  0.00  0.00    +0.000 OA
BRANCH  13  14
ATOM     14  C   UNL     1       6.087   5.506  16.606  0.00  0.00    +0.000 C 
ATOM     15  O   UNL     1       6.636   6.147  17.497  0.00  0.00    +0.000 OA
BRANCH  14  16
ATOM     16  C   UNL     1       6.810   4.696  15.551  0.00  0.00    +0.000 C 
BRANCH  16  17
ATOM     17  C   UNL     1       5.863   4.042  14.560  0.00  0.00    +0.000 C 
BRANCH  17  19
ATOM     18  C   UNL     1       5.568   3.236  12.197  0.00  0.00    +0.000 C 
ATOM     19  C   UNL     1       6.469   3.987  13.158  0.00  0.00    +0.000 C 
ENDBRANCH  17  19
ENDBRANCH  16  17
ENDBRANCH  14  16
ENDBRANCH  13  14
ENDBRANCH   1  13
TORSDOF 5
ENDMDL
MODEL 2
REMARK VINA RESULT:      -6.6      3.052      5.911
REMARK  Name = 
REMARK  6 active torsions:
REMARK  status: ('A' for Active; 'I' for Inactive)
REMARK    1  A    between atoms: C_1  and  C_2
REMARK    2  A    between atoms: C_2  and  C_3
REMARK    3  A    between atoms: C_3  and  C_4
REMARK    4  A    between atoms: C_4  and  C_5
REMARK    5  A    between atoms: C_5  and  O_7
REMARK    6  A    between atoms: O_7  and  N_8
REMARK                            x       y       z     vdW  Elec       q    Type
REMARK                         _______ _______ _______ _____ _____    ______ ____
ROOT
ATOM      1  N   UNL     1       6.111   4.818  18.240  0.00  0.00    +0.000 N 
ATOM      2  C   UNL     1       7.094   5.622  18.782  0.00  0.00    +0.000 C 
ATOM      3  O   UNL     1       7.446   5.616  19.960  0.00  0.00    +0.000 OA
ATOM      4  C   UNL     1       7.619   6.616  17.776  0.00  0.00    +0.000 C 
ATOM      5  O   UNL     1       7.843   6.133  16.466  0.00  0.00    +0.000 OA
ATOM      6  C   UNL     1       6.908   5.238  16.010  0.00  0.00    +0.000 A 
ATOM      7  C   UNL     1       6.904   4.962  14.635  0.00  0.00    +0.000 A 
ATOM      8 CL   UNL     1       7.976   5.776  13.554  0.00  0.00    +0.000 Cl
ATOM      9  C   UNL     1       6.030   4.010  14.112  0.00  0.00    +0.000 A 
ATOM     10  C   UNL     1       5.154   3.329  14.960  0.00  0.00    +0.000 A 
ATOM     11  C   UNL     1       5.145   3.604  16.333  0.00  0.00    +0.000 A 
ATOM     12  C   UNL     1       6.023   4.556  16.865  0.00  0.00    +0.000 A 
ENDROOT
BRANCH   1  13
ATOM     13  O   UNL     1       5.436   3.989  19.166  0.00  0.00    +0.000 OA
BRANCH  13  14
ATOM     14  C   UNL     1       4.162   4.454  19.390  0.00  0.00    +0.000 C 
ATOM     15  O   UNL     1       3.870   5.609  19.683  0.00  0.00    +0.000 OA
BRANCH  14  16
ATOM     16  C   UNL     1       3.190   3.294  19.362  0.00  0.00    +0.000 C 
BRANCH  16  17
ATOM     17  C   UNL     1       1.752   3.736  19.155  0.00  0.00    +0.000 C 
BRANCH  17  19
ATOM     18  C   UNL     1       1.378   2.764  21.442  0.00  0.00    +0.000 C 
ATOM     19  C   UNL     1       1.013   3.881  20.485  0.00  0.00    +0.000 C 
ENDBRANCH  17  19
ENDBRANCH  16  17
ENDBRANCH  14  16
ENDBRANCH  13  14
ENDBRANCH   1  13
TORSDOF 5
ENDMDL
MODEL 3
REMARK VINA RESULT:      -6.5      3.181      6.209
REMARK  Name = 
REMARK  6 active torsions:
REMARK  status: ('A' for Active; 'I' for Inactive)
REMARK    1  A    between atoms: C_1  and  C_2
REMARK    2  A    between atoms: C_2  and  C_3
REMARK    3  A    between atoms: C_3  and  C_4
REMARK    4  A    between atoms: C_4  and  C_5
REMARK    5  A    between atoms: C_5  and  O_7
REMARK    6  A    between atoms: O_7  and  N_8
REMARK                            x       y       z     vdW  Elec       q    Type
REMARK                         _______ _______ _______ _____ _____    ______ ____
ROOT
ATOM      1  N   UNL     1       5.558   4.172  16.548  0.00  0.00    +0.000 N 
ATOM      2  C   UNL     1       6.338   4.794  17.502  0.00  0.00    +0.000 C 
ATOM      3  O   UNL     1       6.331   4.534  18.704  0.00  0.00    +0.000 OA
ATOM      4  C   UNL     1       7.130   5.936  16.918  0.00  0.00    +0.000 C 
ATOM      5  O   UNL     1       7.729   5.711  15.656  0.00  0.00    +0.000 OA
ATOM      6  C   UNL     1       6.969   4.980  14.777  0.00  0.00    +0.000 A 
ATOM      7  C   UNL     1       7.368   4.984  13.432  0.00  0.00    +0.000 A 
ATOM      8 CL   UNL     1       8.707   5.934  12.895  0.00  0.00    +0.000 Cl
ATOM      9  C   UNL     1       6.687   4.207  12.495  0.00  0.00    +0.000 A 
ATOM     10  C   UNL     1       5.604   3.424  12.896  0.00  0.00    +0.000 A 
ATOM     11  C   UNL     1       5.193   3.419  14.235  0.00  0.00    +0.000 A 
ATOM     12  C   UNL     1       5.876   4.195  15.181  0.00  0.00    +0.000 A 
ENDROOT
BRANCH   1  13
ATOM     13  O   UNL     1       4.644   3.215  17.049  0.00  0.00    +0.000 OA
BRANCH  13  14
ATOM     14  C   UNL     1       3.439   3.808  17.341  0.00  0.00    +0.000 C 
ATOM     15  O   UNL     1       3.240   5.017  17.407  0.00  0.00    +0.000 OA
BRANCH  14  16
ATOM     16  C   UNL     1       2.430   2.742  17.712  0.00  0.00    +0.000 C 
BRANCH  16  17
ATOM     17  C   UNL     1       1.139   3.320  18.265  0.00  0.00    +0.000 C 
BRANCH  17  19
ATOM     18  C   UNL     1       1.281   4.150  20.633  0.00  0.00    +0.000 C 
ATOM     19  C   UNL     1       0.955   2.969  19.740  0.00  0.00    +0.000 C 
ENDBRANCH  17  19
ENDBRANCH  16  17
ENDBRANCH  14  16
ENDBRANCH  13  14
ENDBRANCH   1  13
TORSDOF 5
ENDMDL
MODEL 4
REMARK VINA RESULT:      -6.5      1.282      1.464
REMARK  Name = 
REMARK  6 active torsions:
REMARK  status: ('A' for Active; 'I' for Inactive)
REMARK    1  A    between atoms: C_1  and  C_2
REMARK    2  A    between atoms: C_2  and  C_3
REMARK    3  A    between atoms: C_3  and  C_4
REMARK    4  A    between atoms: C_4  and  C_5
REMARK    5  A    between atoms: C_5  and  O_7
REMARK    6  A    between atoms: O_7  and  N_8
REMARK                            x       y       z     vdW  Elec       q    Type
REMARK                         _______ _______ _______ _____ _____    ______ ____
ROOT
ATOM      1  N   UNL     1       4.582   4.716  16.831  0.00  0.00    +0.000 N 
ATOM      2  C   UNL     1       4.537   6.096  16.865  0.00  0.00    +0.000 C 
ATOM      3  O   UNL     1       4.766   6.838  15.912  0.00  0.00    +0.000 OA
ATOM      4  C   UNL     1       4.289   6.610  18.261  0.00  0.00    +0.000 C 
ATOM      5  O   UNL     1       3.318   5.923  19.027  0.00  0.00    +0.000 OA
ATOM      6  C   UNL     1       3.314   4.559  18.868  0.00  0.00    +0.000 A 
ATOM      7  C   UNL     1       2.597   3.808  19.810  0.00  0.00    +0.000 A 
ATOM      8 CL   UNL     1       1.821   4.562  21.156  0.00  0.00    +0.000 Cl
ATOM      9  C   UNL     1       2.489   2.425  19.671  0.00  0.00    +0.000 A 
ATOM     10  C   UNL     1       3.099   1.785  18.591  0.00  0.00    +0.000 A 
ATOM     11  C   UNL     1       3.825   2.525  17.650  0.00  0.00    +0.000 A 
ATOM     12  C   UNL     1       3.933   3.915  17.782  0.00  0.00    +0.000 A 
ENDROOT
BRANCH   1  13
ATOM     13  O   UNL     1       4.997   4.161  15.597  0.00  0.00    +0.000 OA
BRANCH  13  14
ATOM     14  C   UNL     1       6.368   4.180  15.498  0.00  0.00    +0.000 C 
ATOM     15  O   UNL     1       7.149   4.133  16.443  0.00  0.00    +0.000 OA
BRANCH  14  16
ATOM     16  C   UNL     1       6.765   4.414  14.057  0.00  0.00    +0.000 C 
BRANCH  16  17
ATOM     17  C   UNL     1       5.813   3.761  13.069  0.00  0.00    +0.000 C 
BRANCH  17  19
ATOM     18  C   UNL     1       5.868   1.861  11.426  0.00  0.00    +0.000 C 
ATOM     19  C   UNL     1       6.565   3.118  11.906  0.00  0.00    +0.000 C 
ENDBRANCH  17  19
ENDBRANCH  16  17
ENDBRANCH  14  16
ENDBRANCH  13  14
ENDBRANCH   1  13
TORSDOF 5
ENDMDL
MODEL 5
REMARK VINA RESULT:      -6.4      3.008      5.822
REMARK  Name = 
REMARK  6 active torsions:
REMARK  status: ('A' for Active; 'I' for Inactive)
REMARK    1  A    between atoms: C_1  and  C_2
REMARK    2  A    between atoms: C_2  and  C_3
REMARK    3  A    between atoms: C_3  and  C_4
REMARK    4  A    between atoms: C_4  and  C_5
REMARK    5  A    between atoms: C_5  and  O_7
REMARK    6  A    between atoms: O_7  and  N_8
REMARK                            x       y       z     vdW  Elec       q    Type
REMARK                         _______ _______ _______ _____ _____    ______ ____
ROOT
ATOM      1  N   UNL     1       4.502   3.472  18.054  0.00  0.00    +0.000 N 
ATOM      2  C   UNL     1       4.799   3.532  19.401  0.00  0.00    +0.000 C 
ATOM      3  O   UNL     1       4.570   2.644  20.220  0.00  0.00    +0.000 OA
ATOM      4  C   UNL     1       5.338   4.886  19.793  0.00  0.00    +0.000 C 
ATOM      5  O   UNL     1       6.271   5.476  18.908  0.00  0.00    +0.000 OA
ATOM      6  C   UNL     1       6.006   5.285  17.575  0.00  0.00    +0.000 A 
ATOM      7  C   UNL     1       6.708   6.088  16.664  0.00  0.00    +0.000 A 
ATOM      8 CL   UNL     1       7.795   7.317  17.201  0.00  0.00    +0.000 Cl
ATOM      9  C   UNL     1       6.543   5.900  15.292  0.00  0.00    +0.000 A 
ATOM     10  C   UNL     1       5.676   4.912  14.823  0.00  0.00    +0.000 A 
ATOM     11  C   UNL     1       4.965   4.111  15.726  0.00  0.00    +0.000 A 
ATOM     12  C   UNL     1       5.129   4.293  17.105  0.00  0.00    +0.000 A 
ENDROOT
BRANCH   1  13
ATOM     13  O   UNL     1       3.817   2.304  17.643  0.00  0.00    +0.000 OA
BRANCH  13  14
ATOM     14  C   UNL     1       2.465   2.537  17.577  0.00  0.00    +0.000 C 
ATOM     15  O   UNL     1       1.919   3.339  16.825  0.00  0.00    +0.000 OA
BRANCH  14  16
ATOM     16  C   UNL     1       1.765   1.762  18.672  0.00  0.00    +0.000 C 
BRANCH  16  17
ATOM     17  C   UNL     1       0.621   2.536  19.304  0.00  0.00    +0.000 C 
BRANCH  17  19
ATOM     18  C   UNL     1       1.472   2.787  21.655  0.00  0.00    +0.000 C 
ATOM     19  C   UNL     1       1.123   3.509  20.369  0.00  0.00    +0.000 C 
ENDBRANCH  17  19
ENDBRANCH  16  17
ENDBRANCH  14  16
ENDBRANCH  13  14
ENDBRANCH   1  13
TORSDOF 5
ENDMDL
MODEL 6
REMARK VINA RESULT:      -6.4      1.707      2.097
REMARK  Name = 
REMARK  6 active torsions:
REMARK  status: ('A' for Active; 'I' for Inactive)
REMARK    1  A    between atoms: C_1  and  C_2
REMARK    2  A    between atoms: C_2  and  C_3
REMARK    3  A    between atoms: C_3  and  C_4
REMARK    4  A    between atoms: C_4  and  C_5
REMARK    5  A    between atoms: C_5  and  O_7
REMARK    6  A    between atoms: O_7  and  N_8
REMARK                            x       y       z     vdW  Elec       q    Type
REMARK                         _______ _______ _______ _____ _____    ______ ____
ROOT
ATOM      1  N   UNL     1       5.490   5.309  17.104  0.00  0.00    +0.000 N 
ATOM      2  C   UNL     1       6.289   6.043  17.958  0.00  0.00    +0.000 C 
ATOM      3  O   UNL     1       6.990   6.998  17.629  0.00  0.00    +0.000 OA
ATOM      4  C   UNL     1       6.302   5.460  19.349  0.00  0.00    +0.000 C 
ATOM      5  O   UNL     1       5.060   5.017  19.862  0.00  0.00    +0.000 OA
ATOM      6  C   UNL     1       4.242   4.401  18.948  0.00  0.00    +0.000 A 
ATOM      7  C   UNL     1       3.149   3.681  19.452  0.00  0.00    +0.000 A 
ATOM      8 CL   UNL     1       2.894   3.511  21.151  0.00  0.00    +0.000 Cl
ATOM      9  C   UNL     1       2.235   3.090  18.580  0.00  0.00    +0.000 A 
ATOM     10  C   UNL     1       2.409   3.213  17.201  0.00  0.00    +0.000 A 
ATOM     11  C   UNL     1       3.502   3.923  16.688  0.00  0.00    +0.000 A 
ATOM     12  C   UNL     1       4.421   4.523  17.559  0.00  0.00    +0.000 A 
ENDROOT
BRANCH   1  13
ATOM     13  O   UNL     1       5.573   5.677  15.740  0.00  0.00    +0.000 OA
BRANCH  13  14
ATOM     14  C   UNL     1       6.635   5.050  15.135  0.00  0.00    +0.000 C 
ATOM     15  O   UNL     1       7.760   5.523  15.007  0.00  0.00    +0.000 OA
BRANCH  14  16
ATOM     16  C   UNL     1       6.169   3.747  14.523  0.00  0.00    +0.000 C 
BRANCH  16  17
ATOM     17  C   UNL     1       5.189   3.950  13.380  0.00  0.00    +0.000 C 
BRANCH  17  19
ATOM     18  C   UNL     1       7.071   3.507  11.774  0.00  0.00    +0.000 C 
ATOM     19  C   UNL     1       5.629   3.199  12.125  0.00  0.00    +0.000 C 
ENDBRANCH  17  19
ENDBRANCH  16  17
ENDBRANCH  14  16
ENDBRANCH  13  14
ENDBRANCH   1  13
TORSDOF 5
ENDMDL
MODEL 7
REMARK VINA RESULT:      -6.4      1.797      2.442
REMARK  Name = 
REMARK  6 active torsions:
REMARK  status: ('A' for Active; 'I' for Inactive)
REMARK    1  A    between atoms: C_1  and  C_2
REMARK    2  A    between atoms: C_2  and  C_3
REMARK    3  A    between atoms: C_3  and  C_4
REMARK    4  A    between atoms: C_4  and  C_5
REMARK    5  A    between atoms: C_5  and  O_7
REMARK    6  A    between atoms: O_7  and  N_8
REMARK                            x       y       z     vdW  Elec       q    Type
REMARK                         _______ _______ _______ _____ _____    ______ ____
ROOT
ATOM      1  N   UNL     1       5.624   4.209  17.260  0.00  0.00    +0.000 N 
ATOM      2  C   UNL     1       6.573   4.996  17.881  0.00  0.00    +0.000 C 
ATOM      3  O   UNL     1       7.616   5.392  17.364  0.00  0.00    +0.000 OA
ATOM      4  C   UNL     1       6.244   5.223  19.335  0.00  0.00    +0.000 C 
ATOM      5  O   UNL     1       4.890   5.497  19.643  0.00  0.00    +0.000 OA
ATOM      6  C   UNL     1       3.974   4.782  18.912  0.00  0.00    +0.000 A 
ATOM      7  C   UNL     1       2.650   4.782  19.373  0.00  0.00    +0.000 A 
ATOM      8 CL   UNL     1       2.210   5.580  20.840  0.00  0.00    +0.000 Cl
ATOM      9  C   UNL     1       1.652   4.136  18.643  0.00  0.00    +0.000 A 
ATOM     10  C   UNL     1       1.972   3.487  17.450  0.00  0.00    +0.000 A 
ATOM     11  C   UNL     1       3.294   3.474  16.986  0.00  0.00    +0.000 A 
ATOM     12  C   UNL     1       4.299   4.124  17.713  0.00  0.00    +0.000 A 
ENDROOT
BRANCH   1  13
ATOM     13  O   UNL     1       5.955   3.793  15.948  0.00  0.00    +0.000 OA
BRANCH  13  14
ATOM     14  C   UNL     1       5.906   4.856  15.079  0.00  0.00    +0.000 C 
ATOM     15  O   UNL     1       5.165   5.829  15.188  0.00  0.00    +0.000 OA
BRANCH  14  16
ATOM     16  C   UNL     1       6.799   4.577  13.890  0.00  0.00    +0.000 C 
BRANCH  16  17
ATOM     17  C   UNL     1       6.246   3.496  12.978  0.00  0.00    +0.000 C 
BRANCH  17  19
ATOM     18  C   UNL     1       4.447   2.915  11.322  0.00  0.00    +0.000 C 
ATOM     19  C   UNL     1       4.897   3.897  12.387  0.00  0.00    +0.000 C 
ENDBRANCH  17  19
ENDBRANCH  16  17
ENDBRANCH  14  16
ENDBRANCH  13  14
ENDBRANCH   1  13
TORSDOF 5
ENDMDL
MODEL 8
REMARK VINA RESULT:      -6.4      2.103      3.410
REMARK  Name = 
REMARK  6 active torsions:
REMARK  status: ('A' for Active; 'I' for Inactive)
REMARK    1  A    between atoms: C_1  and  C_2
REMARK    2  A    between atoms: C_2  and  C_3
REMARK    3  A    between atoms: C_3  and  C_4
REMARK    4  A    between atoms: C_4  and  C_5
REMARK    5  A    between atoms: C_5  and  O_7
REMARK    6  A    between atoms: O_7  and  N_8
REMARK                            x       y       z     vdW  Elec       q    Type
REMARK                         _______ _______ _______ _____ _____    ______ ____
ROOT
ATOM      1  N   UNL     1       4.170   4.241  18.692  0.00  0.00    +0.000 N 
ATOM      2  C   UNL     1       4.054   3.376  19.762  0.00  0.00    +0.000 C 
ATOM      3  O   UNL     1       4.824   2.452  20.014  0.00  0.00    +0.000 OA
ATOM      4  C   UNL     1       2.783   3.616  20.538  0.00  0.00    +0.000 C 
ATOM      5  O   UNL     1       2.429   4.966  20.770  0.00  0.00    +0.000 OA
ATOM      6  C   UNL     1       2.676   5.818  19.723  0.00  0.00    +0.000 A 
ATOM      7  C   UNL     1       2.077   7.085  19.775  0.00  0.00    +0.000 A 
ATOM      8 CL   UNL     1       1.009   7.521  21.060  0.00  0.00    +0.000 Cl
ATOM      9  C   UNL     1       2.341   8.029  18.783  0.00  0.00    +0.000 A 
ATOM     10  C   UNL     1       3.204   7.711  17.733  0.00  0.00    +0.000 A 
ATOM     11  C   UNL     1       3.801   6.446  17.668  0.00  0.00    +0.000 A 
ATOM     12  C   UNL     1       3.542   5.496  18.664  0.00  0.00    +0.000 A 
ENDROOT
BRANCH   1  13
ATOM     13  O   UNL     1       5.235   3.959  17.804  0.00  0.00    +0.000 OA
BRANCH  13  14
ATOM     14  C   UNL     1       6.394   4.555  18.239  0.00  0.00    +0.000 C 
ATOM     15  O   UNL     1       6.562   5.059  19.345  0.00  0.00    +0.000 OA
BRANCH  14  16
ATOM     16  C   UNL     1       7.384   4.625  17.097  0.00  0.00    +0.000 C 
BRANCH  16  17
ATOM     17  C   UNL     1       6.849   5.391  15.899  0.00  0.00    +0.000 C 
BRANCH  17  19
ATOM     18  C   UNL     1       5.518   4.176  14.147  0.00  0.00    +0.000 C 
ATOM     19  C   UNL     1       6.908   4.551  14.625  0.00  0.00    +0.000 C 
ENDBRANCH  17  19
ENDBRANCH  16  17
ENDBRANCH  14  16
ENDBRANCH  13  14
ENDBRANCH   1  13
TORSDOF 5
ENDMDL
MODEL 9
REMARK VINA RESULT:      -6.4      3.049      4.832
REMARK  Name = 
REMARK  6 active torsions:
REMARK  status: ('A' for Active; 'I' for Inactive)
REMARK    1  A    between atoms: C_1  and  C_2
REMARK    2  A    between atoms: C_2  and  C_3
REMARK    3  A    between atoms: C_3  and  C_4
REMARK    4  A    between atoms: C_4  and  C_5
REMARK    5  A    between atoms: C_5  and  O_7
REMARK    6  A    between atoms: O_7  and  N_8
REMARK                            x       y       z     vdW  Elec       q    Type
REMARK                         _______ _______ _______ _____ _____    ______ ____
ROOT
ATOM      1  N   UNL     1       6.094   5.341  17.781  0.00  0.00    +0.000 N 
ATOM      2  C   UNL     1       6.706   4.516  16.859  0.00  0.00    +0.000 C 
ATOM      3  O   UNL     1       7.909   4.503  16.605  0.00  0.00    +0.000 OA
ATOM      4  C   UNL     1       5.700   3.697  16.089  0.00  0.00    +0.000 C 
ATOM      5  O   UNL     1       4.635   3.138  16.835  0.00  0.00    +0.000 OA
ATOM      6  C   UNL     1       4.137   3.945  17.828  0.00  0.00    +0.000 A 
ATOM      7  C   UNL     1       2.905   3.579  18.389  0.00  0.00    +0.000 A 
ATOM      8 CL   UNL     1       2.018   2.220  17.800  0.00  0.00    +0.000 Cl
ATOM      9  C   UNL     1       2.373   4.311  19.451  0.00  0.00    +0.000 A 
ATOM     10  C   UNL     1       3.067   5.411  19.955  0.00  0.00    +0.000 A 
ATOM     11  C   UNL     1       4.294   5.789  19.395  0.00  0.00    +0.000 A 
ATOM     12  C   UNL     1       4.835   5.056  18.331  0.00  0.00    +0.000 A 
ENDROOT
BRANCH   1  13
ATOM     13  O   UNL     1       6.950   6.276  18.410  0.00  0.00    +0.000 OA
BRANCH  13  14
ATOM     14  C   UNL     1       7.120   7.383  17.613  0.00  0.00    +0.000 C 
ATOM     15  O   UNL     1       6.426   7.675  16.645  0.00  0.00    +0.000 OA
BRANCH  14  16
ATOM     16  C   UNL     1       8.383   8.110  18.024  0.00  0.00    +0.000 C 
BRANCH  16  17
ATOM     17  C   UNL     1       8.194   9.615  18.113  0.00  0.00    +0.000 C 
BRANCH  17  19
ATOM     18  C   UNL     1      10.119  11.211  18.360  0.00  0.00    +0.000 C 
ATOM     19  C   UNL     1       9.194  10.249  19.078  0.00  0.00    +0.000 C 
ENDBRANCH  17  19
ENDBRANCH  16  17
ENDBRANCH  14  16
ENDBRANCH  13  14
ENDBRANCH   1  13
TORSDOF 5
ENDMDL
