MODEL 1
REMARK VINA RESULT:      -6.5      0.000      0.000
REMARK  Name = 
REMARK  12 active torsions:
REMARK  status: ('A' for Active; 'I' for Inactive)
REMARK    1  A    between atoms: C_1  and  O_2
REMARK    2  A    between atoms: O_2  and  C_3
REMARK    3  A    between atoms: N_5  and  N_6
REMARK    4  A    between atoms: C_7  and  C_9
REMARK    5  A    between atoms: C_9  and  C_21
REMARK    6  A    between atoms: C_10  and  C_11
REMARK    7  A    between atoms: C_23  and  O_24
REMARK    8  A    between atoms: O_24  and  C_25
REMARK    9  A    between atoms: C_26  and  O_27
REMARK   10  A    between atoms: O_27  and  C_28
REMARK   11  A    between atoms: C_29  and  O_30
REMARK   12  A    between atoms: O_30  and  C_31
REMARK                            x       y       z     vdW  Elec       q    Type
REMARK                         _______ _______ _______ _____ _____    ______ ____
ROOT
ATOM      1  C   UNL     1      -0.210  12.970  19.542  0.00  0.00    +0.000 C 
ATOM      2  C   UNL     1       0.626  12.375  20.423  0.00  0.00    +0.000 C 
ENDROOT
BRANCH   2   3
ATOM      3  C   UNL     1       0.315  11.124  21.156  0.00  0.00    +0.000 A 
ATOM      4  C   UNL     1      -0.445  11.224  22.332  0.00  0.00    +0.000 A 
ATOM      5  C   UNL     1      -0.697  10.099  23.108  0.00  0.00    +0.000 A 
ATOM      6  C   UNL     1      -0.207   8.858  22.710  0.00  0.00    +0.000 A 
ATOM      7  C   UNL     1       0.526   8.719  21.522  0.00  0.00    +0.000 A 
ATOM      8  C   UNL     1       0.993   7.455  21.124  0.00  0.00    +0.000 A 
ATOM      9  C   UNL     1       1.713   7.296  19.942  0.00  0.00    +0.000 A 
ATOM     10  C   UNL     1       1.985   8.401  19.145  0.00  0.00    +0.000 A 
ATOM     11  C   UNL     1       1.535   9.665  19.531  0.00  0.00    +0.000 A 
ATOM     12  C   UNL     1       0.794   9.857  20.722  0.00  0.00    +0.000 A 
ENDBRANCH   2   3
BRANCH   1  13
ATOM     13  C   UNL     1      -1.543  12.382  19.273  0.00  0.00    +0.000 A 
ATOM     14  C   UNL     1      -1.751  11.544  18.173  0.00  0.00    +0.000 A 
ATOM     15  C   UNL     1      -3.041  11.128  17.833  0.00  0.00    +0.000 A 
ATOM     16  C   UNL     1      -4.149  11.543  18.610  0.00  0.00    +0.000 A 
ATOM     17  C   UNL     1      -3.941  12.373  19.733  0.00  0.00    +0.000 A 
ATOM     18  C   UNL     1      -2.635  12.767  20.058  0.00  0.00    +0.000 A 
BRANCH  15  19
ATOM     19  O   UNL     1      -3.323  10.354  16.729  0.00  0.00    +0.000 OA
ATOM     20  C   UNL     1      -2.878  10.843  15.470  0.00  0.00    +0.000 C 
ENDBRANCH  15  19
BRANCH  16  21
ATOM     21  O   UNL     1      -5.378  11.141  18.134  0.00  0.00    +0.000 OA
ATOM     22  C   UNL     1      -6.138  12.086  17.393  0.00  0.00    +0.000 C 
ENDBRANCH  16  21
BRANCH  17  23
ATOM     23  O   UNL     1      -5.036  12.807  20.432  0.00  0.00    +0.000 OA
ATOM     24  C   UNL     1      -4.969  12.810  21.851  0.00  0.00    +0.000 C 
ENDBRANCH  17  23
ENDBRANCH   1  13
BRANCH   1  26
ATOM     25  N   UNL     1      -0.863  15.174  18.700  0.00  0.00    +0.000 N 
ATOM     26  C   UNL     1       0.159  14.264  18.866  0.00  0.00    +0.000 C 
ATOM     27  O   UNL     1       1.315  14.505  18.526  0.00  0.00    +0.000 OA
ATOM     28  H   UNL     1      -1.806  15.053  19.060  0.00  0.00    +0.000 HD
BRANCH  25  31
ATOM     29  C   UNL     1      -0.457  17.523  18.954  0.00  0.00    +0.000 C 
ATOM     30  O   UNL     1      -0.605  17.495  20.171  0.00  0.00    +0.000 OA
ATOM     31  N   UNL     1      -0.571  16.426  18.143  0.00  0.00    +0.000 N 
ATOM     32  H   UNL     1      -0.428  16.485  17.138  0.00  0.00    +0.000 HD
BRANCH  29  34
ATOM     33  C   UNL     1      -0.043  18.381  16.818  0.00  0.00    +0.000 C 
ATOM     34  O   UNL     1      -0.161  18.625  18.222  0.00  0.00    +0.000 OA
ENDBRANCH  29  34
ENDBRANCH  25  31
ENDBRANCH   1  26
TORSDOF 8
ENDMDL
MODEL 2
REMARK VINA RESULT:      -6.5      3.577      6.604
REMARK  Name = 
REMARK  12 active torsions:
REMARK  status: ('A' for Active; 'I' for Inactive)
REMARK    1  A    between atoms: C_1  and  O_2
REMARK    2  A    between atoms: O_2  and  C_3
REMARK    3  A    between atoms: N_5  and  N_6
REMARK    4  A    between atoms: C_7  and  C_9
REMARK    5  A    between atoms: C_9  and  C_21
REMARK    6  A    between atoms: C_10  and  C_11
REMARK    7  A    between atoms: C_23  and  O_24
REMARK    8  A    between atoms: O_24  and  C_25
REMARK    9  A    between atoms: C_26  and  O_27
REMARK   10  A    between atoms: O_27  and  C_28
REMARK   11  A    between atoms: C_29  and  O_30
REMARK   12  A    between atoms: O_30  and  C_31
REMARK                            x       y       z     vdW  Elec       q    Type
REMARK                         _______ _______ _______ _____ _____    ______ ____
ROOT
ATOM      1  C   UNL     1      -1.137  11.366  18.106  0.00  0.00    +0.000 C 
ATOM      2  C   UNL     1      -0.916  12.700  18.080  0.00  0.00    +0.000 C 
ENDROOT
BRANCH   2   3
ATOM      3  C   UNL     1       0.153  13.384  18.846  0.00  0.00    +0.000 A 
ATOM      4  C   UNL     1       1.426  13.474  18.260  0.00  0.00    +0.000 A 
ATOM      5  C   UNL     1       2.490  14.028  18.962  0.00  0.00    +0.000 A 
ATOM      6  C   UNL     1       2.292  14.513  20.253  0.00  0.00    +0.000 A 
ATOM      7  C   UNL     1       1.024  14.470  20.852  0.00  0.00    +0.000 A 
ATOM      8  C   UNL     1       0.838  14.986  22.146  0.00  0.00    +0.000 A 
ATOM      9  C   UNL     1      -0.416  14.962  22.754  0.00  0.00    +0.000 A 
ATOM     10  C   UNL     1      -1.499  14.412  22.080  0.00  0.00    +0.000 A 
ATOM     11  C   UNL     1      -1.329  13.888  20.797  0.00  0.00    +0.000 A 
ATOM     12  C   UNL     1      -0.070  13.905  20.151  0.00  0.00    +0.000 A 
ENDBRANCH   2   3
BRANCH   1  13
ATOM     13  C   UNL     1      -0.295  10.492  18.956  0.00  0.00    +0.000 A 
ATOM     14  C   UNL     1       0.827   9.844  18.431  0.00  0.00    +0.000 A 
ATOM     15  C   UNL     1       1.518   8.896  19.192  0.00  0.00    +0.000 A 
ATOM     16  C   UNL     1       1.091   8.593  20.507  0.00  0.00    +0.000 A 
ATOM     17  C   UNL     1      -0.030   9.259  21.046  0.00  0.00    +0.000 A 
ATOM     18  C   UNL     1      -0.698  10.214  20.266  0.00  0.00    +0.000 A 
BRANCH  15  19
ATOM     19  O   UNL     1       2.592   8.178  18.715  0.00  0.00    +0.000 OA
ATOM     20  C   UNL     1       2.580   7.840  17.335  0.00  0.00    +0.000 C 
ENDBRANCH  15  19
BRANCH  16  21
ATOM     21  O   UNL     1       1.795   7.586  21.130  0.00  0.00    +0.000 OA
ATOM     22  C   UNL     1       1.435   6.245  20.824  0.00  0.00    +0.000 C 
ENDBRANCH  16  21
BRANCH  17  23
ATOM     23  O   UNL     1      -0.455   8.904  22.299  0.00  0.00    +0.000 OA
ATOM     24  C   UNL     1      -0.742   9.940  23.229  0.00  0.00    +0.000 C 
ENDBRANCH  17  23
ENDBRANCH   1  13
BRANCH   1  26
ATOM     25  N   UNL     1      -2.750  11.480  16.267  0.00  0.00    +0.000 N 
ATOM     26  C   UNL     1      -2.271  10.747  17.331  0.00  0.00    +0.000 C 
ATOM     27  O   UNL     1      -2.709   9.633  17.611  0.00  0.00    +0.000 OA
ATOM     28  H   UNL     1      -2.345  12.356  15.942  0.00  0.00    +0.000 HD
BRANCH  25  31
ATOM     29  C   UNL     1      -3.419  10.167  14.377  0.00  0.00    +0.000 C 
ATOM     30  O   UNL     1      -2.266   9.928  14.037  0.00  0.00    +0.000 OA
ATOM     31  N   UNL     1      -3.756  10.930  15.462  0.00  0.00    +0.000 N 
ATOM     32  H   UNL     1      -4.725  11.096  15.722  0.00  0.00    +0.000 HD
BRANCH  29  34
ATOM     33  C   UNL     1      -4.465   9.791  12.319  0.00  0.00    +0.000 C 
ATOM     34  O   UNL     1      -4.534   9.723  13.745  0.00  0.00    +0.000 OA
ENDBRANCH  29  34
ENDBRANCH  25  31
ENDBRANCH   1  26
TORSDOF 8
ENDMDL
MODEL 3
REMARK VINA RESULT:      -6.4      1.349      1.670
REMARK  Name = 
REMARK  12 active torsions:
REMARK  status: ('A' for Active; 'I' for Inactive)
REMARK    1  A    between atoms: C_1  and  O_2
REMARK    2  A    between atoms: O_2  and  C_3
REMARK    3  A    between atoms: N_5  and  N_6
REMARK    4  A    between atoms: C_7  and  C_9
REMARK    5  A    between atoms: C_9  and  C_21
REMARK    6  A    between atoms: C_10  and  C_11
REMARK    7  A    between atoms: C_23  and  O_24
REMARK    8  A    between atoms: O_24  and  C_25
REMARK    9  A    between atoms: C_26  and  O_27
REMARK   10  A    between atoms: O_27  and  C_28
REMARK   11  A    between atoms: C_29  and  O_30
REMARK   12  A    between atoms: O_30  and  C_31
REMARK                            x       y       z     vdW  Elec       q    Type
REMARK                         _______ _______ _______ _____ _____    ______ ____
ROOT
ATOM      1  C   UNL     1      -0.129  13.053  19.556  0.00  0.00    +0.000 C 
ATOM      2  C   UNL     1       0.852  12.364  20.181  0.00  0.00    +0.000 C 
ENDROOT
BRANCH   2   3
ATOM      3  C   UNL     1       0.734  10.951  20.615  0.00  0.00    +0.000 A 
ATOM      4  C   UNL     1       0.135  10.695  21.859  0.00  0.00    +0.000 A 
ATOM      5  C   UNL     1       0.072   9.400  22.359  0.00  0.00    +0.000 A 
ATOM      6  C   UNL     1       0.592   8.343  21.616  0.00  0.00    +0.000 A 
ATOM      7  C   UNL     1       1.166   8.562  20.355  0.00  0.00    +0.000 A 
ATOM      8  C   UNL     1       1.665   7.481  19.609  0.00  0.00    +0.000 A 
ATOM      9  C   UNL     1       2.228   7.677  18.350  0.00  0.00    +0.000 A 
ATOM     10  C   UNL     1       2.310   8.959  17.823  0.00  0.00    +0.000 A 
ATOM     11  C   UNL     1       1.825  10.046  18.554  0.00  0.00    +0.000 A 
ATOM     12  C   UNL     1       1.241   9.877  19.833  0.00  0.00    +0.000 A 
ENDBRANCH   2   3
BRANCH   1  13
ATOM     13  C   UNL     1      -1.433  12.404  19.285  0.00  0.00    +0.000 A 
ATOM     14  C   UNL     1      -1.594  11.544  18.194  0.00  0.00    +0.000 A 
ATOM     15  C   UNL     1      -2.862  11.066  17.849  0.00  0.00    +0.000 A 
ATOM     16  C   UNL     1      -3.994  11.443  18.612  0.00  0.00    +0.000 A 
ATOM     17  C   UNL     1      -3.832  12.296  19.724  0.00  0.00    +0.000 A 
ATOM     18  C   UNL     1      -2.547  12.751  20.055  0.00  0.00    +0.000 A 
BRANCH  15  19
ATOM     19  O   UNL     1      -3.100  10.267  16.753  0.00  0.00    +0.000 OA
ATOM     20  C   UNL     1      -2.820  10.825  15.477  0.00  0.00    +0.000 C 
ENDBRANCH  15  19
BRANCH  16  21
ATOM     21  O   UNL     1      -5.200  10.981  18.131  0.00  0.00    +0.000 OA
ATOM     22  C   UNL     1      -6.006  11.890  17.393  0.00  0.00    +0.000 C 
ENDBRANCH  16  21
BRANCH  17  23
ATOM     23  O   UNL     1      -4.951  12.691  20.409  0.00  0.00    +0.000 OA
ATOM     24  C   UNL     1      -5.303  14.068  20.383  0.00  0.00    +0.000 C 
ENDBRANCH  17  23
ENDBRANCH   1  13
BRANCH   1  26
ATOM     25  N   UNL     1       1.281  14.846  18.666  0.00  0.00    +0.000 N 
ATOM     26  C   UNL     1       0.050  14.501  19.181  0.00  0.00    +0.000 C 
ATOM     27  O   UNL     1      -0.867  15.312  19.290  0.00  0.00    +0.000 OA
ATOM     28  H   UNL     1       2.027  14.185  18.464  0.00  0.00    +0.000 HD
BRANCH  25  31
ATOM     29  C   UNL     1       2.624  16.477  17.535  0.00  0.00    +0.000 C 
ATOM     30  O   UNL     1       3.507  15.672  17.261  0.00  0.00    +0.000 OA
ATOM     31  N   UNL     1       1.489  16.162  18.231  0.00  0.00    +0.000 N 
ATOM     32  H   UNL     1       0.770  16.854  18.428  0.00  0.00    +0.000 HD
BRANCH  29  34
ATOM     33  C   UNL     1       1.331  18.399  17.215  0.00  0.00    +0.000 C 
ATOM     34  O   UNL     1       2.624  17.791  17.199  0.00  0.00    +0.000 OA
ENDBRANCH  29  34
ENDBRANCH  25  31
ENDBRANCH   1  26
TORSDOF 8
ENDMDL
MODEL 4
REMARK VINA RESULT:      -6.3      3.227      6.591
REMARK  Name = 
REMARK  12 active torsions:
REMARK  status: ('A' for Active; 'I' for Inactive)
REMARK    1  A    between atoms: C_1  and  O_2
REMARK    2  A    between atoms: O_2  and  C_3
REMARK    3  A    between atoms: N_5  and  N_6
REMARK    4  A    between atoms: C_7  and  C_9
REMARK    5  A    between atoms: C_9  and  C_21
REMARK    6  A    between atoms: C_10  and  C_11
REMARK    7  A    between atoms: C_23  and  O_24
REMARK    8  A    between atoms: O_24  and  C_25
REMARK    9  A    between atoms: C_26  and  O_27
REMARK   10  A    between atoms: O_27  and  C_28
REMARK   11  A    between atoms: C_29  and  O_30
REMARK   12  A    between atoms: O_30  and  C_31
REMARK                            x       y       z     vdW  Elec       q    Type
REMARK                         _______ _______ _______ _____ _____    ______ ____
ROOT
ATOM      1  C   UNL     1      -1.505  11.869  18.547  0.00  0.00    +0.000 C 
ATOM      2  C   UNL     1      -1.260  13.147  18.918  0.00  0.00    +0.000 C 
ENDROOT
BRANCH   2   3
ATOM      3  C   UNL     1      -0.199  13.550  19.874  0.00  0.00    +0.000 A 
ATOM      4  C   UNL     1      -0.558  13.714  21.221  0.00  0.00    +0.000 A 
ATOM      5  C   UNL     1       0.371  14.172  22.148  0.00  0.00    +0.000 A 
ATOM      6  C   UNL     1       1.673  14.457  21.744  0.00  0.00    +0.000 A 
ATOM      7  C   UNL     1       2.071  14.270  20.412  0.00  0.00    +0.000 A 
ATOM      8  C   UNL     1       3.395  14.540  20.026  0.00  0.00    +0.000 A 
ATOM      9  C   UNL     1       3.812  14.349  18.711  0.00  0.00    +0.000 A 
ATOM     10  C   UNL     1       2.908  13.895  17.759  0.00  0.00    +0.000 A 
ATOM     11  C   UNL     1       1.586  13.630  18.124  0.00  0.00    +0.000 A 
ATOM     12  C   UNL     1       1.135  13.806  19.454  0.00  0.00    +0.000 A 
ENDBRANCH   2   3
BRANCH   1  13
ATOM     13  C   UNL     1      -0.702  10.765  19.121  0.00  0.00    +0.000 A 
ATOM     14  C   UNL     1      -0.993  10.247  20.387  0.00  0.00    +0.000 A 
ATOM     15  C   UNL     1      -0.135   9.322  20.989  0.00  0.00    +0.000 A 
ATOM     16  C   UNL     1       1.033   8.893  20.314  0.00  0.00    +0.000 A 
ATOM     17  C   UNL     1       1.320   9.400  19.027  0.00  0.00    +0.000 A 
ATOM     18  C   UNL     1       0.436  10.317  18.442  0.00  0.00    +0.000 A 
BRANCH  15  19
ATOM     19  O   UNL     1      -0.329   8.820  22.256  0.00  0.00    +0.000 OA
ATOM     20  C   UNL     1      -0.251   9.743  23.334  0.00  0.00    +0.000 C 
ENDBRANCH  15  19
BRANCH  16  21
ATOM     21  O   UNL     1       1.845   8.046  21.036  0.00  0.00    +0.000 OA
ATOM     22  C   UNL     1       1.709   6.650  20.807  0.00  0.00    +0.000 C 
ENDBRANCH  16  21
BRANCH  17  23
ATOM     23  O   UNL     1       2.486   9.011  18.422  0.00  0.00    +0.000 OA
ATOM     24  C   UNL     1       2.444   7.904  17.532  0.00  0.00    +0.000 C 
ENDBRANCH  17  23
ENDBRANCH   1  13
BRANCH   1  26
ATOM     25  N   UNL     1      -2.365  11.706  16.260  0.00  0.00    +0.000 N 
ATOM     26  C   UNL     1      -2.628  11.533  17.603  0.00  0.00    +0.000 C 
ATOM     27  O   UNL     1      -3.700  11.089  18.009  0.00  0.00    +0.000 OA
ATOM     28  H   UNL     1      -1.459  11.973  15.881  0.00  0.00    +0.000 HD
BRANCH  25  31
ATOM     29  C   UNL     1      -3.254  10.142  14.677  0.00  0.00    +0.000 C 
ATOM     30  O   UNL     1      -2.349   9.334  14.851  0.00  0.00    +0.000 OA
ATOM     31  N   UNL     1      -3.343  11.344  15.325  0.00  0.00    +0.000 N 
ATOM     32  H   UNL     1      -4.117  11.985  15.166  0.00  0.00    +0.000 HD
BRANCH  29  34
ATOM     33  C   UNL     1      -3.923   9.778  12.466  0.00  0.00    +0.000 C 
ATOM     34  O   UNL     1      -4.301   9.982  13.830  0.00  0.00    +0.000 OA
ENDBRANCH  29  34
ENDBRANCH  25  31
ENDBRANCH   1  26
TORSDOF 8
ENDMDL
MODEL 5
REMARK VINA RESULT:      -6.3      3.460      7.009
REMARK  Name = 
REMARK  12 active torsions:
REMARK  status: ('A' for Active; 'I' for Inactive)
REMARK    1  A    between atoms: C_1  and  O_2
REMARK    2  A    between atoms: O_2  and  C_3
REMARK    3  A    between atoms: N_5  and  N_6
REMARK    4  A    between atoms: C_7  and  C_9
REMARK    5  A    between atoms: C_9  and  C_21
REMARK    6  A    between atoms: C_10  and  C_11
REMARK    7  A    between atoms: C_23  and  O_24
REMARK    8  A    between atoms: O_24  and  C_25
REMARK    9  A    between atoms: C_26  and  O_27
REMARK   10  A    between atoms: O_27  and  C_28
REMARK   11  A    between atoms: C_29  and  O_30
REMARK   12  A    between atoms: O_30  and  C_31
REMARK                            x       y       z     vdW  Elec       q    Type
REMARK                         _______ _______ _______ _____ _____    ______ ____
ROOT
ATOM      1  C   UNL     1       0.308  10.537  20.305  0.00  0.00    +0.000 C 
ATOM      2  C   UNL     1       1.365  11.376  20.396  0.00  0.00    +0.000 C 
ENDROOT
BRANCH   2   3
ATOM      3  C   UNL     1       1.400  12.741  19.817  0.00  0.00    +0.000 A 
ATOM      4  C   UNL     1       1.917  12.890  18.520  0.00  0.00    +0.000 A 
ATOM      5  C   UNL     1       2.055  14.153  17.955  0.00  0.00    +0.000 A 
ATOM      6  C   UNL     1       1.664  15.280  18.674  0.00  0.00    +0.000 A 
ATOM      7  C   UNL     1       1.112  15.161  19.958  0.00  0.00    +0.000 A 
ATOM      8  C   UNL     1       0.702  16.308  20.659  0.00  0.00    +0.000 A 
ATOM      9  C   UNL     1       0.142  16.209  21.931  0.00  0.00    +0.000 A 
ATOM     10  C   UNL     1      -0.007  14.962  22.524  0.00  0.00    +0.000 A 
ATOM     11  C   UNL     1       0.403  13.813  21.844  0.00  0.00    +0.000 A 
ATOM     12  C   UNL     1       0.968  13.881  20.548  0.00  0.00    +0.000 A 
ENDBRANCH   2   3
BRANCH   1  13
ATOM     13  C   UNL     1      -0.908  10.956  19.571  0.00  0.00    +0.000 A 
ATOM     14  C   UNL     1      -1.808  11.868  20.132  0.00  0.00    +0.000 A 
ATOM     15  C   UNL     1      -3.031  12.132  19.508  0.00  0.00    +0.000 A 
ATOM     16  C   UNL     1      -3.364  11.483  18.295  0.00  0.00    +0.000 A 
ATOM     17  C   UNL     1      -2.450  10.575  17.717  0.00  0.00    +0.000 A 
ATOM     18  C   UNL     1      -1.226  10.338  18.357  0.00  0.00    +0.000 A 
BRANCH  15  19
ATOM     19  O   UNL     1      -3.986  12.972  20.036  0.00  0.00    +0.000 OA
ATOM     20  C   UNL     1      -4.239  12.863  21.430  0.00  0.00    +0.000 C 
ENDBRANCH  15  19
BRANCH  16  21
ATOM     21  O   UNL     1      -4.627  11.756  17.816  0.00  0.00    +0.000 OA
ATOM     22  C   UNL     1      -5.677  10.873  18.188  0.00  0.00    +0.000 C 
ENDBRANCH  16  21
BRANCH  17  23
ATOM     23  O   UNL     1      -2.824   9.918  16.574  0.00  0.00    +0.000 OA
ATOM     24  C   UNL     1      -2.739  10.617  15.340  0.00  0.00    +0.000 C 
ENDBRANCH  17  23
ENDBRANCH   1  13
BRANCH   1  26
ATOM     25  N   UNL     1       1.431   8.369  20.494  0.00  0.00    +0.000 N 
ATOM     26  C   UNL     1       0.362   9.148  20.884  0.00  0.00    +0.000 C 
ATOM     27  O   UNL     1      -0.478   8.753  21.690  0.00  0.00    +0.000 OA
ATOM     28  H   UNL     1       2.199   8.696  19.912  0.00  0.00    +0.000 HD
BRANCH  25  31
ATOM     29  C   UNL     1       2.070   6.069  20.287  0.00  0.00    +0.000 C 
ATOM     30  O   UNL     1       2.393   6.184  19.110  0.00  0.00    +0.000 OA
ATOM     31  N   UNL     1       1.579   7.093  21.051  0.00  0.00    +0.000 N 
ATOM     32  H   UNL     1       1.335   6.963  22.030  0.00  0.00    +0.000 HD
BRANCH  29  34
ATOM     33  C   UNL     1       2.658   3.805  20.294  0.00  0.00    +0.000 C 
ATOM     34  O   UNL     1       2.146   4.928  21.016  0.00  0.00    +0.000 OA
ENDBRANCH  29  34
ENDBRANCH  25  31
ENDBRANCH   1  26
TORSDOF 8
ENDMDL
MODEL 6
REMARK VINA RESULT:      -6.2      1.270      2.764
REMARK  Name = 
REMARK  12 active torsions:
REMARK  status: ('A' for Active; 'I' for Inactive)
REMARK    1  A    between atoms: C_1  and  O_2
REMARK    2  A    between atoms: O_2  and  C_3
REMARK    3  A    between atoms: N_5  and  N_6
REMARK    4  A    between atoms: C_7  and  C_9
REMARK    5  A    between atoms: C_9  and  C_21
REMARK    6  A    between atoms: C_10  and  C_11
REMARK    7  A    between atoms: C_23  and  O_24
REMARK    8  A    between atoms: O_24  and  C_25
REMARK    9  A    between atoms: C_26  and  O_27
REMARK   10  A    between atoms: O_27  and  C_28
REMARK   11  A    between atoms: C_29  and  O_30
REMARK   12  A    between atoms: O_30  and  C_31
REMARK                            x       y       z     vdW  Elec       q    Type
REMARK                         _______ _______ _______ _____ _____    ______ ____
ROOT
ATOM      1  C   UNL     1      -0.517  13.675  19.982  0.00  0.00    +0.000 C 
ATOM      2  C   UNL     1       0.282  13.039  20.870  0.00  0.00    +0.000 C 
ENDROOT
BRANCH   2   3
ATOM      3  C   UNL     1      -0.008  11.704  21.448  0.00  0.00    +0.000 A 
ATOM      4  C   UNL     1      -0.766  11.651  22.629  0.00  0.00    +0.000 A 
ATOM      5  C   UNL     1      -0.998  10.437  23.264  0.00  0.00    +0.000 A 
ATOM      6  C   UNL     1      -0.490   9.260  22.719  0.00  0.00    +0.000 A 
ATOM      7  C   UNL     1       0.241   9.277  21.522  0.00  0.00    +0.000 A 
ATOM      8  C   UNL     1       0.727   8.077  20.975  0.00  0.00    +0.000 A 
ATOM      9  C   UNL     1       1.445   8.072  19.781  0.00  0.00    +0.000 A 
ATOM     10  C   UNL     1       1.697   9.269  19.123  0.00  0.00    +0.000 A 
ATOM     11  C   UNL     1       1.229  10.471  19.657  0.00  0.00    +0.000 A 
ATOM     12  C   UNL     1       0.490  10.507  20.864  0.00  0.00    +0.000 A 
ENDBRANCH   2   3
BRANCH   1  13
ATOM     13  C   UNL     1      -1.784  13.046  19.544  0.00  0.00    +0.000 A 
ATOM     14  C   UNL     1      -2.957  13.196  20.292  0.00  0.00    +0.000 A 
ATOM     15  C   UNL     1      -4.104  12.468  19.963  0.00  0.00    +0.000 A 
ATOM     16  C   UNL     1      -4.090  11.579  18.862  0.00  0.00    +0.000 A 
ATOM     17  C   UNL     1      -2.914  11.439  18.094  0.00  0.00    +0.000 A 
ATOM     18  C   UNL     1      -1.781  12.190  18.438  0.00  0.00    +0.000 A 
BRANCH  15  19
ATOM     19  O   UNL     1      -5.271  12.522  20.692  0.00  0.00    +0.000 OA
ATOM     20  C   UNL     1      -5.162  12.906  22.056  0.00  0.00    +0.000 C 
ENDBRANCH  15  19
BRANCH  16  21
ATOM     21  O   UNL     1      -5.249  10.854  18.684  0.00  0.00    +0.000 OA
ATOM     22  C   UNL     1      -6.223  11.380  17.794  0.00  0.00    +0.000 C 
ENDBRANCH  16  21
BRANCH  17  23
ATOM     23  O   UNL     1      -2.911  10.529  17.070  0.00  0.00    +0.000 OA
ATOM     24  C   UNL     1      -2.848  11.018  15.738  0.00  0.00    +0.000 C 
ENDBRANCH  17  23
ENDBRANCH   1  13
BRANCH   1  26
ATOM     25  N   UNL     1       1.120  15.232  19.038  0.00  0.00    +0.000 N 
ATOM     26  C   UNL     1      -0.176  15.049  19.471  0.00  0.00    +0.000 C 
ATOM     27  O   UNL     1      -1.022  15.939  19.404  0.00  0.00    +0.000 OA
ATOM     28  H   UNL     1       1.817  14.494  18.981  0.00  0.00    +0.000 HD
BRANCH  25  31
ATOM     29  C   UNL     1       2.516  16.535  17.590  0.00  0.00    +0.000 C 
ATOM     30  O   UNL     1       3.178  15.568  17.232  0.00  0.00    +0.000 OA
ATOM     31  N   UNL     1       1.482  16.467  18.485  0.00  0.00    +0.000 N 
ATOM     32  H   UNL     1       0.945  17.289  18.749  0.00  0.00    +0.000 HD
BRANCH  29  34
ATOM     33  C   UNL     1       1.549  18.382  16.529  0.00  0.00    +0.000 C 
ATOM     34  O   UNL     1       2.694  17.812  17.168  0.00  0.00    +0.000 OA
ENDBRANCH  29  34
ENDBRANCH  25  31
ENDBRANCH   1  26
TORSDOF 8
ENDMDL
MODEL 7
REMARK VINA RESULT:      -6.2      2.987      6.310
REMARK  Name = 
REMARK  12 active torsions:
REMARK  status: ('A' for Active; 'I' for Inactive)
REMARK    1  A    between atoms: C_1  and  O_2
REMARK    2  A    between atoms: O_2  and  C_3
REMARK    3  A    between atoms: N_5  and  N_6
REMARK    4  A    between atoms: C_7  and  C_9
REMARK    5  A    between atoms: C_9  and  C_21
REMARK    6  A    between atoms: C_10  and  C_11
REMARK    7  A    between atoms: C_23  and  O_24
REMARK    8  A    between atoms: O_24  and  C_25
REMARK    9  A    between atoms: C_26  and  O_27
REMARK   10  A    between atoms: O_27  and  C_28
REMARK   11  A    between atoms: C_29  and  O_30
REMARK   12  A    between atoms: O_30  and  C_31
REMARK                            x       y       z     vdW  Elec       q    Type
REMARK                         _______ _______ _______ _____ _____    ______ ____
ROOT
ATOM      1  C   UNL     1      -0.132  11.995  18.986  0.00  0.00    +0.000 C 
ATOM      2  C   UNL     1       0.845  12.887  18.703  0.00  0.00    +0.000 C 
ENDROOT
BRANCH   2   3
ATOM      3  C   UNL     1       1.257  13.987  19.608  0.00  0.00    +0.000 A 
ATOM      4  C   UNL     1       2.208  13.699  20.601  0.00  0.00    +0.000 A 
ATOM      5  C   UNL     1       2.572  14.665  21.532  0.00  0.00    +0.000 A 
ATOM      6  C   UNL     1       2.002  15.934  21.473  0.00  0.00    +0.000 A 
ATOM      7  C   UNL     1       1.076  16.263  20.472  0.00  0.00    +0.000 A 
ATOM      8  C   UNL     1       0.530  17.557  20.414  0.00  0.00    +0.000 A 
ATOM      9  C   UNL     1      -0.383  17.906  19.421  0.00  0.00    +0.000 A 
ATOM     10  C   UNL     1      -0.770  16.964  18.477  0.00  0.00    +0.000 A 
ATOM     11  C   UNL     1      -0.242  15.671  18.526  0.00  0.00    +0.000 A 
ATOM     12  C   UNL     1       0.693  15.289  19.518  0.00  0.00    +0.000 A 
ENDBRANCH   2   3
BRANCH   1  13
ATOM     13  C   UNL     1      -0.881  12.095  20.259  0.00  0.00    +0.000 A 
ATOM     14  C   UNL     1      -0.483  11.367  21.386  0.00  0.00    +0.000 A 
ATOM     15  C   UNL     1      -1.286  11.339  22.530  0.00  0.00    +0.000 A 
ATOM     16  C   UNL     1      -2.505  12.057  22.560  0.00  0.00    +0.000 A 
ATOM     17  C   UNL     1      -2.900  12.807  21.432  0.00  0.00    +0.000 A 
ATOM     18  C   UNL     1      -2.071  12.828  20.301  0.00  0.00    +0.000 A 
BRANCH  15  19
ATOM     19  O   UNL     1      -0.985  10.595  23.650  0.00  0.00    +0.000 OA
ATOM     20  C   UNL     1      -0.078   9.515  23.480  0.00  0.00    +0.000 C 
ENDBRANCH  15  19
BRANCH  16  21
ATOM     21  O   UNL     1      -3.252  11.888  23.706  0.00  0.00    +0.000 OA
ATOM     22  C   UNL     1      -3.556  13.048  24.470  0.00  0.00    +0.000 C 
ENDBRANCH  16  21
BRANCH  17  23
ATOM     23  O   UNL     1      -4.112  13.445  21.468  0.00  0.00    +0.000 OA
ATOM     24  C   UNL     1      -5.241  12.772  20.927  0.00  0.00    +0.000 C 
ENDBRANCH  17  23
ENDBRANCH   1  13
BRANCH   1  26
ATOM     25  N   UNL     1      -1.621  11.204  17.210  0.00  0.00    +0.000 N 
ATOM     26  C   UNL     1      -0.524  10.928  17.997  0.00  0.00    +0.000 C 
ATOM     27  O   UNL     1       0.128   9.893  17.874  0.00  0.00    +0.000 OA
ATOM     28  H   UNL     1      -2.122  12.090  17.211  0.00  0.00    +0.000 HD
BRANCH  25  31
ATOM     29  C   UNL     1      -2.978  10.610  15.326  0.00  0.00    +0.000 C 
ATOM     30  O   UNL     1      -3.582  11.676  15.327  0.00  0.00    +0.000 OA
ATOM     31  N   UNL     1      -1.996  10.285  16.222  0.00  0.00    +0.000 N 
ATOM     32  H   UNL     1      -1.505   9.395  16.182  0.00  0.00    +0.000 HD
BRANCH  29  34
ATOM     33  C   UNL     1      -3.963   9.947  13.311  0.00  0.00    +0.000 C 
ATOM     34  O   UNL     1      -3.177   9.593  14.451  0.00  0.00    +0.000 OA
ENDBRANCH  29  34
ENDBRANCH  25  31
ENDBRANCH   1  26
TORSDOF 8
ENDMDL
MODEL 8
REMARK VINA RESULT:      -6.1      3.362      6.584
REMARK  Name = 
REMARK  12 active torsions:
REMARK  status: ('A' for Active; 'I' for Inactive)
REMARK    1  A    between atoms: C_1  and  O_2
REMARK    2  A    between atoms: O_2  and  C_3
REMARK    3  A    between atoms: N_5  and  N_6
REMARK    4  A    between atoms: C_7  and  C_9
REMARK    5  A    between atoms: C_9  and  C_21
REMARK    6  A    between atoms: C_10  and  C_11
REMARK    7  A    between atoms: C_23  and  O_24
REMARK    8  A    between atoms: O_24  and  C_25
REMARK    9  A    between atoms: C_26  and  O_27
REMARK   10  A    between atoms: O_27  and  C_28
REMARK   11  A    between atoms: C_29  and  O_30
REMARK   12  A    between atoms: O_30  and  C_31
REMARK                            x       y       z     vdW  Elec       q    Type
REMARK                         _______ _______ _______ _____ _____    ______ ____
ROOT
ATOM      1  C   UNL     1       0.090  10.607  20.749  0.00  0.00    +0.000 C 
ATOM      2  C   UNL     1       0.966  11.516  21.233  0.00  0.00    +0.000 C 
ENDROOT
BRANCH   2   3
ATOM      3  C   UNL     1       0.849  12.981  21.028  0.00  0.00    +0.000 A 
ATOM      4  C   UNL     1       0.034  13.704  21.914  0.00  0.00    +0.000 A 
ATOM      5  C   UNL     1      -0.183  15.064  21.722  0.00  0.00    +0.000 A 
ATOM      6  C   UNL     1       0.423  15.720  20.654  0.00  0.00    +0.000 A 
ATOM      7  C   UNL     1       1.270  15.032  19.772  0.00  0.00    +0.000 A 
ATOM      8  C   UNL     1       1.891  15.715  18.713  0.00  0.00    +0.000 A 
ATOM      9  C   UNL     1       2.744  15.051  17.834  0.00  0.00    +0.000 A 
ATOM     10  C   UNL     1       2.980  13.692  17.995  0.00  0.00    +0.000 A 
ATOM     11  C   UNL     1       2.364  12.997  19.038  0.00  0.00    +0.000 A 
ATOM     12  C   UNL     1       1.499  13.645  19.951  0.00  0.00    +0.000 A 
ENDBRANCH   2   3
BRANCH   1  13
ATOM     13  C   UNL     1      -1.066  11.052  19.937  0.00  0.00    +0.000 A 
ATOM     14  C   UNL     1      -1.976  11.989  20.434  0.00  0.00    +0.000 A 
ATOM     15  C   UNL     1      -3.149  12.280  19.732  0.00  0.00    +0.000 A 
ATOM     16  C   UNL     1      -3.420  11.632  18.503  0.00  0.00    +0.000 A 
ATOM     17  C   UNL     1      -2.494  10.699  17.988  0.00  0.00    +0.000 A 
ATOM     18  C   UNL     1      -1.319  10.435  18.707  0.00  0.00    +0.000 A 
BRANCH  15  19
ATOM     19  O   UNL     1      -4.116  13.145  20.194  0.00  0.00    +0.000 OA
ATOM     20  C   UNL     1      -4.847  12.739  21.343  0.00  0.00    +0.000 C 
ENDBRANCH  15  19
BRANCH  16  21
ATOM     21  O   UNL     1      -4.642  11.934  17.942  0.00  0.00    +0.000 OA
ATOM     22  C   UNL     1      -5.699  11.001  18.127  0.00  0.00    +0.000 C 
ENDBRANCH  16  21
BRANCH  17  23
ATOM     23  O   UNL     1      -2.809  10.046  16.826  0.00  0.00    +0.000 OA
ATOM     24  C   UNL     1      -2.711  10.765  15.604  0.00  0.00    +0.000 C 
ENDBRANCH  17  23
ENDBRANCH   1  13
BRANCH   1  26
ATOM     25  N   UNL     1       1.465   8.602  20.455  0.00  0.00    +0.000 N 
ATOM     26  C   UNL     1       0.298   9.131  20.964  0.00  0.00    +0.000 C 
ATOM     27  O   UNL     1      -0.508   8.452  21.596  0.00  0.00    +0.000 OA
ATOM     28  H   UNL     1       2.203   9.150  20.018  0.00  0.00    +0.000 HD
BRANCH  25  31
ATOM     29  C   UNL     1       2.448   6.535  19.746  0.00  0.00    +0.000 C 
ATOM     30  O   UNL     1       2.842   6.998  18.681  0.00  0.00    +0.000 OA
ATOM     31  N   UNL     1       1.754   7.251  20.683  0.00  0.00    +0.000 N 
ATOM     32  H   UNL     1       1.455   6.836  21.563  0.00  0.00    +0.000 HD
BRANCH  29  34
ATOM     33  C   UNL     1       1.446   4.628  20.657  0.00  0.00    +0.000 C 
ATOM     34  O   UNL     1       2.631   5.258  20.165  0.00  0.00    +0.000 OA
ENDBRANCH  29  34
ENDBRANCH  25  31
ENDBRANCH   1  26
TORSDOF 8
ENDMDL
MODEL 9
REMARK VINA RESULT:      -6.0      3.018      6.240
REMARK  Name = 
REMARK  12 active torsions:
REMARK  status: ('A' for Active; 'I' for Inactive)
REMARK    1  A    between atoms: C_1  and  O_2
REMARK    2  A    between atoms: O_2  and  C_3
REMARK    3  A    between atoms: N_5  and  N_6
REMARK    4  A    between atoms: C_7  and  C_9
REMARK    5  A    between atoms: C_9  and  C_21
REMARK    6  A    between atoms: C_10  and  C_11
REMARK    7  A    between atoms: C_23  and  O_24
REMARK    8  A    between atoms: O_24  and  C_25
REMARK    9  A    between atoms: C_26  and  O_27
REMARK   10  A    between atoms: O_27  and  C_28
REMARK   11  A    between atoms: C_29  and  O_30
REMARK   12  A    between atoms: O_30  and  C_31
REMARK                            x       y       z     vdW  Elec       q    Type
REMARK                         _______ _______ _______ _____ _____    ______ ____
ROOT
ATOM      1  C   UNL     1      -0.988  12.766  18.822  0.00  0.00    +0.000 C 
ATOM      2  C   UNL     1      -0.183  13.786  18.446  0.00  0.00    +0.000 C 
ENDROOT
BRANCH   2   3
ATOM      3  C   UNL     1       0.152  14.946  19.307  0.00  0.00    +0.000 A 
ATOM      4  C   UNL     1      -0.662  16.087  19.218  0.00  0.00    +0.000 A 
ATOM      5  C   UNL     1      -0.350  17.236  19.936  0.00  0.00    +0.000 A 
ATOM      6  C   UNL     1       0.770  17.253  20.763  0.00  0.00    +0.000 A 
ATOM      7  C   UNL     1       1.583  16.119  20.900  0.00  0.00    +0.000 A 
ATOM      8  C   UNL     1       2.697  16.147  21.758  0.00  0.00    +0.000 A 
ATOM      9  C   UNL     1       3.509  15.027  21.916  0.00  0.00    +0.000 A 
ATOM     10  C   UNL     1       3.227  13.864  21.210  0.00  0.00    +0.000 A 
ATOM     11  C   UNL     1       2.129  13.822  20.348  0.00  0.00    +0.000 A 
ATOM     12  C   UNL     1       1.280  14.941  20.173  0.00  0.00    +0.000 A 
ENDBRANCH   2   3
BRANCH   1  13
ATOM     13  C   UNL     1      -1.615  12.774  20.163  0.00  0.00    +0.000 A 
ATOM     14  C   UNL     1      -2.628  13.685  20.478  0.00  0.00    +0.000 A 
ATOM     15  C   UNL     1      -3.098  13.796  21.790  0.00  0.00    +0.000 A 
ATOM     16  C   UNL     1      -2.559  12.977  22.810  0.00  0.00    +0.000 A 
ATOM     17  C   UNL     1      -1.549  12.042  22.492  0.00  0.00    +0.000 A 
ATOM     18  C   UNL     1      -1.104  11.943  21.166  0.00  0.00    +0.000 A 
BRANCH  15  19
ATOM     19  O   UNL     1      -4.049  14.714  22.180  0.00  0.00    +0.000 OA
ATOM     20  C   UNL     1      -4.593  15.548  21.166  0.00  0.00    +0.000 C 
ENDBRANCH  15  19
BRANCH  16  21
ATOM     21  O   UNL     1      -3.038  13.231  24.076  0.00  0.00    +0.000 OA
ATOM     22  C   UNL     1      -4.122  12.438  24.541  0.00  0.00    +0.000 C 
ENDBRANCH  16  21
BRANCH  17  23
ATOM     23  O   UNL     1      -1.005  11.303  23.509  0.00  0.00    +0.000 OA
ATOM     24  C   UNL     1      -0.599   9.970  23.227  0.00  0.00    +0.000 C 
ENDBRANCH  17  23
ENDBRANCH   1  13
BRANCH   1  26
ATOM     25  N   UNL     1      -2.022  11.988  16.743  0.00  0.00    +0.000 N 
ATOM     26  C   UNL     1      -1.316  11.642  17.876  0.00  0.00    +0.000 C 
ATOM     27  O   UNL     1      -0.935  10.492  18.085  0.00  0.00    +0.000 OA
ATOM     28  H   UNL     1      -2.265  12.942  16.485  0.00  0.00    +0.000 HD
BRANCH  25  31
ATOM     29  C   UNL     1      -3.588  10.590  15.586  0.00  0.00    +0.000 C 
ATOM     30  O   UNL     1      -4.552  11.026  16.205  0.00  0.00    +0.000 OA
ATOM     31  N   UNL     1      -2.298  11.002  15.788  0.00  0.00    +0.000 N 
ATOM     32  H   UNL     1      -1.523  10.628  15.245  0.00  0.00    +0.000 HD
BRANCH  29  34
ATOM     33  C   UNL     1      -4.131  10.120  13.360  0.00  0.00    +0.000 C 
ATOM     34  O   UNL     1      -3.637   9.645  14.615  0.00  0.00    +0.000 OA
ENDBRANCH  29  34
ENDBRANCH  25  31
ENDBRANCH   1  26
TORSDOF 8
ENDMDL
