MODEL 1
REMARK VINA RESULT:      -7.8      0.000      0.000
REMARK  Name = 
REMARK  6 active torsions:
REMARK  status: ('A' for Active; 'I' for Inactive)
REMARK    1  A    between atoms: C_1  and  S_2
REMARK    2  A    between atoms: S_2  and  C_3
REMARK    3  A    between atoms: C_6  and  N_7
REMARK    4  A    between atoms: N_7  and  C_8
REMARK    5  A    between atoms: N_7  and  C_9
REMARK    6  A    between atoms: C_11  and  C_12
REMARK                            x       y       z     vdW  Elec       q    Type
REMARK                         _______ _______ _______ _____ _____    ______ ____
ROOT
ATOM      1  C   UNL     1       5.369   4.359  18.127  0.00  0.00    +0.000 A 
ATOM      2  N   UNL     1       6.408   4.559  18.952  0.00  0.00    +0.000 NA
ATOM      3  C   UNL     1       7.550   4.958  18.402  0.00  0.00    +0.000 A 
ATOM      4  C   UNL     1       7.766   6.434  18.617  0.00  0.00    +0.000 C 
ATOM      5  N   UNL     1       7.944   4.614  17.187  0.00  0.00    +0.000 NA
ATOM      6  C   UNL     1       6.970   4.460  16.329  0.00  0.00    +0.000 A 
ATOM      7  C   UNL     1       7.451   4.639  15.028  0.00  0.00    +0.000 A 
ATOM      8  C   UNL     1       6.621   4.620  13.932  0.00  0.00    +0.000 A 
ATOM      9  C   UNL     1       5.286   4.323  14.147  0.00  0.00    +0.000 A 
ATOM     10  C   UNL     1       4.791   4.153  15.471  0.00  0.00    +0.000 A 
ATOM     11  C   UNL     1       5.605   4.301  16.662  0.00  0.00    +0.000 A 
ENDROOT
BRANCH   1  12
ATOM     12  N   UNL     1       4.134   4.390  18.829  0.00  0.00    +0.000 N 
ATOM     13  C   UNL     1       3.742   3.284  19.688  0.00  0.00    +0.000 C 
BRANCH  12  17
ATOM     14  C   UNL     1       1.833   8.051  19.473  0.00  0.00    +0.000 A 
ATOM     15  C   UNL     1       2.562   7.823  18.308  0.00  0.00    +0.000 A 
ATOM     16  C   UNL     1       3.277   6.613  18.113  0.00  0.00    +0.000 A 
ATOM     17  C   UNL     1       3.303   5.568  19.049  0.00  0.00    +0.000 A 
ATOM     18  C   UNL     1       2.535   5.790  20.216  0.00  0.00    +0.000 A 
ATOM     19  C   UNL     1       1.824   7.012  20.421  0.00  0.00    +0.000 A 
BRANCH  14  21
ATOM     20  C   UNL     1       0.124  10.096  18.309  0.00  0.00    +0.000 C 
ATOM     21  S   UNL     1       0.932   9.559  19.859  0.00  0.00    +0.000 S 
ENDBRANCH  14  21
ENDBRANCH  12  17
ENDBRANCH   1  12
TORSDOF 3
ENDMDL
MODEL 2
REMARK VINA RESULT:      -7.7      0.783      1.300
REMARK  Name = 
REMARK  6 active torsions:
REMARK  status: ('A' for Active; 'I' for Inactive)
REMARK    1  A    between atoms: C_1  and  S_2
REMARK    2  A    between atoms: S_2  and  C_3
REMARK    3  A    between atoms: C_6  and  N_7
REMARK    4  A    between atoms: N_7  and  C_8
REMARK    5  A    between atoms: N_7  and  C_9
REMARK    6  A    between atoms: C_11  and  C_12
REMARK                            x       y       z     vdW  Elec       q    Type
REMARK                         _______ _______ _______ _____ _____    ______ ____
ROOT
ATOM      1  C   UNL     1       5.208   4.734  18.226  0.00  0.00    +0.000 A 
ATOM      2  N   UNL     1       6.239   4.884  19.072  0.00  0.00    +0.000 NA
ATOM      3  C   UNL     1       7.435   5.101  18.536  0.00  0.00    +0.000 A 
ATOM      4  C   UNL     1       7.817   6.555  18.637  0.00  0.00    +0.000 C 
ATOM      5  N   UNL     1       7.822   4.612  17.369  0.00  0.00    +0.000 NA
ATOM      6  C   UNL     1       6.862   4.496  16.489  0.00  0.00    +0.000 A 
ATOM      7  C   UNL     1       7.398   4.507  15.197  0.00  0.00    +0.000 A 
ATOM      8  C   UNL     1       6.604   4.489  14.076  0.00  0.00    +0.000 A 
ATOM      9  C   UNL     1       5.238   4.366  14.262  0.00  0.00    +0.000 A 
ATOM     10  C   UNL     1       4.687   4.368  15.575  0.00  0.00    +0.000 A 
ATOM     11  C   UNL     1       5.479   4.523  16.781  0.00  0.00    +0.000 A 
ENDROOT
BRANCH   1  12
ATOM     12  N   UNL     1       3.965   4.965  18.874  0.00  0.00    +0.000 N 
ATOM     13  C   UNL     1       3.435   4.003  19.827  0.00  0.00    +0.000 C 
BRANCH  12  17
ATOM     14  C   UNL     1       1.651   8.667  19.105  0.00  0.00    +0.000 A 
ATOM     15  C   UNL     1       1.695   7.749  20.151  0.00  0.00    +0.000 A 
ATOM     16  C   UNL     1       2.477   6.569  20.060  0.00  0.00    +0.000 A 
ATOM     17  C   UNL     1       3.258   6.240  18.942  0.00  0.00    +0.000 A 
ATOM     18  C   UNL     1       3.236   7.191  17.895  0.00  0.00    +0.000 A 
ATOM     19  C   UNL     1       2.441   8.375  17.979  0.00  0.00    +0.000 A 
BRANCH  14  21
ATOM     20  C   UNL     1       0.818  10.927  20.736  0.00  0.00    +0.000 C 
ATOM     21  S   UNL     1       0.660  10.169  19.079  0.00  0.00    +0.000 S 
ENDBRANCH  14  21
ENDBRANCH  12  17
ENDBRANCH   1  12
TORSDOF 3
ENDMDL
MODEL 3
REMARK VINA RESULT:      -7.4      0.765      1.299
REMARK  Name = 
REMARK  6 active torsions:
REMARK  status: ('A' for Active; 'I' for Inactive)
REMARK    1  A    between atoms: C_1  and  S_2
REMARK    2  A    between atoms: S_2  and  C_3
REMARK    3  A    between atoms: C_6  and  N_7
REMARK    4  A    between atoms: N_7  and  C_8
REMARK    5  A    between atoms: N_7  and  C_9
REMARK    6  A    between atoms: C_11  and  C_12
REMARK                            x       y       z     vdW  Elec       q    Type
REMARK                         _______ _______ _______ _____ _____    ______ ____
ROOT
ATOM      1  C   UNL     1       5.299   4.134  17.690  0.00  0.00    +0.000 A 
ATOM      2  N   UNL     1       6.268   4.377  18.585  0.00  0.00    +0.000 NA
ATOM      3  C   UNL     1       7.405   4.887  18.123  0.00  0.00    +0.000 A 
ATOM      4  C   UNL     1       7.490   6.364  18.409  0.00  0.00    +0.000 C 
ATOM      5  N   UNL     1       7.896   4.630  16.922  0.00  0.00    +0.000 NA
ATOM      6  C   UNL     1       6.989   4.438  16.000  0.00  0.00    +0.000 A 
ATOM      7  C   UNL     1       7.529   4.712  14.739  0.00  0.00    +0.000 A 
ATOM      8  C   UNL     1       6.769   4.678  13.594  0.00  0.00    +0.000 A 
ATOM      9  C   UNL     1       5.452   4.269  13.714  0.00  0.00    +0.000 A 
ATOM     10  C   UNL     1       4.895   4.003  14.998  0.00  0.00    +0.000 A 
ATOM     11  C   UNL     1       5.624   4.160  16.242  0.00  0.00    +0.000 A 
ENDROOT
BRANCH   1  12
ATOM     12  N   UNL     1       4.026   4.038  18.315  0.00  0.00    +0.000 N 
ATOM     13  C   UNL     1       3.438   2.739  18.604  0.00  0.00    +0.000 C 
BRANCH  12  17
ATOM     14  C   UNL     1       1.741   7.147  20.370  0.00  0.00    +0.000 A 
ATOM     15  C   UNL     1       1.799   5.835  20.833  0.00  0.00    +0.000 A 
ATOM     16  C   UNL     1       2.572   4.853  20.162  0.00  0.00    +0.000 A 
ATOM     17  C   UNL     1       3.329   5.115  19.010  0.00  0.00    +0.000 A 
ATOM     18  C   UNL     1       3.292   6.455  18.561  0.00  0.00    +0.000 A 
ATOM     19  C   UNL     1       2.506   7.444  19.228  0.00  0.00    +0.000 A 
BRANCH  14  21
ATOM     20  C   UNL     1       0.579   9.755  19.815  0.00  0.00    +0.000 C 
ATOM     21  S   UNL     1       0.759   8.466  21.100  0.00  0.00    +0.000 S 
ENDBRANCH  14  21
ENDBRANCH  12  17
ENDBRANCH   1  12
TORSDOF 3
ENDMDL
MODEL 4
REMARK VINA RESULT:      -7.2      2.832      6.448
REMARK  Name = 
REMARK  6 active torsions:
REMARK  status: ('A' for Active; 'I' for Inactive)
REMARK    1  A    between atoms: C_1  and  S_2
REMARK    2  A    between atoms: S_2  and  C_3
REMARK    3  A    between atoms: C_6  and  N_7
REMARK    4  A    between atoms: N_7  and  C_8
REMARK    5  A    between atoms: N_7  and  C_9
REMARK    6  A    between atoms: C_11  and  C_12
REMARK                            x       y       z     vdW  Elec       q    Type
REMARK                         _______ _______ _______ _____ _____    ______ ____
ROOT
ATOM      1  C   UNL     1       4.991   4.350  19.134  0.00  0.00    +0.000 A 
ATOM      2  N   UNL     1       5.206   3.034  19.278  0.00  0.00    +0.000 NA
ATOM      3  C   UNL     1       4.172   2.289  19.655  0.00  0.00    +0.000 A 
ATOM      4  C   UNL     1       3.594   1.537  18.484  0.00  0.00    +0.000 C 
ATOM      5  N   UNL     1       3.199   2.720  20.441  0.00  0.00    +0.000 NA
ATOM      6  C   UNL     1       2.913   3.988  20.299  0.00  0.00    +0.000 A 
ATOM      7  C   UNL     1       1.600   4.228  20.716  0.00  0.00    +0.000 A 
ATOM      8  C   UNL     1       1.008   5.462  20.593  0.00  0.00    +0.000 A 
ATOM      9  C   UNL     1       1.790   6.502  20.120  0.00  0.00    +0.000 A 
ATOM     10  C   UNL     1       3.123   6.258  19.682  0.00  0.00    +0.000 A 
ATOM     11  C   UNL     1       3.740   4.945  19.667  0.00  0.00    +0.000 A 
ENDROOT
BRANCH   1  12
ATOM     12  N   UNL     1       5.985   4.954  18.316  0.00  0.00    +0.000 N 
ATOM     13  C   UNL     1       7.179   5.535  18.909  0.00  0.00    +0.000 C 
BRANCH  12  17
ATOM     14  C   UNL     1       6.336   4.254  14.015  0.00  0.00    +0.000 A 
ATOM     15  C   UNL     1       5.151   4.031  14.713  0.00  0.00    +0.000 A 
ATOM     16  C   UNL     1       5.057   4.294  16.104  0.00  0.00    +0.000 A 
ATOM     17  C   UNL     1       6.119   4.795  16.872  0.00  0.00    +0.000 A 
ATOM     18  C   UNL     1       7.310   5.050  16.154  0.00  0.00    +0.000 A 
ATOM     19  C   UNL     1       7.412   4.776  14.756  0.00  0.00    +0.000 A 
BRANCH  14  21
ATOM     20  C   UNL     1       5.494   2.516  11.840  0.00  0.00    +0.000 C 
ATOM     21  S   UNL     1       6.595   3.912  12.268  0.00  0.00    +0.000 S 
ENDBRANCH  14  21
ENDBRANCH  12  17
ENDBRANCH   1  12
TORSDOF 3
ENDMDL
MODEL 5
REMARK VINA RESULT:      -7.2      2.098      3.944
REMARK  Name = 
REMARK  6 active torsions:
REMARK  status: ('A' for Active; 'I' for Inactive)
REMARK    1  A    between atoms: C_1  and  S_2
REMARK    2  A    between atoms: S_2  and  C_3
REMARK    3  A    between atoms: C_6  and  N_7
REMARK    4  A    between atoms: N_7  and  C_8
REMARK    5  A    between atoms: N_7  and  C_9
REMARK    6  A    between atoms: C_11  and  C_12
REMARK                            x       y       z     vdW  Elec       q    Type
REMARK                         _______ _______ _______ _____ _____    ______ ____
ROOT
ATOM      1  C   UNL     1       3.649   5.806  18.851  0.00  0.00    +0.000 A 
ATOM      2  N   UNL     1       4.975   5.773  19.054  0.00  0.00    +0.000 NA
ATOM      3  C   UNL     1       5.562   4.581  19.028  0.00  0.00    +0.000 A 
ATOM      4  C   UNL     1       6.282   4.363  17.723  0.00  0.00    +0.000 C 
ATOM      5  N   UNL     1       4.975   3.461  19.415  0.00  0.00    +0.000 NA
ATOM      6  C   UNL     1       3.688   3.421  19.189  0.00  0.00    +0.000 A 
ATOM      7  C   UNL     1       3.261   2.092  19.108  0.00  0.00    +0.000 A 
ATOM      8  C   UNL     1       1.966   1.757  18.788  0.00  0.00    +0.000 A 
ATOM      9  C   UNL     1       1.059   2.791  18.636  0.00  0.00    +0.000 A 
ATOM     10  C   UNL     1       1.493   4.146  18.705  0.00  0.00    +0.000 A 
ATOM     11  C   UNL     1       2.874   4.541  18.903  0.00  0.00    +0.000 A 
ENDROOT
BRANCH   1  12
ATOM     12  N   UNL     1       3.216   7.099  18.450  0.00  0.00    +0.000 N 
ATOM     13  C   UNL     1       3.478   7.585  17.105  0.00  0.00    +0.000 C 
BRANCH  12  17
ATOM     14  C   UNL     1       0.417   9.762  20.496  0.00  0.00    +0.000 A 
ATOM     15  C   UNL     1       0.794   9.954  19.169  0.00  0.00    +0.000 A 
ATOM     16  C   UNL     1       1.682   9.057  18.521  0.00  0.00    +0.000 A 
ATOM     17  C   UNL     1       2.236   7.928  19.144  0.00  0.00    +0.000 A 
ATOM     18  C   UNL     1       1.825   7.720  20.481  0.00  0.00    +0.000 A 
ATOM     19  C   UNL     1       0.940   8.626  21.140  0.00  0.00    +0.000 A 
BRANCH  14  21
ATOM     20  C   UNL     1      -0.752  10.159  23.130  0.00  0.00    +0.000 C 
ATOM     21  S   UNL     1      -0.657  10.854  21.441  0.00  0.00    +0.000 S 
ENDBRANCH  14  21
ENDBRANCH  12  17
ENDBRANCH   1  12
TORSDOF 3
ENDMDL
MODEL 6
REMARK VINA RESULT:      -7.1      2.797      6.391
REMARK  Name = 
REMARK  6 active torsions:
REMARK  status: ('A' for Active; 'I' for Inactive)
REMARK    1  A    between atoms: C_1  and  S_2
REMARK    2  A    between atoms: S_2  and  C_3
REMARK    3  A    between atoms: C_6  and  N_7
REMARK    4  A    between atoms: N_7  and  C_8
REMARK    5  A    between atoms: N_7  and  C_9
REMARK    6  A    between atoms: C_11  and  C_12
REMARK                            x       y       z     vdW  Elec       q    Type
REMARK                         _______ _______ _______ _____ _____    ______ ____
ROOT
ATOM      1  C   UNL     1       4.988   4.546  19.091  0.00  0.00    +0.000 A 
ATOM      2  N   UNL     1       5.191   3.247  19.359  0.00  0.00    +0.000 NA
ATOM      3  C   UNL     1       4.162   2.563  19.850  0.00  0.00    +0.000 A 
ATOM      4  C   UNL     1       3.525   1.708  18.786  0.00  0.00    +0.000 C 
ATOM      5  N   UNL     1       3.230   3.089  20.628  0.00  0.00    +0.000 NA
ATOM      6  C   UNL     1       2.957   4.341  20.370  0.00  0.00    +0.000 A 
ATOM      7  C   UNL     1       1.667   4.647  20.814  0.00  0.00    +0.000 A 
ATOM      8  C   UNL     1       1.087   5.873  20.591  0.00  0.00    +0.000 A 
ATOM      9  C   UNL     1       1.864   6.845  19.984  0.00  0.00    +0.000 A 
ATOM     10  C   UNL     1       3.173   6.534  19.519  0.00  0.00    +0.000 A 
ATOM     11  C   UNL     1       3.770   5.215  19.612  0.00  0.00    +0.000 A 
ENDROOT
BRANCH   1  12
ATOM     12  N   UNL     1       5.956   5.045  18.177  0.00  0.00    +0.000 N 
ATOM     13  C   UNL     1       7.125   5.766  18.655  0.00  0.00    +0.000 C 
BRANCH  12  17
ATOM     14  C   UNL     1       6.389   4.098  13.932  0.00  0.00    +0.000 A 
ATOM     15  C   UNL     1       7.369   4.782  14.647  0.00  0.00    +0.000 A 
ATOM     16  C   UNL     1       7.215   5.051  16.031  0.00  0.00    +0.000 A 
ATOM     17  C   UNL     1       6.095   4.655  16.778  0.00  0.00    +0.000 A 
ATOM     18  C   UNL     1       5.118   3.932  16.055  0.00  0.00    +0.000 A 
ATOM     19  C   UNL     1       5.265   3.669  14.659  0.00  0.00    +0.000 A 
BRANCH  14  21
ATOM     20  C   UNL     1       4.763   3.203  11.692  0.00  0.00    +0.000 C 
ATOM     21  S   UNL     1       6.444   3.743  12.169  0.00  0.00    +0.000 S 
ENDBRANCH  14  21
ENDBRANCH  12  17
ENDBRANCH   1  12
TORSDOF 3
ENDMDL
MODEL 7
REMARK VINA RESULT:      -7.1      1.021      1.067
REMARK  Name = 
REMARK  6 active torsions:
REMARK  status: ('A' for Active; 'I' for Inactive)
REMARK    1  A    between atoms: C_1  and  S_2
REMARK    2  A    between atoms: S_2  and  C_3
REMARK    3  A    between atoms: C_6  and  N_7
REMARK    4  A    between atoms: N_7  and  C_8
REMARK    5  A    between atoms: N_7  and  C_9
REMARK    6  A    between atoms: C_11  and  C_12
REMARK                            x       y       z     vdW  Elec       q    Type
REMARK                         _______ _______ _______ _____ _____    ______ ____
ROOT
ATOM      1  C   UNL     1       5.099   4.351  17.206  0.00  0.00    +0.000 A 
ATOM      2  N   UNL     1       5.962   4.764  18.146  0.00  0.00    +0.000 NA
ATOM      3  C   UNL     1       7.103   5.302  17.727  0.00  0.00    +0.000 A 
ATOM      4  C   UNL     1       7.065   6.805  17.841  0.00  0.00    +0.000 C 
ATOM      5  N   UNL     1       7.721   4.948  16.613  0.00  0.00    +0.000 NA
ATOM      6  C   UNL     1       6.919   4.587  15.644  0.00  0.00    +0.000 A 
ATOM      7  C   UNL     1       7.558   4.755  14.412  0.00  0.00    +0.000 A 
ATOM      8  C   UNL     1       6.914   4.536  13.218  0.00  0.00    +0.000 A 
ATOM      9  C   UNL     1       5.620   4.046  13.270  0.00  0.00    +0.000 A 
ATOM     10  C   UNL     1       4.962   3.886  14.523  0.00  0.00    +0.000 A 
ATOM     11  C   UNL     1       5.558   4.236  15.798  0.00  0.00    +0.000 A 
ENDROOT
BRANCH   1  12
ATOM     12  N   UNL     1       3.781   4.231  17.724  0.00  0.00    +0.000 N 
ATOM     13  C   UNL     1       3.126   2.935  17.790  0.00  0.00    +0.000 C 
BRANCH  12  17
ATOM     14  C   UNL     1       1.865   7.365  20.095  0.00  0.00    +0.000 A 
ATOM     15  C   UNL     1       2.402   7.607  18.833  0.00  0.00    +0.000 A 
ATOM     16  C   UNL     1       2.992   6.565  18.073  0.00  0.00    +0.000 A 
ATOM     17  C   UNL     1       3.077   5.235  18.514  0.00  0.00    +0.000 A 
ATOM     18  C   UNL     1       2.503   4.987  19.782  0.00  0.00    +0.000 A 
ATOM     19  C   UNL     1       1.917   6.036  20.555  0.00  0.00    +0.000 A 
BRANCH  14  21
ATOM     20  C   UNL     1       0.758  10.054  20.122  0.00  0.00    +0.000 C 
ATOM     21  S   UNL     1       1.139   8.608  21.173  0.00  0.00    +0.000 S 
ENDBRANCH  14  21
ENDBRANCH  12  17
ENDBRANCH   1  12
TORSDOF 3
ENDMDL
MODEL 8
REMARK VINA RESULT:      -7.0      2.237      4.717
REMARK  Name = 
REMARK  6 active torsions:
REMARK  status: ('A' for Active; 'I' for Inactive)
REMARK    1  A    between atoms: C_1  and  S_2
REMARK    2  A    between atoms: S_2  and  C_3
REMARK    3  A    between atoms: C_6  and  N_7
REMARK    4  A    between atoms: N_7  and  C_8
REMARK    5  A    between atoms: N_7  and  C_9
REMARK    6  A    between atoms: C_11  and  C_12
REMARK                            x       y       z     vdW  Elec       q    Type
REMARK                         _______ _______ _______ _____ _____    ______ ____
ROOT
ATOM      1  C   UNL     1       3.099   6.386  19.131  0.00  0.00    +0.000 A 
ATOM      2  N   UNL     1       4.314   6.342  18.564  0.00  0.00    +0.000 NA
ATOM      3  C   UNL     1       4.832   5.139  18.335  0.00  0.00    +0.000 A 
ATOM      4  C   UNL     1       4.713   4.769  16.879  0.00  0.00    +0.000 C 
ATOM      5  N   UNL     1       4.602   4.080  19.092  0.00  0.00    +0.000 NA
ATOM      6  C   UNL     1       3.408   4.048  19.626  0.00  0.00    +0.000 A 
ATOM      7  C   UNL     1       3.058   2.729  19.929  0.00  0.00    +0.000 A 
ATOM      8  C   UNL     1       1.818   2.395  20.419  0.00  0.00    +0.000 A 
ATOM      9  C   UNL     1       0.941   3.429  20.695  0.00  0.00    +0.000 A 
ATOM     10  C   UNL     1       1.289   4.773  20.375  0.00  0.00    +0.000 A 
ATOM     11  C   UNL     1       2.532   5.153  19.731  0.00  0.00    +0.000 A 
ENDROOT
BRANCH   1  12
ATOM     12  N   UNL     1       2.469   7.641  18.912  0.00  0.00    +0.000 N 
ATOM     13  C   UNL     1       2.361   8.193  17.571  0.00  0.00    +0.000 C 
BRANCH  12  17
ATOM     14  C   UNL     1      -0.003   9.943  21.688  0.00  0.00    +0.000 A 
ATOM     15  C   UNL     1       0.011  10.193  20.318  0.00  0.00    +0.000 A 
ATOM     16  C   UNL     1       0.801   9.411  19.436  0.00  0.00    +0.000 A 
ATOM     17  C   UNL     1       1.608   8.344  19.858  0.00  0.00    +0.000 A 
ATOM     18  C   UNL     1       1.566   8.073  21.245  0.00  0.00    +0.000 A 
ATOM     19  C   UNL     1       0.781   8.865  22.137  0.00  0.00    +0.000 A 
BRANCH  14  21
ATOM     20  C   UNL     1      -0.835  12.642  22.383  0.00  0.00    +0.000 C 
ATOM     21  S   UNL     1      -0.919  10.892  22.910  0.00  0.00    +0.000 S 
ENDBRANCH  14  21
ENDBRANCH  12  17
ENDBRANCH   1  12
TORSDOF 3
ENDMDL
MODEL 9
REMARK VINA RESULT:      -7.0      1.906      3.279
REMARK  Name = 
REMARK  6 active torsions:
REMARK  status: ('A' for Active; 'I' for Inactive)
REMARK    1  A    between atoms: C_1  and  S_2
REMARK    2  A    between atoms: S_2  and  C_3
REMARK    3  A    between atoms: C_6  and  N_7
REMARK    4  A    between atoms: N_7  and  C_8
REMARK    5  A    between atoms: N_7  and  C_9
REMARK    6  A    between atoms: C_11  and  C_12
REMARK                            x       y       z     vdW  Elec       q    Type
REMARK                         _______ _______ _______ _____ _____    ______ ____
ROOT
ATOM      1  C   UNL     1       3.061   5.273  18.218  0.00  0.00    +0.000 A 
ATOM      2  N   UNL     1       2.369   4.168  17.902  0.00  0.00    +0.000 NA
ATOM      3  C   UNL     1       3.029   3.198  17.277  0.00  0.00    +0.000 A 
ATOM      4  C   UNL     1       3.373   2.080  18.228  0.00  0.00    +0.000 C 
ATOM      5  N   UNL     1       4.032   3.407  16.441  0.00  0.00    +0.000 NA
ATOM      6  C   UNL     1       4.772   4.444  16.737  0.00  0.00    +0.000 A 
ATOM      7  C   UNL     1       6.048   4.289  16.186  0.00  0.00    +0.000 A 
ATOM      8  C   UNL     1       7.059   5.192  16.416  0.00  0.00    +0.000 A 
ATOM      9  C   UNL     1       6.748   6.326  17.146  0.00  0.00    +0.000 A 
ATOM     10  C   UNL     1       5.453   6.481  17.720  0.00  0.00    +0.000 A 
ATOM     11  C   UNL     1       4.402   5.488  17.616  0.00  0.00    +0.000 A 
ENDROOT
BRANCH   1  12
ATOM     12  N   UNL     1       2.419   6.013  19.247  0.00  0.00    +0.000 N 
ATOM     13  C   UNL     1       2.371   5.504  20.608  0.00  0.00    +0.000 C 
BRANCH  12  17
ATOM     14  C   UNL     1       1.084  10.174  19.124  0.00  0.00    +0.000 A 
ATOM     15  C   UNL     1       1.068   9.420  20.294  0.00  0.00    +0.000 A 
ATOM     16  C   UNL     1       1.534   8.081  20.312  0.00  0.00    +0.000 A 
ATOM     17  C   UNL     1       2.044   7.422  19.183  0.00  0.00    +0.000 A 
ATOM     18  C   UNL     1       2.088   8.202  18.004  0.00  0.00    +0.000 A 
ATOM     19  C   UNL     1       1.609   9.547  17.980  0.00  0.00    +0.000 A 
BRANCH  14  21
ATOM     20  C   UNL     1      -1.246  11.736  18.354  0.00  0.00    +0.000 C 
ATOM     21  S   UNL     1       0.474  11.859  18.962  0.00  0.00    +0.000 S 
ENDBRANCH  14  21
ENDBRANCH  12  17
ENDBRANCH   1  12
TORSDOF 3
ENDMDL
