MODEL 1
REMARK VINA RESULT:      -6.4      0.000      0.000
REMARK  Name = 
REMARK  9 active torsions:
REMARK  status: ('A' for Active; 'I' for Inactive)
REMARK    1  A    between atoms: C_1  and  C_2
REMARK    2  A    between atoms: C_2  and  C_3
REMARK    3  A    between atoms: C_2  and  C_9
REMARK    4  A    between atoms: C_3  and  N_4
REMARK    5  A    between atoms: N_4  and  C_5
REMARK    6  A    between atoms: C_5  and  C_6
REMARK    7  A    between atoms: C_5  and  C_7
REMARK    8  A    between atoms: C_5  and  C_8
REMARK    9  A    between atoms: C_9  and  C_11
REMARK                            x       y       z     vdW  Elec       q    Type
REMARK                         _______ _______ _______ _____ _____    ______ ____
ROOT
ATOM      1  C   UNL     1       3.263   7.473  17.777  0.00  0.00    +0.000 C 
ATOM      2  C   UNL     1       4.162   6.283  17.434  0.00  0.00    +0.000 C 
ENDROOT
BRANCH   2   3
ATOM      3  C   UNL     1       4.345   5.354  18.634  0.00  0.00    +0.000 C 
ATOM      4  O   UNL     1       5.289   5.457  19.416  0.00  0.00    +0.000 OA
BRANCH   3   5
ATOM      5  C   UNL     1       3.361   4.256  18.873  0.00  0.00    +0.000 A 
ATOM      6  C   UNL     1       2.937   3.498  17.772  0.00  0.00    +0.000 A 
ATOM      7  C   UNL     1       2.003   2.476  17.931  0.00  0.00    +0.000 A 
ATOM      8  C   UNL     1       1.491   2.197  19.200  0.00  0.00    +0.000 A 
ATOM      9  C   UNL     1       1.926   2.934  20.298  0.00  0.00    +0.000 A 
ATOM     10 CL   UNL     1       1.304   2.578  21.863  0.00  0.00    +0.000 Cl
ATOM     11  C   UNL     1       2.860   3.961  20.147  0.00  0.00    +0.000 A 
ENDBRANCH   3   5
ENDBRANCH   2   3
BRANCH   2  12
ATOM     12  C   UNL     1       5.512   6.731  16.837  0.00  0.00    +0.000 C 
BRANCH  12  13
ATOM     13  N   UNL     1       5.738   6.351  15.436  0.00  0.00    +0.000 NA
ATOM     14  H   UNL     1       6.265   7.078  14.951  0.00  0.00    +0.000 HD
BRANCH  13  15
ATOM     15  C   UNL     1       6.395   5.040  15.234  0.00  0.00    +0.000 C 
ATOM     16  C   UNL     1       7.315   5.058  14.000  0.00  0.00    +0.000 C 
ATOM     17  C   UNL     1       7.273   4.758  16.471  0.00  0.00    +0.000 C 
ATOM     18  C   UNL     1       5.373   3.895  15.114  0.00  0.00    +0.000 C 
ENDBRANCH  13  15
ENDBRANCH  12  13
ENDBRANCH   2  12
TORSDOF 5
ENDMDL
MODEL 2
REMARK VINA RESULT:      -6.2      3.234      6.340
REMARK  Name = 
REMARK  9 active torsions:
REMARK  status: ('A' for Active; 'I' for Inactive)
REMARK    1  A    between atoms: C_1  and  C_2
REMARK    2  A    between atoms: C_2  and  C_3
REMARK    3  A    between atoms: C_2  and  C_9
REMARK    4  A    between atoms: C_3  and  N_4
REMARK    5  A    between atoms: N_4  and  C_5
REMARK    6  A    between atoms: C_5  and  C_6
REMARK    7  A    between atoms: C_5  and  C_7
REMARK    8  A    between atoms: C_5  and  C_8
REMARK    9  A    between atoms: C_9  and  C_11
REMARK                            x       y       z     vdW  Elec       q    Type
REMARK                         _______ _______ _______ _____ _____    ______ ____
ROOT
ATOM      1  C   UNL     1       5.017   6.458  16.113  0.00  0.00    +0.000 C 
ATOM      2  C   UNL     1       5.542   5.187  16.786  0.00  0.00    +0.000 C 
ENDROOT
BRANCH   2   3
ATOM      3  C   UNL     1       6.832   4.696  16.128  0.00  0.00    +0.000 C 
ATOM      4  O   UNL     1       7.843   4.423  16.772  0.00  0.00    +0.000 OA
BRANCH   3   5
ATOM      5  C   UNL     1       6.894   4.557  14.643  0.00  0.00    +0.000 A 
ATOM      6  C   UNL     1       7.789   5.375  13.939  0.00  0.00    +0.000 A 
ATOM      7  C   UNL     1       7.874   5.305  12.550  0.00  0.00    +0.000 A 
ATOM      8  C   UNL     1       7.068   4.404  11.851  0.00  0.00    +0.000 A 
ATOM      9  C   UNL     1       6.194   3.574  12.550  0.00  0.00    +0.000 A 
ATOM     10 CL   UNL     1       5.212   2.455  11.687  0.00  0.00    +0.000 Cl
ATOM     11  C   UNL     1       6.101   3.640  13.941  0.00  0.00    +0.000 A 
ENDBRANCH   3   5
ENDBRANCH   2   3
BRANCH   2  12
ATOM     12  C   UNL     1       4.468   4.082  16.853  0.00  0.00    +0.000 C 
BRANCH  12  13
ATOM     13  N   UNL     1       4.240   3.505  18.185  0.00  0.00    +0.000 NA
ATOM     14  H   UNL     1       4.910   3.883  18.855  0.00  0.00    +0.000 HD
BRANCH  13  15
ATOM     15  C   UNL     1       2.865   3.658  18.713  0.00  0.00    +0.000 C 
ATOM     16  C   UNL     1       2.855   4.471  20.020  0.00  0.00    +0.000 C 
ATOM     17  C   UNL     1       2.044   4.439  17.667  0.00  0.00    +0.000 C 
ATOM     18  C   UNL     1       2.177   2.298  18.932  0.00  0.00    +0.000 C 
ENDBRANCH  13  15
ENDBRANCH  12  13
ENDBRANCH   2  12
TORSDOF 5
ENDMDL
MODEL 3
REMARK VINA RESULT:      -6.2      3.224      6.149
REMARK  Name = 
REMARK  9 active torsions:
REMARK  status: ('A' for Active; 'I' for Inactive)
REMARK    1  A    between atoms: C_1  and  C_2
REMARK    2  A    between atoms: C_2  and  C_3
REMARK    3  A    between atoms: C_2  and  C_9
REMARK    4  A    between atoms: C_3  and  N_4
REMARK    5  A    between atoms: N_4  and  C_5
REMARK    6  A    between atoms: C_5  and  C_6
REMARK    7  A    between atoms: C_5  and  C_7
REMARK    8  A    between atoms: C_5  and  C_8
REMARK    9  A    between atoms: C_9  and  C_11
REMARK                            x       y       z     vdW  Elec       q    Type
REMARK                         _______ _______ _______ _____ _____    ______ ____
ROOT
ATOM      1  C   UNL     1       5.098   6.466  15.712  0.00  0.00    +0.000 C 
ATOM      2  C   UNL     1       6.060   5.892  16.755  0.00  0.00    +0.000 C 
ENDROOT
BRANCH   2   3
ATOM      3  C   UNL     1       7.046   4.907  16.127  0.00  0.00    +0.000 C 
ATOM      4  O   UNL     1       7.855   4.263  16.793  0.00  0.00    +0.000 OA
BRANCH   3   5
ATOM      5  C   UNL     1       7.058   4.721  14.646  0.00  0.00    +0.000 A 
ATOM      6  C   UNL     1       7.891   5.551  13.883  0.00  0.00    +0.000 A 
ATOM      7  C   UNL     1       7.927   5.437  12.494  0.00  0.00    +0.000 A 
ATOM      8  C   UNL     1       7.134   4.481  11.856  0.00  0.00    +0.000 A 
ATOM      9  C   UNL     1       6.322   3.641  12.614  0.00  0.00    +0.000 A 
ATOM     10 CL   UNL     1       5.356   2.454  11.826  0.00  0.00    +0.000 Cl
ATOM     11  C   UNL     1       6.279   3.749  14.005  0.00  0.00    +0.000 A 
ENDBRANCH   3   5
ENDBRANCH   2   3
BRANCH   2  12
ATOM     12  C   UNL     1       5.311   5.278  17.956  0.00  0.00    +0.000 C 
BRANCH  12  13
ATOM     13  N   UNL     1       5.062   3.832  17.870  0.00  0.00    +0.000 NA
ATOM     14  H   UNL     1       5.762   3.319  18.405  0.00  0.00    +0.000 HD
BRANCH  13  15
ATOM     15  C   UNL     1       3.706   3.399  18.277  0.00  0.00    +0.000 C 
ATOM     16  C   UNL     1       3.406   1.970  17.794  0.00  0.00    +0.000 C 
ATOM     17  C   UNL     1       3.656   3.396  19.819  0.00  0.00    +0.000 C 
ATOM     18  C   UNL     1       2.618   4.366  17.774  0.00  0.00    +0.000 C 
ENDBRANCH  13  15
ENDBRANCH  12  13
ENDBRANCH   2  12
TORSDOF 5
ENDMDL
MODEL 4
REMARK VINA RESULT:      -6.2      1.660      2.062
REMARK  Name = 
REMARK  9 active torsions:
REMARK  status: ('A' for Active; 'I' for Inactive)
REMARK    1  A    between atoms: C_1  and  C_2
REMARK    2  A    between atoms: C_2  and  C_3
REMARK    3  A    between atoms: C_2  and  C_9
REMARK    4  A    between atoms: C_3  and  N_4
REMARK    5  A    between atoms: N_4  and  C_5
REMARK    6  A    between atoms: C_5  and  C_6
REMARK    7  A    between atoms: C_5  and  C_7
REMARK    8  A    between atoms: C_5  and  C_8
REMARK    9  A    between atoms: C_9  and  C_11
REMARK                            x       y       z     vdW  Elec       q    Type
REMARK                         _______ _______ _______ _____ _____    ______ ____
ROOT
ATOM      1  C   UNL     1       2.520   8.566  17.814  0.00  0.00    +0.000 C 
ATOM      2  C   UNL     1       2.978   7.107  17.744  0.00  0.00    +0.000 C 
ENDROOT
BRANCH   2   3
ATOM      3  C   UNL     1       2.550   6.325  18.986  0.00  0.00    +0.000 C 
ATOM      4  O   UNL     1       2.169   6.875  20.019  0.00  0.00    +0.000 OA
BRANCH   3   5
ATOM      5  C   UNL     1       2.609   4.833  18.974  0.00  0.00    +0.000 A 
ATOM      6  C   UNL     1       1.696   4.143  18.164  0.00  0.00    +0.000 A 
ATOM      7  C   UNL     1       1.690   2.749  18.131  0.00  0.00    +0.000 A 
ATOM      8  C   UNL     1       2.607   2.033  18.902  0.00  0.00    +0.000 A 
ATOM      9  C   UNL     1       3.529   2.717  19.691  0.00  0.00    +0.000 A 
ATOM     10 CL   UNL     1       4.667   1.832  20.630  0.00  0.00    +0.000 Cl
ATOM     11  C   UNL     1       3.541   4.113  19.732  0.00  0.00    +0.000 A 
ENDBRANCH   3   5
ENDBRANCH   2   3
BRANCH   2  12
ATOM     12  C   UNL     1       4.494   6.989  17.478  0.00  0.00    +0.000 C 
BRANCH  12  13
ATOM     13  N   UNL     1       4.864   6.259  16.258  0.00  0.00    +0.000 NA
ATOM     14  H   UNL     1       5.247   6.901  15.563  0.00  0.00    +0.000 HD
BRANCH  13  15
ATOM     15  C   UNL     1       5.794   5.125  16.457  0.00  0.00    +0.000 C 
ATOM     16  C   UNL     1       6.444   5.171  17.851  0.00  0.00    +0.000 C 
ATOM     17  C   UNL     1       4.973   3.822  16.363  0.00  0.00    +0.000 C 
ATOM     18  C   UNL     1       6.882   5.074  15.369  0.00  0.00    +0.000 C 
ENDBRANCH  13  15
ENDBRANCH  12  13
ENDBRANCH   2  12
TORSDOF 5
ENDMDL
MODEL 5
REMARK VINA RESULT:      -6.2      2.893      5.856
REMARK  Name = 
REMARK  9 active torsions:
REMARK  status: ('A' for Active; 'I' for Inactive)
REMARK    1  A    between atoms: C_1  and  C_2
REMARK    2  A    between atoms: C_2  and  C_3
REMARK    3  A    between atoms: C_2  and  C_9
REMARK    4  A    between atoms: C_3  and  N_4
REMARK    5  A    between atoms: N_4  and  C_5
REMARK    6  A    between atoms: C_5  and  C_6
REMARK    7  A    between atoms: C_5  and  C_7
REMARK    8  A    between atoms: C_5  and  C_8
REMARK    9  A    between atoms: C_9  and  C_11
REMARK                            x       y       z     vdW  Elec       q    Type
REMARK                         _______ _______ _______ _____ _____    ______ ____
ROOT
ATOM      1  C   UNL     1       4.960   3.539  16.458  0.00  0.00    +0.000 C 
ATOM      2  C   UNL     1       3.702   4.061  17.156  0.00  0.00    +0.000 C 
ENDROOT
BRANCH   2   3
ATOM      3  C   UNL     1       3.927   5.450  17.754  0.00  0.00    +0.000 C 
ATOM      4  O   UNL     1       3.001   6.201  18.056  0.00  0.00    +0.000 OA
BRANCH   3   5
ATOM      5  C   UNL     1       5.320   5.943  17.968  0.00  0.00    +0.000 A 
ATOM      6  C   UNL     1       5.793   6.970  17.138  0.00  0.00    +0.000 A 
ATOM      7  C   UNL     1       7.092   7.454  17.277  0.00  0.00    +0.000 A 
ATOM      8  C   UNL     1       7.930   6.919  18.258  0.00  0.00    +0.000 A 
ATOM      9  C   UNL     1       7.456   5.913  19.097  0.00  0.00    +0.000 A 
ATOM     10 CL   UNL     1       8.486   5.265  20.314  0.00  0.00    +0.000 Cl
ATOM     11  C   UNL     1       6.156   5.422  18.964  0.00  0.00    +0.000 A 
ENDBRANCH   3   5
ENDBRANCH   2   3
BRANCH   2  12
ATOM     12  C   UNL     1       3.162   3.061  18.200  0.00  0.00    +0.000 C 
BRANCH  12  13
ATOM     13  N   UNL     1       3.178   3.533  19.591  0.00  0.00    +0.000 NA
ATOM     14  H   UNL     1       3.558   4.479  19.641  0.00  0.00    +0.000 HD
BRANCH  13  15
ATOM     15  C   UNL     1       1.875   3.479  20.292  0.00  0.00    +0.000 C 
ATOM     16  C   UNL     1       1.359   4.890  20.623  0.00  0.00    +0.000 C 
ATOM     17  C   UNL     1       0.857   2.816  19.341  0.00  0.00    +0.000 C 
ATOM     18  C   UNL     1       1.945   2.629  21.573  0.00  0.00    +0.000 C 
ENDBRANCH  13  15
ENDBRANCH  12  13
ENDBRANCH   2  12
TORSDOF 5
ENDMDL
MODEL 6
REMARK VINA RESULT:      -6.1      2.736      3.985
REMARK  Name = 
REMARK  9 active torsions:
REMARK  status: ('A' for Active; 'I' for Inactive)
REMARK    1  A    between atoms: C_1  and  C_2
REMARK    2  A    between atoms: C_2  and  C_3
REMARK    3  A    between atoms: C_2  and  C_9
REMARK    4  A    between atoms: C_3  and  N_4
REMARK    5  A    between atoms: N_4  and  C_5
REMARK    6  A    between atoms: C_5  and  C_6
REMARK    7  A    between atoms: C_5  and  C_7
REMARK    8  A    between atoms: C_5  and  C_8
REMARK    9  A    between atoms: C_9  and  C_11
REMARK                            x       y       z     vdW  Elec       q    Type
REMARK                         _______ _______ _______ _____ _____    ______ ____
ROOT
ATOM      1  C   UNL     1       1.486   4.039  18.187  0.00  0.00    +0.000 C 
ATOM      2  C   UNL     1       3.009   3.908  18.251  0.00  0.00    +0.000 C 
ENDROOT
BRANCH   2   3
ATOM      3  C   UNL     1       3.634   5.033  19.076  0.00  0.00    +0.000 C 
ATOM      4  O   UNL     1       4.772   4.963  19.539  0.00  0.00    +0.000 OA
BRANCH   3   5
ATOM      5  C   UNL     1       2.841   6.265  19.362  0.00  0.00    +0.000 A 
ATOM      6  C   UNL     1       2.148   6.336  20.579  0.00  0.00    +0.000 A 
ATOM      7  C   UNL     1       1.373   7.452  20.889  0.00  0.00    +0.000 A 
ATOM      8  C   UNL     1       1.294   8.515  19.986  0.00  0.00    +0.000 A 
ATOM      9  C   UNL     1       1.999   8.455  18.787  0.00  0.00    +0.000 A 
ATOM     10 CL   UNL     1       1.911   9.772  17.682  0.00  0.00    +0.000 Cl
ATOM     11  C   UNL     1       2.776   7.340  18.467  0.00  0.00    +0.000 A 
ENDBRANCH   3   5
ENDBRANCH   2   3
BRANCH   2  12
ATOM     12  C   UNL     1       3.640   3.798  16.848  0.00  0.00    +0.000 C 
BRANCH  12  13
ATOM     13  N   UNL     1       5.078   3.496  16.825  0.00  0.00    +0.000 NA
ATOM     14  H   UNL     1       5.236   2.547  16.487  0.00  0.00    +0.000 HD
BRANCH  13  15
ATOM     15  C   UNL     1       5.912   4.447  16.056  0.00  0.00    +0.000 C 
ATOM     16  C   UNL     1       5.227   5.819  15.931  0.00  0.00    +0.000 C 
ATOM     17  C   UNL     1       7.231   4.648  16.829  0.00  0.00    +0.000 C 
ATOM     18  C   UNL     1       6.265   3.904  14.659  0.00  0.00    +0.000 C 
ENDBRANCH  13  15
ENDBRANCH  12  13
ENDBRANCH   2  12
TORSDOF 5
ENDMDL
MODEL 7
REMARK VINA RESULT:      -6.1      2.015      2.881
REMARK  Name = 
REMARK  9 active torsions:
REMARK  status: ('A' for Active; 'I' for Inactive)
REMARK    1  A    between atoms: C_1  and  C_2
REMARK    2  A    between atoms: C_2  and  C_3
REMARK    3  A    between atoms: C_2  and  C_9
REMARK    4  A    between atoms: C_3  and  N_4
REMARK    5  A    between atoms: N_4  and  C_5
REMARK    6  A    between atoms: C_5  and  C_6
REMARK    7  A    between atoms: C_5  and  C_7
REMARK    8  A    between atoms: C_5  and  C_8
REMARK    9  A    between atoms: C_9  and  C_11
REMARK                            x       y       z     vdW  Elec       q    Type
REMARK                         _______ _______ _______ _____ _____    ______ ____
ROOT
ATOM      1  C   UNL     1       2.129   8.717  17.654  0.00  0.00    +0.000 C 
ATOM      2  C   UNL     1       2.762   7.364  17.987  0.00  0.00    +0.000 C 
ENDROOT
BRANCH   2   3
ATOM      3  C   UNL     1       2.329   6.865  19.365  0.00  0.00    +0.000 C 
ATOM      4  O   UNL     1       2.087   7.627  20.301  0.00  0.00    +0.000 OA
BRANCH   3   5
ATOM      5  C   UNL     1       2.208   5.398  19.614  0.00  0.00    +0.000 A 
ATOM      6  C   UNL     1       1.918   4.971  20.917  0.00  0.00    +0.000 A 
ATOM      7  C   UNL     1       1.816   3.612  21.213  0.00  0.00    +0.000 A 
ATOM      8  C   UNL     1       1.995   2.667  20.200  0.00  0.00    +0.000 A 
ATOM      9  C   UNL     1       2.263   3.090  18.900  0.00  0.00    +0.000 A 
ATOM     10 CL   UNL     1       2.469   1.924  17.652  0.00  0.00    +0.000 Cl
ATOM     11  C   UNL     1       2.368   4.449  18.596  0.00  0.00    +0.000 A 
ENDBRANCH   3   5
ENDBRANCH   2   3
BRANCH   2  12
ATOM     12  C   UNL     1       4.298   7.391  17.836  0.00  0.00    +0.000 C 
BRANCH  12  13
ATOM     13  N   UNL     1       4.876   6.279  17.070  0.00  0.00    +0.000 NA
ATOM     14  H   UNL     1       4.979   6.540  16.089  0.00  0.00    +0.000 HD
BRANCH  13  15
ATOM     15  C   UNL     1       6.161   5.756  17.586  0.00  0.00    +0.000 C 
ATOM     16  C   UNL     1       6.017   5.239  19.028  0.00  0.00    +0.000 C 
ATOM     17  C   UNL     1       6.573   4.564  16.698  0.00  0.00    +0.000 C 
ATOM     18  C   UNL     1       7.283   6.808  17.511  0.00  0.00    +0.000 C 
ENDBRANCH  13  15
ENDBRANCH  12  13
ENDBRANCH   2  12
TORSDOF 5
ENDMDL
MODEL 8
REMARK VINA RESULT:      -6.1      2.859      5.814
REMARK  Name = 
REMARK  9 active torsions:
REMARK  status: ('A' for Active; 'I' for Inactive)
REMARK    1  A    between atoms: C_1  and  C_2
REMARK    2  A    between atoms: C_2  and  C_3
REMARK    3  A    between atoms: C_2  and  C_9
REMARK    4  A    between atoms: C_3  and  N_4
REMARK    5  A    between atoms: N_4  and  C_5
REMARK    6  A    between atoms: C_5  and  C_6
REMARK    7  A    between atoms: C_5  and  C_7
REMARK    8  A    between atoms: C_5  and  C_8
REMARK    9  A    between atoms: C_9  and  C_11
REMARK                            x       y       z     vdW  Elec       q    Type
REMARK                         _______ _______ _______ _____ _____    ______ ____
ROOT
ATOM      1  C   UNL     1       4.997   3.622  16.434  0.00  0.00    +0.000 C 
ATOM      2  C   UNL     1       3.711   4.175  17.055  0.00  0.00    +0.000 C 
ENDROOT
BRANCH   2   3
ATOM      3  C   UNL     1       3.942   5.543  17.697  0.00  0.00    +0.000 C 
ATOM      4  O   UNL     1       3.018   6.292  18.012  0.00  0.00    +0.000 OA
BRANCH   3   5
ATOM      5  C   UNL     1       5.336   6.017  17.939  0.00  0.00    +0.000 A 
ATOM      6  C   UNL     1       5.832   7.050  17.132  0.00  0.00    +0.000 A 
ATOM      7  C   UNL     1       7.135   7.518  17.298  0.00  0.00    +0.000 A 
ATOM      8  C   UNL     1       7.951   6.960  18.284  0.00  0.00    +0.000 A 
ATOM      9  C   UNL     1       7.453   5.948  19.101  0.00  0.00    +0.000 A 
ATOM     10 CL   UNL     1       8.457   5.272  20.325  0.00  0.00    +0.000 Cl
ATOM     11  C   UNL     1       6.151   5.473  18.941  0.00  0.00    +0.000 A 
ENDBRANCH   3   5
ENDBRANCH   2   3
BRANCH   2  12
ATOM     12  C   UNL     1       3.067   3.174  18.037  0.00  0.00    +0.000 C 
BRANCH  12  13
ATOM     13  N   UNL     1       3.164   3.535  19.457  0.00  0.00    +0.000 NA
ATOM     14  H   UNL     1       3.597   4.453  19.562  0.00  0.00    +0.000 HD
BRANCH  13  15
ATOM     15  C   UNL     1       1.888   3.497  20.208  0.00  0.00    +0.000 C 
ATOM     16  C   UNL     1       0.783   2.793  19.400  0.00  0.00    +0.000 C 
ATOM     17  C   UNL     1       2.124   2.678  21.494  0.00  0.00    +0.000 C 
ATOM     18  C   UNL     1       1.423   4.904  20.625  0.00  0.00    +0.000 C 
ENDBRANCH  13  15
ENDBRANCH  12  13
ENDBRANCH   2  12
TORSDOF 5
ENDMDL
MODEL 9
REMARK VINA RESULT:      -6.1      2.179      2.809
REMARK  Name = 
REMARK  9 active torsions:
REMARK  status: ('A' for Active; 'I' for Inactive)
REMARK    1  A    between atoms: C_1  and  C_2
REMARK    2  A    between atoms: C_2  and  C_3
REMARK    3  A    between atoms: C_2  and  C_9
REMARK    4  A    between atoms: C_3  and  N_4
REMARK    5  A    between atoms: N_4  and  C_5
REMARK    6  A    between atoms: C_5  and  C_6
REMARK    7  A    between atoms: C_5  and  C_7
REMARK    8  A    between atoms: C_5  and  C_8
REMARK    9  A    between atoms: C_9  and  C_11
REMARK                            x       y       z     vdW  Elec       q    Type
REMARK                         _______ _______ _______ _____ _____    ______ ____
ROOT
ATOM      1  C   UNL     1       5.238   6.383  15.335  0.00  0.00    +0.000 C 
ATOM      2  C   UNL     1       5.355   4.863  15.474  0.00  0.00    +0.000 C 
ENDROOT
BRANCH   2   3
ATOM      3  C   UNL     1       5.423   4.438  16.940  0.00  0.00    +0.000 C 
ATOM      4  O   UNL     1       6.484   4.350  17.557  0.00  0.00    +0.000 OA
BRANCH   3   5
ATOM      5  C   UNL     1       4.166   4.090  17.665  0.00  0.00    +0.000 A 
ATOM      6  C   UNL     1       3.512   2.898  17.320  0.00  0.00    +0.000 A 
ATOM      7  C   UNL     1       2.322   2.534  17.947  0.00  0.00    +0.000 A 
ATOM      8  C   UNL     1       1.780   3.356  18.937  0.00  0.00    +0.000 A 
ATOM      9  C   UNL     1       2.439   4.530  19.297  0.00  0.00    +0.000 A 
ATOM     10 CL   UNL     1       1.775   5.534  20.526  0.00  0.00    +0.000 Cl
ATOM     11  C   UNL     1       3.630   4.903  18.672  0.00  0.00    +0.000 A 
ENDBRANCH   3   5
ENDBRANCH   2   3
BRANCH   2  12
ATOM     12  C   UNL     1       6.531   4.296  14.650  0.00  0.00    +0.000 C 
BRANCH  12  13
ATOM     13  N   UNL     1       6.206   3.141  13.802  0.00  0.00    +0.000 NA
ATOM     14  H   UNL     1       5.315   2.732  14.085  0.00  0.00    +0.000 HD
BRANCH  13  15
ATOM     15  C   UNL     1       6.192   3.410  12.346  0.00  0.00    +0.000 C 
ATOM     16  C   UNL     1       7.099   4.600  11.987  0.00  0.00    +0.000 C 
ATOM     17  C   UNL     1       6.749   2.161  11.632  0.00  0.00    +0.000 C 
ATOM     18  C   UNL     1       4.766   3.655  11.819  0.00  0.00    +0.000 C 
ENDBRANCH  13  15
ENDBRANCH  12  13
ENDBRANCH   2  12
TORSDOF 5
ENDMDL
