MODEL 1
REMARK VINA RESULT:      -7.0      0.000      0.000
REMARK  Name = 
REMARK  6 active torsions:
REMARK  status: ('A' for Active; 'I' for Inactive)
REMARK    1  A    between atoms: C_1  and  C_2
REMARK    2  A    between atoms: C_5  and  C_6
REMARK    3  A    between atoms: C_6  and  C_7
REMARK    4  A    between atoms: C_7  and  C_9
REMARK    5  A    between atoms: C_12  and  O_13
REMARK    6  A    between atoms: C_15  and  O_16
REMARK                            x       y       z     vdW  Elec       q    Type
REMARK                         _______ _______ _______ _____ _____    ______ ____
ROOT
ATOM      1  C   UNL     1       3.680   4.029  17.945  0.00  0.00    +0.000 A 
ATOM      2  C   UNL     1       2.363   4.475  17.726  0.00  0.00    +0.000 A 
ATOM      3  C   UNL     1       1.332   4.142  18.613  0.00  0.00    +0.000 A 
ATOM      4  C   UNL     1       1.621   3.364  19.727  0.00  0.00    +0.000 A 
ATOM      5  C   UNL     1       2.917   2.923  19.969  0.00  0.00    +0.000 A 
ATOM      6  C   UNL     1       3.940   3.240  19.071  0.00  0.00    +0.000 A 
ENDROOT
BRANCH   1   7
ATOM      7  C   UNL     1       4.695   4.373  16.899  0.00  0.00    +0.000 C 
ATOM      8  O   UNL     1       5.314   3.445  16.371  0.00  0.00    +0.000 OA
BRANCH   7   9
ATOM      9  C   UNL     1       4.941   5.802  16.467  0.00  0.00    +0.000 C 
BRANCH   9  14
ATOM     10  C   UNL     1       8.265   9.155  17.914  0.00  0.00    +0.000 C 
ATOM     11  C   UNL     1       7.663   7.799  17.867  0.00  0.00    +0.000 A 
ATOM     12  C   UNL     1       8.060   6.693  18.592  0.00  0.00    +0.000 A 
ATOM     13  S   UNL     1       7.053   5.357  18.232  0.00  0.00    +0.000 S 
ATOM     14  C   UNL     1       6.156   6.341  17.141  0.00  0.00    +0.000 A 
ATOM     15  N   UNL     1       6.577   7.585  17.033  0.00  0.00    +0.000 NA
ENDBRANCH   9  14
ENDBRANCH   7   9
ENDBRANCH   1   7
BRANCH   4  16
ATOM     16  O   UNL     1       0.653   2.984  20.607  0.00  0.00    +0.000 OA
ATOM     17  H   UNL     1       0.998   2.263  21.160  0.00  0.00    +0.000 HD
ENDBRANCH   4  16
BRANCH   6  18
ATOM     18  O   UNL     1       5.174   2.700  19.287  0.00  0.00    +0.000 OA
ATOM     19  H   UNL     1       5.191   2.275  20.162  0.00  0.00    +0.000 HD
ENDBRANCH   6  18
TORSDOF 5
ENDMDL
MODEL 2
REMARK VINA RESULT:      -6.9      1.916      2.182
REMARK  Name = 
REMARK  6 active torsions:
REMARK  status: ('A' for Active; 'I' for Inactive)
REMARK    1  A    between atoms: C_1  and  C_2
REMARK    2  A    between atoms: C_5  and  C_6
REMARK    3  A    between atoms: C_6  and  C_7
REMARK    4  A    between atoms: C_7  and  C_9
REMARK    5  A    between atoms: C_12  and  O_13
REMARK    6  A    between atoms: C_15  and  O_16
REMARK                            x       y       z     vdW  Elec       q    Type
REMARK                         _______ _______ _______ _____ _____    ______ ____
ROOT
ATOM      1  C   UNL     1       2.653   5.618  18.438  0.00  0.00    +0.000 A 
ATOM      2  C   UNL     1       2.356   4.341  17.927  0.00  0.00    +0.000 A 
ATOM      3  C   UNL     1       1.648   3.404  18.690  0.00  0.00    +0.000 A 
ATOM      4  C   UNL     1       1.230   3.750  19.969  0.00  0.00    +0.000 A 
ATOM      5  C   UNL     1       1.502   5.010  20.489  0.00  0.00    +0.000 A 
ATOM      6  C   UNL     1       2.227   5.935  19.733  0.00  0.00    +0.000 A 
ENDROOT
BRANCH   1   7
ATOM      7  C   UNL     1       3.481   6.518  17.575  0.00  0.00    +0.000 C 
ATOM      8  O   UNL     1       3.233   7.727  17.599  0.00  0.00    +0.000 OA
BRANCH   7   9
ATOM      9  C   UNL     1       4.613   5.985  16.723  0.00  0.00    +0.000 C 
BRANCH   9  14
ATOM     10  C   UNL     1       8.437   8.874  17.915  0.00  0.00    +0.000 C 
ATOM     11  C   UNL     1       7.655   7.611  17.931  0.00  0.00    +0.000 A 
ATOM     12  C   UNL     1       7.939   6.471  18.656  0.00  0.00    +0.000 A 
ATOM     13  S   UNL     1       6.742   5.281  18.380  0.00  0.00    +0.000 S 
ATOM     14  C   UNL     1       5.926   6.363  17.319  0.00  0.00    +0.000 A 
ATOM     15  N   UNL     1       6.505   7.536  17.161  0.00  0.00    +0.000 NA
ENDBRANCH   9  14
ENDBRANCH   7   9
ENDBRANCH   1   7
BRANCH   4  16
ATOM     16  O   UNL     1       0.564   2.871  20.768  0.00  0.00    +0.000 OA
ATOM     17  H   UNL     1      -0.098   3.358  21.287  0.00  0.00    +0.000 HD
ENDBRANCH   4  16
BRANCH   6  18
ATOM     18  O   UNL     1       2.566   7.119  20.319  0.00  0.00    +0.000 OA
ATOM     19  H   UNL     1       3.226   6.958  21.014  0.00  0.00    +0.000 HD
ENDBRANCH   6  18
TORSDOF 5
ENDMDL
MODEL 3
REMARK VINA RESULT:      -6.9      2.119      2.796
REMARK  Name = 
REMARK  6 active torsions:
REMARK  status: ('A' for Active; 'I' for Inactive)
REMARK    1  A    between atoms: C_1  and  C_2
REMARK    2  A    between atoms: C_5  and  C_6
REMARK    3  A    between atoms: C_6  and  C_7
REMARK    4  A    between atoms: C_7  and  C_9
REMARK    5  A    between atoms: C_12  and  O_13
REMARK    6  A    between atoms: C_15  and  O_16
REMARK                            x       y       z     vdW  Elec       q    Type
REMARK                         _______ _______ _______ _____ _____    ______ ____
ROOT
ATOM      1  C   UNL     1       4.278   4.652  19.470  0.00  0.00    +0.000 A 
ATOM      2  C   UNL     1       3.174   5.502  19.671  0.00  0.00    +0.000 A 
ATOM      3  C   UNL     1       1.959   5.005  20.158  0.00  0.00    +0.000 A 
ATOM      4  C   UNL     1       1.850   3.652  20.452  0.00  0.00    +0.000 A 
ATOM      5  C   UNL     1       2.931   2.796  20.273  0.00  0.00    +0.000 A 
ATOM      6  C   UNL     1       4.136   3.292  19.767  0.00  0.00    +0.000 A 
ENDROOT
BRANCH   1   7
ATOM      7  C   UNL     1       5.506   5.265  18.872  0.00  0.00    +0.000 C 
ATOM      8  O   UNL     1       6.598   4.959  19.360  0.00  0.00    +0.000 OA
BRANCH   7   9
ATOM      9  C   UNL     1       5.433   6.202  17.686  0.00  0.00    +0.000 C 
BRANCH   9  14
ATOM     10  C   UNL     1       7.776   5.252  13.444  0.00  0.00    +0.000 C 
ATOM     11  C   UNL     1       6.823   4.957  14.544  0.00  0.00    +0.000 A 
ATOM     12  C   UNL     1       6.092   3.798  14.715  0.00  0.00    +0.000 A 
ATOM     13  S   UNL     1       5.150   3.899  16.140  0.00  0.00    +0.000 S 
ATOM     14  C   UNL     1       5.781   5.472  16.433  0.00  0.00    +0.000 A 
ATOM     15  N   UNL     1       6.632   5.913  15.528  0.00  0.00    +0.000 NA
ENDBRANCH   9  14
ENDBRANCH   7   9
ENDBRANCH   1   7
BRANCH   4  16
ATOM     16  O   UNL     1       0.686   3.107  20.901  0.00  0.00    +0.000 OA
ATOM     17  H   UNL     1       0.894   2.402  21.537  0.00  0.00    +0.000 HD
ENDBRANCH   4  16
BRANCH   6  18
ATOM     18  O   UNL     1       5.137   2.402  19.505  0.00  0.00    +0.000 OA
ATOM     19  H   UNL     1       5.636   2.699  18.726  0.00  0.00    +0.000 HD
ENDBRANCH   6  18
TORSDOF 5
ENDMDL
MODEL 4
REMARK VINA RESULT:      -6.9      1.798      2.044
REMARK  Name = 
REMARK  6 active torsions:
REMARK  status: ('A' for Active; 'I' for Inactive)
REMARK    1  A    between atoms: C_1  and  C_2
REMARK    2  A    between atoms: C_5  and  C_6
REMARK    3  A    between atoms: C_6  and  C_7
REMARK    4  A    between atoms: C_7  and  C_9
REMARK    5  A    between atoms: C_12  and  O_13
REMARK    6  A    between atoms: C_15  and  O_16
REMARK                            x       y       z     vdW  Elec       q    Type
REMARK                         _______ _______ _______ _____ _____    ______ ____
ROOT
ATOM      1  C   UNL     1       2.712   3.678  18.864  0.00  0.00    +0.000 A 
ATOM      2  C   UNL     1       1.361   3.893  19.195  0.00  0.00    +0.000 A 
ATOM      3  C   UNL     1       0.845   3.480  20.429  0.00  0.00    +0.000 A 
ATOM      4  C   UNL     1       1.688   2.855  21.341  0.00  0.00    +0.000 A 
ATOM      5  C   UNL     1       3.028   2.644  21.040  0.00  0.00    +0.000 A 
ATOM      6  C   UNL     1       3.535   3.038  19.798  0.00  0.00    +0.000 A 
ENDROOT
BRANCH   1   7
ATOM      7  C   UNL     1       3.147   4.085  17.491  0.00  0.00    +0.000 C 
ATOM      8  O   UNL     1       2.900   3.318  16.557  0.00  0.00    +0.000 OA
BRANCH   7   9
ATOM      9  C   UNL     1       3.837   5.407  17.233  0.00  0.00    +0.000 C 
BRANCH   9  14
ATOM     10  C   UNL     1       8.111   5.644  19.697  0.00  0.00    +0.000 C 
ATOM     11  C   UNL     1       7.252   5.311  18.531  0.00  0.00    +0.000 A 
ATOM     12  C   UNL     1       7.637   4.648  17.383  0.00  0.00    +0.000 A 
ATOM     13  S   UNL     1       6.301   4.466  16.330  0.00  0.00    +0.000 S 
ATOM     14  C   UNL     1       5.303   5.277  17.473  0.00  0.00    +0.000 A 
ATOM     15  N   UNL     1       5.915   5.675  18.569  0.00  0.00    +0.000 NA
ENDBRANCH   9  14
ENDBRANCH   7   9
ENDBRANCH   1   7
BRANCH   4  16
ATOM     16  O   UNL     1       1.235   2.405  22.544  0.00  0.00    +0.000 OA
ATOM     17  H   UNL     1       1.046   1.455  22.472  0.00  0.00    +0.000 HD
ENDBRANCH   4  16
BRANCH   6  18
ATOM     18  O   UNL     1       4.827   2.717  19.501  0.00  0.00    +0.000 OA
ATOM     19  H   UNL     1       5.106   1.964  20.048  0.00  0.00    +0.000 HD
ENDBRANCH   6  18
TORSDOF 5
ENDMDL
MODEL 5
REMARK VINA RESULT:      -6.9      1.078      1.266
REMARK  Name = 
REMARK  6 active torsions:
REMARK  status: ('A' for Active; 'I' for Inactive)
REMARK    1  A    between atoms: C_1  and  C_2
REMARK    2  A    between atoms: C_5  and  C_6
REMARK    3  A    between atoms: C_6  and  C_7
REMARK    4  A    between atoms: C_7  and  C_9
REMARK    5  A    between atoms: C_12  and  O_13
REMARK    6  A    between atoms: C_15  and  O_16
REMARK                            x       y       z     vdW  Elec       q    Type
REMARK                         _______ _______ _______ _____ _____    ______ ____
ROOT
ATOM      1  C   UNL     1       3.249   3.711  19.128  0.00  0.00    +0.000 A 
ATOM      2  C   UNL     1       1.980   4.263  19.387  0.00  0.00    +0.000 A 
ATOM      3  C   UNL     1       1.248   3.890  20.521  0.00  0.00    +0.000 A 
ATOM      4  C   UNL     1       1.792   2.965  21.404  0.00  0.00    +0.000 A 
ATOM      5  C   UNL     1       3.048   2.417  21.175  0.00  0.00    +0.000 A 
ATOM      6  C   UNL     1       3.767   2.775  20.031  0.00  0.00    +0.000 A 
ENDROOT
BRANCH   1   7
ATOM      7  C   UNL     1       3.917   4.115  17.851  0.00  0.00    +0.000 C 
ATOM      8  O   UNL     1       4.298   3.220  17.092  0.00  0.00    +0.000 OA
BRANCH   7   9
ATOM      9  C   UNL     1       4.095   5.569  17.470  0.00  0.00    +0.000 C 
BRANCH   9  14
ATOM     10  C   UNL     1       8.027   8.556  17.551  0.00  0.00    +0.000 C 
ATOM     11  C   UNL     1       7.285   7.308  17.865  0.00  0.00    +0.000 A 
ATOM     12  C   UNL     1       7.725   6.259  18.647  0.00  0.00    +0.000 A 
ATOM     13  S   UNL     1       6.517   5.052  18.750  0.00  0.00    +0.000 S 
ATOM     14  C   UNL     1       5.492   6.006  17.750  0.00  0.00    +0.000 A 
ATOM     15  N   UNL     1       6.008   7.150  17.348  0.00  0.00    +0.000 NA
ENDBRANCH   9  14
ENDBRANCH   7   9
ENDBRANCH   1   7
BRANCH   4  16
ATOM     16  O   UNL     1       1.114   2.543  22.507  0.00  0.00    +0.000 OA
ATOM     17  H   UNL     1       1.669   2.689  23.291  0.00  0.00    +0.000 HD
ENDBRANCH   4  16
BRANCH   6  18
ATOM     18  O   UNL     1       4.947   2.136  19.788  0.00  0.00    +0.000 OA
ATOM     19  H   UNL     1       5.405   2.573  19.050  0.00  0.00    +0.000 HD
ENDBRANCH   6  18
TORSDOF 5
ENDMDL
MODEL 6
REMARK VINA RESULT:      -6.8      2.778      5.035
REMARK  Name = 
REMARK  6 active torsions:
REMARK  status: ('A' for Active; 'I' for Inactive)
REMARK    1  A    between atoms: C_1  and  C_2
REMARK    2  A    between atoms: C_5  and  C_6
REMARK    3  A    between atoms: C_6  and  C_7
REMARK    4  A    between atoms: C_7  and  C_9
REMARK    5  A    between atoms: C_12  and  O_13
REMARK    6  A    between atoms: C_15  and  O_16
REMARK                            x       y       z     vdW  Elec       q    Type
REMARK                         _______ _______ _______ _____ _____    ______ ____
ROOT
ATOM      1  C   UNL     1       5.288   4.049  17.659  0.00  0.00    +0.000 A 
ATOM      2  C   UNL     1       4.872   3.928  16.319  0.00  0.00    +0.000 A 
ATOM      3  C   UNL     1       5.678   4.382  15.269  0.00  0.00    +0.000 A 
ATOM      4  C   UNL     1       6.911   4.955  15.559  0.00  0.00    +0.000 A 
ATOM      5  C   UNL     1       7.347   5.074  16.873  0.00  0.00    +0.000 A 
ATOM      6  C   UNL     1       6.531   4.639  17.921  0.00  0.00    +0.000 A 
ENDROOT
BRANCH   1   7
ATOM      7  C   UNL     1       4.322   3.606  18.713  0.00  0.00    +0.000 C 
ATOM      8  O   UNL     1       4.771   2.988  19.682  0.00  0.00    +0.000 OA
BRANCH   7   9
ATOM      9  C   UNL     1       2.846   3.926  18.626  0.00  0.00    +0.000 C 
BRANCH   9  14
ATOM     10  C   UNL     1       2.303   8.773  17.847  0.00  0.00    +0.000 C 
ATOM     11  C   UNL     1       2.310   7.541  18.677  0.00  0.00    +0.000 A 
ATOM     12  C   UNL     1       1.954   7.439  20.007  0.00  0.00    +0.000 A 
ATOM     13  S   UNL     1       2.092   5.816  20.532  0.00  0.00    +0.000 S 
ATOM     14  C   UNL     1       2.611   5.361  18.956  0.00  0.00    +0.000 A 
ATOM     15  N   UNL     1       2.693   6.347  18.086  0.00  0.00    +0.000 NA
ENDBRANCH   9  14
ENDBRANCH   7   9
ENDBRANCH   1   7
BRANCH   4  16
ATOM     16  O   UNL     1       7.723   5.441  14.580  0.00  0.00    +0.000 OA
ATOM     17  H   UNL     1       8.397   6.012  14.987  0.00  0.00    +0.000 HD
ENDBRANCH   4  16
BRANCH   6  18
ATOM     18  O   UNL     1       6.948   4.870  19.199  0.00  0.00    +0.000 OA
ATOM     19  H   UNL     1       6.350   4.421  19.820  0.00  0.00    +0.000 HD
ENDBRANCH   6  18
TORSDOF 5
ENDMDL
MODEL 7
REMARK VINA RESULT:      -6.8      3.222      5.938
REMARK  Name = 
REMARK  6 active torsions:
REMARK  status: ('A' for Active; 'I' for Inactive)
REMARK    1  A    between atoms: C_1  and  C_2
REMARK    2  A    between atoms: C_5  and  C_6
REMARK    3  A    between atoms: C_6  and  C_7
REMARK    4  A    between atoms: C_7  and  C_9
REMARK    5  A    between atoms: C_12  and  O_13
REMARK    6  A    between atoms: C_15  and  O_16
REMARK                            x       y       z     vdW  Elec       q    Type
REMARK                         _______ _______ _______ _____ _____    ______ ____
ROOT
ATOM      1  C   UNL     1       5.632   5.288  17.397  0.00  0.00    +0.000 A 
ATOM      2  C   UNL     1       4.924   5.797  16.292  0.00  0.00    +0.000 A 
ATOM      3  C   UNL     1       5.408   5.636  14.988  0.00  0.00    +0.000 A 
ATOM      4  C   UNL     1       6.604   4.957  14.788  0.00  0.00    +0.000 A 
ATOM      5  C   UNL     1       7.313   4.436  15.864  0.00  0.00    +0.000 A 
ATOM      6  C   UNL     1       6.838   4.617  17.166  0.00  0.00    +0.000 A 
ENDROOT
BRANCH   1   7
ATOM      7  C   UNL     1       5.072   5.580  18.754  0.00  0.00    +0.000 C 
ATOM      8  O   UNL     1       5.832   5.489  19.722  0.00  0.00    +0.000 OA
BRANCH   7   9
ATOM      9  C   UNL     1       3.634   6.009  18.947  0.00  0.00    +0.000 C 
BRANCH   9  14
ATOM     10  C   UNL     1       1.450   2.545  21.708  0.00  0.00    +0.000 C 
ATOM     11  C   UNL     1       1.732   3.270  20.443  0.00  0.00    +0.000 A 
ATOM     12  C   UNL     1       1.126   3.063  19.220  0.00  0.00    +0.000 A 
ATOM     13  S   UNL     1       1.753   4.153  18.059  0.00  0.00    +0.000 S 
ATOM     14  C   UNL     1       2.783   4.826  19.261  0.00  0.00    +0.000 A 
ATOM     15  N   UNL     1       2.686   4.275  20.455  0.00  0.00    +0.000 NA
ENDBRANCH   9  14
ENDBRANCH   7   9
ENDBRANCH   1   7
BRANCH   4  16
ATOM     16  O   UNL     1       7.138   4.796  13.546  0.00  0.00    +0.000 OA
ATOM     17  H   UNL     1       8.056   4.491  13.636  0.00  0.00    +0.000 HD
ENDBRANCH   4  16
BRANCH   6  18
ATOM     18  O   UNL     1       7.617   4.184  18.199  0.00  0.00    +0.000 OA
ATOM     19  H   UNL     1       7.217   4.460  19.041  0.00  0.00    +0.000 HD
ENDBRANCH   6  18
TORSDOF 5
ENDMDL
MODEL 8
REMARK VINA RESULT:      -6.8      1.849      2.204
REMARK  Name = 
REMARK  6 active torsions:
REMARK  status: ('A' for Active; 'I' for Inactive)
REMARK    1  A    between atoms: C_1  and  C_2
REMARK    2  A    between atoms: C_5  and  C_6
REMARK    3  A    between atoms: C_6  and  C_7
REMARK    4  A    between atoms: C_7  and  C_9
REMARK    5  A    between atoms: C_12  and  O_13
REMARK    6  A    between atoms: C_15  and  O_16
REMARK                            x       y       z     vdW  Elec       q    Type
REMARK                         _______ _______ _______ _____ _____    ______ ____
ROOT
ATOM      1  C   UNL     1       2.617   5.050  18.826  0.00  0.00    +0.000 A 
ATOM      2  C   UNL     1       2.974   5.179  20.182  0.00  0.00    +0.000 A 
ATOM      3  C   UNL     1       2.388   4.369  21.162  0.00  0.00    +0.000 A 
ATOM      4  C   UNL     1       1.445   3.420  20.784  0.00  0.00    +0.000 A 
ATOM      5  C   UNL     1       1.088   3.268  19.449  0.00  0.00    +0.000 A 
ATOM      6  C   UNL     1       1.659   4.092  18.475  0.00  0.00    +0.000 A 
ENDROOT
BRANCH   1   7
ATOM      7  C   UNL     1       3.242   6.014  17.866  0.00  0.00    +0.000 C 
ATOM      8  O   UNL     1       2.863   7.188  17.901  0.00  0.00    +0.000 OA
BRANCH   7   9
ATOM      9  C   UNL     1       4.328   5.588  16.902  0.00  0.00    +0.000 C 
BRANCH   9  14
ATOM     10  C   UNL     1       8.150   8.620  17.665  0.00  0.00    +0.000 C 
ATOM     11  C   UNL     1       7.393   7.353  17.823  0.00  0.00    +0.000 A 
ATOM     12  C   UNL     1       7.731   6.282  18.626  0.00  0.00    +0.000 A 
ATOM     13  S   UNL     1       6.544   5.055  18.507  0.00  0.00    +0.000 S 
ATOM     14  C   UNL     1       5.661   6.033  17.400  0.00  0.00    +0.000 A 
ATOM     15  N   UNL     1       6.210   7.197  17.118  0.00  0.00    +0.000 NA
ENDBRANCH   9  14
ENDBRANCH   7   9
ENDBRANCH   1   7
BRANCH   4  16
ATOM     16  O   UNL     1       0.821   2.626  21.696  0.00  0.00    +0.000 OA
ATOM     17  H   UNL     1       1.371   1.840  21.855  0.00  0.00    +0.000 HD
ENDBRANCH   4  16
BRANCH   6  18
ATOM     18  O   UNL     1       1.203   3.983  17.194  0.00  0.00    +0.000 OA
ATOM     19  H   UNL     1       0.398   3.439  17.184  0.00  0.00    +0.000 HD
ENDBRANCH   6  18
TORSDOF 5
ENDMDL
MODEL 9
REMARK VINA RESULT:      -6.7      2.202      2.989
REMARK  Name = 
REMARK  6 active torsions:
REMARK  status: ('A' for Active; 'I' for Inactive)
REMARK    1  A    between atoms: C_1  and  C_2
REMARK    2  A    between atoms: C_5  and  C_6
REMARK    3  A    between atoms: C_6  and  C_7
REMARK    4  A    between atoms: C_7  and  C_9
REMARK    5  A    between atoms: C_12  and  O_13
REMARK    6  A    between atoms: C_15  and  O_16
REMARK                            x       y       z     vdW  Elec       q    Type
REMARK                         _______ _______ _______ _____ _____    ______ ____
ROOT
ATOM      1  C   UNL     1       3.585   4.367  18.718  0.00  0.00    +0.000 A 
ATOM      2  C   UNL     1       2.357   4.785  18.173  0.00  0.00    +0.000 A 
ATOM      3  C   UNL     1       1.278   3.900  18.060  0.00  0.00    +0.000 A 
ATOM      4  C   UNL     1       1.427   2.590  18.500  0.00  0.00    +0.000 A 
ATOM      5  C   UNL     1       2.627   2.159  19.053  0.00  0.00    +0.000 A 
ATOM      6  C   UNL     1       3.709   3.040  19.145  0.00  0.00    +0.000 A 
ENDROOT
BRANCH   1   7
ATOM      7  C   UNL     1       4.700   5.366  18.724  0.00  0.00    +0.000 C 
ATOM      8  O   UNL     1       5.421   5.418  19.724  0.00  0.00    +0.000 OA
BRANCH   7   9
ATOM      9  C   UNL     1       4.971   6.264  17.537  0.00  0.00    +0.000 C 
BRANCH   9  14
ATOM     10  C   UNL     1       5.385   3.915  13.212  0.00  0.00    +0.000 C 
ATOM     11  C   UNL     1       5.895   4.457  14.497  0.00  0.00    +0.000 A 
ATOM     12  C   UNL     1       7.207   4.464  14.929  0.00  0.00    +0.000 A 
ATOM     13  S   UNL     1       7.321   5.219  16.460  0.00  0.00    +0.000 S 
ATOM     14  C   UNL     1       5.622   5.488  16.443  0.00  0.00    +0.000 A 
ATOM     15  N   UNL     1       4.994   5.038  15.375  0.00  0.00    +0.000 NA
ENDBRANCH   9  14
ENDBRANCH   7   9
ENDBRANCH   1   7
BRANCH   4  16
ATOM     16  O   UNL     1       0.423   1.677  18.388  0.00  0.00    +0.000 OA
ATOM     17  H   UNL     1       0.249   1.518  17.445  0.00  0.00    +0.000 HD
ENDBRANCH   4  16
BRANCH   6  18
ATOM     18  O   UNL     1       4.900   2.549  19.594  0.00  0.00    +0.000 OA
ATOM     19  H   UNL     1       4.755   1.683  20.011  0.00  0.00    +0.000 HD
ENDBRANCH   6  18
TORSDOF 5
ENDMDL
