MODEL 1
REMARK VINA RESULT:      -7.6      0.000      0.000
REMARK  Name = 
REMARK  9 active torsions:
REMARK  status: ('A' for Active; 'I' for Inactive)
REMARK    1  A    between atoms: C_1  and  O_2
REMARK    2  A    between atoms: O_2  and  C_3
REMARK    3  A    between atoms: C_6  and  O_7
REMARK    4  A    between atoms: O_7  and  C_8
REMARK    5  A    between atoms: C_8  and  C_9
REMARK    6  A    between atoms: C_9  and  N_10
REMARK    7  A    between atoms: C_11  and  C_13
REMARK    8  A    between atoms: C_14  and  C_15
REMARK    9  A    between atoms: C_20  and  C_21
REMARK                            x       y       z     vdW  Elec       q    Type
REMARK                         _______ _______ _______ _____ _____    ______ ____
ROOT
ATOM      1  N   UNL     1       3.689   4.996  17.455  0.00  0.00    +0.000 N 
ATOM      2  C   UNL     1       4.546   4.054  16.928  0.00  0.00    +0.000 C 
ATOM      3  O   UNL     1       4.308   2.854  17.020  0.00  0.00    +0.000 OA
ATOM      4  H   UNL     1       3.812   5.962  17.199  0.00  0.00    +0.000 HD
ENDROOT
BRANCH   2   5
ATOM      5  C   UNL     1       5.692   4.593  16.233  0.00  0.00    +0.000 A 
ATOM      6  C   UNL     1       6.744   5.386  16.680  0.00  0.00    +0.000 A 
ATOM      7  C   UNL     1       7.076   5.887  18.038  0.00  0.00    +0.000 C 
ATOM      8  N   UNL     1       7.600   5.702  15.651  0.00  0.00    +0.000 NA
ATOM      9  C   UNL     1       7.130   5.082  14.594  0.00  0.00    +0.000 A 
ATOM     10  C   UNL     1       7.607   5.039  13.254  0.00  0.00    +0.000 A 
ATOM     11  C   UNL     1       6.956   4.307  12.330  0.00  0.00    +0.000 A 
ATOM     12  C   UNL     1       5.759   3.544  12.666  0.00  0.00    +0.000 A 
ATOM     13  C   UNL     1       5.075   2.746  11.600  0.00  0.00    +0.000 C 
ATOM     14  C   UNL     1       5.306   3.592  13.934  0.00  0.00    +0.000 A 
ATOM     15  N   UNL     1       5.978   4.356  14.894  0.00  0.00    +0.000 N 
ENDBRANCH   2   5
BRANCH   1  16
ATOM     16  C   UNL     1       2.472   4.622  18.156  0.00  0.00    +0.000 C 
BRANCH  16  17
ATOM     17  C   UNL     1       2.317   5.367  19.481  0.00  0.00    +0.000 C 
BRANCH  17  18
ATOM     18  O   UNL     1       2.992   6.625  19.384  0.00  0.00    +0.000 OA
BRANCH  18  22
ATOM     19  C   UNL     1       0.531   9.998  19.377  0.00  0.00    +0.000 A 
ATOM     20  C   UNL     1       0.708   9.217  20.520  0.00  0.00    +0.000 A 
ATOM     21  C   UNL     1       1.544   8.096  20.488  0.00  0.00    +0.000 A 
ATOM     22  C   UNL     1       2.181   7.723  19.302  0.00  0.00    +0.000 A 
ATOM     23  C   UNL     1       1.996   8.501  18.159  0.00  0.00    +0.000 A 
ATOM     24  C   UNL     1       1.172   9.632  18.196  0.00  0.00    +0.000 A 
BRANCH  19  26
ATOM     25  C   UNL     1       0.098  12.261  18.852  0.00  0.00    +0.000 C 
ATOM     26  O   UNL     1      -0.308  11.070  19.520  0.00  0.00    +0.000 OA
ENDBRANCH  19  26
ENDBRANCH  18  22
ENDBRANCH  17  18
ENDBRANCH  16  17
ENDBRANCH   1  16
TORSDOF 6
ENDMDL
MODEL 2
REMARK VINA RESULT:      -7.5      1.229      1.645
REMARK  Name = 
REMARK  9 active torsions:
REMARK  status: ('A' for Active; 'I' for Inactive)
REMARK    1  A    between atoms: C_1  and  O_2
REMARK    2  A    between atoms: O_2  and  C_3
REMARK    3  A    between atoms: C_6  and  O_7
REMARK    4  A    between atoms: O_7  and  C_8
REMARK    5  A    between atoms: C_8  and  C_9
REMARK    6  A    between atoms: C_9  and  N_10
REMARK    7  A    between atoms: C_11  and  C_13
REMARK    8  A    between atoms: C_14  and  C_15
REMARK    9  A    between atoms: C_20  and  C_21
REMARK                            x       y       z     vdW  Elec       q    Type
REMARK                         _______ _______ _______ _____ _____    ______ ____
ROOT
ATOM      1  N   UNL     1       5.168   3.385  17.949  0.00  0.00    +0.000 N 
ATOM      2  C   UNL     1       4.802   3.907  16.727  0.00  0.00    +0.000 C 
ATOM      3  O   UNL     1       3.636   3.884  16.348  0.00  0.00    +0.000 OA
ATOM      4  H   UNL     1       6.087   3.588  18.308  0.00  0.00    +0.000 HD
ENDROOT
BRANCH   2   5
ATOM      5  C   UNL     1       5.878   4.510  15.975  0.00  0.00    +0.000 A 
ATOM      6  C   UNL     1       6.881   5.394  16.360  0.00  0.00    +0.000 A 
ATOM      7  C   UNL     1       7.220   5.960  17.689  0.00  0.00    +0.000 C 
ATOM      8  N   UNL     1       7.673   5.743  15.291  0.00  0.00    +0.000 NA
ATOM      9  C   UNL     1       7.215   5.056  14.270  0.00  0.00    +0.000 A 
ATOM     10  C   UNL     1       7.646   5.009  12.914  0.00  0.00    +0.000 A 
ATOM     11  C   UNL     1       7.022   4.201  12.037  0.00  0.00    +0.000 A 
ATOM     12  C   UNL     1       5.900   3.359  12.439  0.00  0.00    +0.000 A 
ATOM     13  C   UNL     1       5.242   2.479  11.423  0.00  0.00    +0.000 C 
ATOM     14  C   UNL     1       5.490   3.412  13.721  0.00  0.00    +0.000 A 
ATOM     15  N   UNL     1       6.135   4.255  14.634  0.00  0.00    +0.000 N 
ENDBRANCH   2   5
BRANCH   1  16
ATOM     16  C   UNL     1       4.202   2.771  18.844  0.00  0.00    +0.000 C 
BRANCH  16  17
ATOM     17  C   UNL     1       3.794   3.706  19.983  0.00  0.00    +0.000 C 
BRANCH  17  18
ATOM     18  O   UNL     1       2.431   4.095  19.793  0.00  0.00    +0.000 OA
BRANCH  18  22
ATOM     19  C   UNL     1       1.758   8.213  19.619  0.00  0.00    +0.000 A 
ATOM     20  C   UNL     1       1.382   7.450  20.725  0.00  0.00    +0.000 A 
ATOM     21  C   UNL     1       1.628   6.074  20.752  0.00  0.00    +0.000 A 
ATOM     22  C   UNL     1       2.216   5.439  19.656  0.00  0.00    +0.000 A 
ATOM     23  C   UNL     1       2.584   6.202  18.547  0.00  0.00    +0.000 A 
ATOM     24  C   UNL     1       2.353   7.582  18.527  0.00  0.00    +0.000 A 
BRANCH  19  26
ATOM     25  C   UNL     1       0.994  10.147  18.497  0.00  0.00    +0.000 C 
ATOM     26  O   UNL     1       1.471   9.548  19.697  0.00  0.00    +0.000 OA
ENDBRANCH  19  26
ENDBRANCH  18  22
ENDBRANCH  17  18
ENDBRANCH  16  17
ENDBRANCH   1  16
TORSDOF 6
ENDMDL
MODEL 3
REMARK VINA RESULT:      -7.4      3.444      4.714
REMARK  Name = 
REMARK  9 active torsions:
REMARK  status: ('A' for Active; 'I' for Inactive)
REMARK    1  A    between atoms: C_1  and  O_2
REMARK    2  A    between atoms: O_2  and  C_3
REMARK    3  A    between atoms: C_6  and  O_7
REMARK    4  A    between atoms: O_7  and  C_8
REMARK    5  A    between atoms: C_8  and  C_9
REMARK    6  A    between atoms: C_9  and  N_10
REMARK    7  A    between atoms: C_11  and  C_13
REMARK    8  A    between atoms: C_14  and  C_15
REMARK    9  A    between atoms: C_20  and  C_21
REMARK                            x       y       z     vdW  Elec       q    Type
REMARK                         _______ _______ _______ _____ _____    ______ ____
ROOT
ATOM      1  N   UNL     1       3.256   7.540  18.198  0.00  0.00    +0.000 N 
ATOM      2  C   UNL     1       4.107   6.746  17.460  0.00  0.00    +0.000 C 
ATOM      3  O   UNL     1       4.389   7.021  16.298  0.00  0.00    +0.000 OA
ATOM      4  H   UNL     1       3.196   7.395  19.193  0.00  0.00    +0.000 HD
ENDROOT
BRANCH   2   5
ATOM      5  C   UNL     1       4.661   5.618  18.174  0.00  0.00    +0.000 A 
ATOM      6  C   UNL     1       5.961   5.344  18.586  0.00  0.00    +0.000 A 
ATOM      7  C   UNL     1       7.202   6.153  18.489  0.00  0.00    +0.000 C 
ATOM      8  N   UNL     1       6.039   4.118  19.204  0.00  0.00    +0.000 NA
ATOM      9  C   UNL     1       4.810   3.654  19.228  0.00  0.00    +0.000 A 
ATOM     10  C   UNL     1       4.288   2.436  19.748  0.00  0.00    +0.000 A 
ATOM     11  C   UNL     1       2.968   2.183  19.673  0.00  0.00    +0.000 A 
ATOM     12  C   UNL     1       2.042   3.133  19.066  0.00  0.00    +0.000 A 
ATOM     13  C   UNL     1       0.584   2.801  19.009  0.00  0.00    +0.000 C 
ATOM     14  C   UNL     1       2.541   4.281  18.568  0.00  0.00    +0.000 A 
ATOM     15  N   UNL     1       3.913   4.544  18.641  0.00  0.00    +0.000 N 
ENDBRANCH   2   5
BRANCH   1  16
ATOM     16  C   UNL     1       2.639   8.732  17.640  0.00  0.00    +0.000 C 
BRANCH  16  17
ATOM     17  C   UNL     1       1.433   9.194  18.458  0.00  0.00    +0.000 C 
BRANCH  17  18
ATOM     18  O   UNL     1       1.475   8.560  19.739  0.00  0.00    +0.000 OA
BRANCH  18  22
ATOM     19  C   UNL     1      -0.613  10.703  22.652  0.00  0.00    +0.000 A 
ATOM     20  C   UNL     1      -0.604  11.095  21.312  0.00  0.00    +0.000 A 
ATOM     21  C   UNL     1       0.103  10.350  20.363  0.00  0.00    +0.000 A 
ATOM     22  C   UNL     1       0.838   9.228  20.748  0.00  0.00    +0.000 A 
ATOM     23  C   UNL     1       0.834   8.842  22.089  0.00  0.00    +0.000 A 
ATOM     24  C   UNL     1       0.114   9.578  23.037  0.00  0.00    +0.000 A 
BRANCH  19  26
ATOM     25  C   UNL     1      -2.508  12.086  22.936  0.00  0.00    +0.000 C 
ATOM     26  O   UNL     1      -1.335  11.503  23.495  0.00  0.00    +0.000 OA
ENDBRANCH  19  26
ENDBRANCH  18  22
ENDBRANCH  17  18
ENDBRANCH  16  17
ENDBRANCH   1  16
TORSDOF 6
ENDMDL
MODEL 4
REMARK VINA RESULT:      -7.4      1.098      1.568
REMARK  Name = 
REMARK  9 active torsions:
REMARK  status: ('A' for Active; 'I' for Inactive)
REMARK    1  A    between atoms: C_1  and  O_2
REMARK    2  A    between atoms: O_2  and  C_3
REMARK    3  A    between atoms: C_6  and  O_7
REMARK    4  A    between atoms: O_7  and  C_8
REMARK    5  A    between atoms: C_8  and  C_9
REMARK    6  A    between atoms: C_9  and  N_10
REMARK    7  A    between atoms: C_11  and  C_13
REMARK    8  A    between atoms: C_14  and  C_15
REMARK    9  A    between atoms: C_20  and  C_21
REMARK                            x       y       z     vdW  Elec       q    Type
REMARK                         _______ _______ _______ _____ _____    ______ ____
ROOT
ATOM      1  N   UNL     1       4.829   3.694  18.129  0.00  0.00    +0.000 N 
ATOM      2  C   UNL     1       4.586   4.033  16.815  0.00  0.00    +0.000 C 
ATOM      3  O   UNL     1       3.473   3.895  16.317  0.00  0.00    +0.000 OA
ATOM      4  H   UNL     1       5.691   3.994  18.556  0.00  0.00    +0.000 HD
ENDROOT
BRANCH   2   5
ATOM      5  C   UNL     1       5.715   4.596  16.111  0.00  0.00    +0.000 A 
ATOM      6  C   UNL     1       6.733   5.442  16.540  0.00  0.00    +0.000 A 
ATOM      7  C   UNL     1       7.035   5.994  17.885  0.00  0.00    +0.000 C 
ATOM      8  N   UNL     1       7.583   5.761  15.508  0.00  0.00    +0.000 NA
ATOM      9  C   UNL     1       7.143   5.092  14.466  0.00  0.00    +0.000 A 
ATOM     10  C   UNL     1       7.631   5.029  13.130  0.00  0.00    +0.000 A 
ATOM     11  C   UNL     1       7.015   4.246  12.225  0.00  0.00    +0.000 A 
ATOM     12  C   UNL     1       5.846   3.447  12.577  0.00  0.00    +0.000 A 
ATOM     13  C   UNL     1       5.200   2.592  11.531  0.00  0.00    +0.000 C 
ATOM     14  C   UNL     1       5.383   3.514  13.841  0.00  0.00    +0.000 A 
ATOM     15  N   UNL     1       6.019   4.332  14.781  0.00  0.00    +0.000 N 
ENDBRANCH   2   5
BRANCH   1  16
ATOM     16  C   UNL     1       3.793   3.146  18.986  0.00  0.00    +0.000 C 
BRANCH  16  17
ATOM     17  C   UNL     1       2.918   4.236  19.605  0.00  0.00    +0.000 C 
BRANCH  17  18
ATOM     18  O   UNL     1       3.680   5.444  19.690  0.00  0.00    +0.000 OA
BRANCH  18  22
ATOM     19  C   UNL     1       1.606   8.908  18.622  0.00  0.00    +0.000 A 
ATOM     20  C   UNL     1       2.486   8.275  17.744  0.00  0.00    +0.000 A 
ATOM     21  C   UNL     1       3.161   7.114  18.133  0.00  0.00    +0.000 A 
ATOM     22  C   UNL     1       2.991   6.594  19.418  0.00  0.00    +0.000 A 
ATOM     23  C   UNL     1       2.116   7.232  20.297  0.00  0.00    +0.000 A 
ATOM     24  C   UNL     1       1.429   8.386  19.902  0.00  0.00    +0.000 A 
BRANCH  19  26
ATOM     25  C   UNL     1      -0.421   9.982  18.054  0.00  0.00    +0.000 C 
ATOM     26  O   UNL     1       1.000  10.036  18.140  0.00  0.00    +0.000 OA
ENDBRANCH  19  26
ENDBRANCH  18  22
ENDBRANCH  17  18
ENDBRANCH  16  17
ENDBRANCH   1  16
TORSDOF 6
ENDMDL
MODEL 5
REMARK VINA RESULT:      -7.4      5.220      7.597
REMARK  Name = 
REMARK  9 active torsions:
REMARK  status: ('A' for Active; 'I' for Inactive)
REMARK    1  A    between atoms: C_1  and  O_2
REMARK    2  A    between atoms: O_2  and  C_3
REMARK    3  A    between atoms: C_6  and  O_7
REMARK    4  A    between atoms: O_7  and  C_8
REMARK    5  A    between atoms: C_8  and  C_9
REMARK    6  A    between atoms: C_9  and  N_10
REMARK    7  A    between atoms: C_11  and  C_13
REMARK    8  A    between atoms: C_14  and  C_15
REMARK    9  A    between atoms: C_20  and  C_21
REMARK                            x       y       z     vdW  Elec       q    Type
REMARK                         _______ _______ _______ _____ _____    ______ ____
ROOT
ATOM      1  N   UNL     1       7.456   6.988  17.758  0.00  0.00    +0.000 N 
ATOM      2  C   UNL     1       7.034   5.780  18.271  0.00  0.00    +0.000 C 
ATOM      3  O   UNL     1       7.524   5.318  19.296  0.00  0.00    +0.000 OA
ATOM      4  H   UNL     1       6.909   7.425  17.034  0.00  0.00    +0.000 HD
ENDROOT
BRANCH   2   5
ATOM      5  C   UNL     1       5.958   5.149  17.541  0.00  0.00    +0.000 A 
ATOM      6  C   UNL     1       5.893   4.675  16.235  0.00  0.00    +0.000 A 
ATOM      7  C   UNL     1       6.930   4.597  15.176  0.00  0.00    +0.000 C 
ATOM      8  N   UNL     1       4.641   4.184  15.947  0.00  0.00    +0.000 NA
ATOM      9  C   UNL     1       3.950   4.297  17.058  0.00  0.00    +0.000 A 
ATOM     10  C   UNL     1       2.603   3.945  17.353  0.00  0.00    +0.000 A 
ATOM     11  C   UNL     1       2.111   4.143  18.591  0.00  0.00    +0.000 A 
ATOM     12  C   UNL     1       2.930   4.713  19.655  0.00  0.00    +0.000 A 
ATOM     13  C   UNL     1       2.334   4.910  21.014  0.00  0.00    +0.000 C 
ATOM     14  C   UNL     1       4.203   5.051  19.370  0.00  0.00    +0.000 A 
ATOM     15  N   UNL     1       4.714   4.852  18.083  0.00  0.00    +0.000 N 
ENDBRANCH   2   5
BRANCH   1  16
ATOM     16  C   UNL     1       8.506   7.768  18.390  0.00  0.00    +0.000 C 
BRANCH  16  17
ATOM     17  C   UNL     1       8.268   9.272  18.257  0.00  0.00    +0.000 C 
BRANCH  17  18
ATOM     18  O   UNL     1       8.832   9.929  19.396  0.00  0.00    +0.000 OA
BRANCH  18  22
ATOM     19  C   UNL     1      11.491  13.091  18.784  0.00  0.00    +0.000 A 
ATOM     20  C   UNL     1      10.868  12.878  20.014  0.00  0.00    +0.000 A 
ATOM     21  C   UNL     1       9.986  11.806  20.185  0.00  0.00    +0.000 A 
ATOM     22  C   UNL     1       9.688  10.958  19.117  0.00  0.00    +0.000 A 
ATOM     23  C   UNL     1      10.306  11.177  17.885  0.00  0.00    +0.000 A 
ATOM     24  C   UNL     1      11.201  12.240  17.718  0.00  0.00    +0.000 A 
BRANCH  19  26
ATOM     25  C   UNL     1      11.703  15.432  18.544  0.00  0.00    +0.000 C 
ATOM     26  O   UNL     1      12.333  14.167  18.727  0.00  0.00    +0.000 OA
ENDBRANCH  19  26
ENDBRANCH  18  22
ENDBRANCH  17  18
ENDBRANCH  16  17
ENDBRANCH   1  16
TORSDOF 6
ENDMDL
MODEL 6
REMARK VINA RESULT:      -7.4      0.425      1.044
REMARK  Name = 
REMARK  9 active torsions:
REMARK  status: ('A' for Active; 'I' for Inactive)
REMARK    1  A    between atoms: C_1  and  O_2
REMARK    2  A    between atoms: O_2  and  C_3
REMARK    3  A    between atoms: C_6  and  O_7
REMARK    4  A    between atoms: O_7  and  C_8
REMARK    5  A    between atoms: C_8  and  C_9
REMARK    6  A    between atoms: C_9  and  N_10
REMARK    7  A    between atoms: C_11  and  C_13
REMARK    8  A    between atoms: C_14  and  C_15
REMARK    9  A    between atoms: C_20  and  C_21
REMARK                            x       y       z     vdW  Elec       q    Type
REMARK                         _______ _______ _______ _____ _____    ______ ____
ROOT
ATOM      1  N   UNL     1       3.723   4.746  17.705  0.00  0.00    +0.000 N 
ATOM      2  C   UNL     1       4.601   3.859  17.122  0.00  0.00    +0.000 C 
ATOM      3  O   UNL     1       4.403   2.648  17.159  0.00  0.00    +0.000 OA
ATOM      4  H   UNL     1       3.812   5.727  17.495  0.00  0.00    +0.000 HD
ENDROOT
BRANCH   2   5
ATOM      5  C   UNL     1       5.720   4.467  16.440  0.00  0.00    +0.000 A 
ATOM      6  C   UNL     1       6.752   5.273  16.911  0.00  0.00    +0.000 A 
ATOM      7  C   UNL     1       7.084   5.721  18.287  0.00  0.00    +0.000 C 
ATOM      8  N   UNL     1       7.583   5.665  15.889  0.00  0.00    +0.000 NA
ATOM      9  C   UNL     1       7.119   5.079  14.809  0.00  0.00    +0.000 A 
ATOM     10  C   UNL     1       7.580   5.114  13.463  0.00  0.00    +0.000 A 
ATOM     11  C   UNL     1       6.941   4.404  12.514  0.00  0.00    +0.000 A 
ATOM     12  C   UNL     1       5.775   3.587  12.828  0.00  0.00    +0.000 A 
ATOM     13  C   UNL     1       5.103   2.817  11.734  0.00  0.00    +0.000 C 
ATOM     14  C   UNL     1       5.337   3.561  14.102  0.00  0.00    +0.000 A 
ATOM     15  N   UNL     1       5.997   4.302  15.089  0.00  0.00    +0.000 N 
ENDBRANCH   2   5
BRANCH   1  16
ATOM     16  C   UNL     1       2.528   4.300  18.402  0.00  0.00    +0.000 C 
BRANCH  16  17
ATOM     17  C   UNL     1       2.153   5.228  19.558  0.00  0.00    +0.000 C 
BRANCH  17  18
ATOM     18  O   UNL     1       2.939   6.420  19.464  0.00  0.00    +0.000 OA
BRANCH  18  22
ATOM     19  C   UNL     1       0.753   9.947  18.992  0.00  0.00    +0.000 A 
ATOM     20  C   UNL     1       1.429   9.350  17.927  0.00  0.00    +0.000 A 
ATOM     21  C   UNL     1       2.148   8.166  18.120  0.00  0.00    +0.000 A 
ATOM     22  C   UNL     1       2.230   7.587  19.388  0.00  0.00    +0.000 A 
ATOM     23  C   UNL     1       1.560   8.190  20.453  0.00  0.00    +0.000 A 
ATOM     24  C   UNL     1       0.827   9.367  20.257  0.00  0.00    +0.000 A 
BRANCH  19  26
ATOM     25  C   UNL     1      -0.748  11.617  19.727  0.00  0.00    +0.000 C 
ATOM     26  O   UNL     1       0.083  11.102  18.692  0.00  0.00    +0.000 OA
ENDBRANCH  19  26
ENDBRANCH  18  22
ENDBRANCH  17  18
ENDBRANCH  16  17
ENDBRANCH   1  16
TORSDOF 6
ENDMDL
MODEL 7
REMARK VINA RESULT:      -7.3      4.827      6.962
REMARK  Name = 
REMARK  9 active torsions:
REMARK  status: ('A' for Active; 'I' for Inactive)
REMARK    1  A    between atoms: C_1  and  O_2
REMARK    2  A    between atoms: O_2  and  C_3
REMARK    3  A    between atoms: C_6  and  O_7
REMARK    4  A    between atoms: O_7  and  C_8
REMARK    5  A    between atoms: C_8  and  C_9
REMARK    6  A    between atoms: C_9  and  N_10
REMARK    7  A    between atoms: C_11  and  C_13
REMARK    8  A    between atoms: C_14  and  C_15
REMARK    9  A    between atoms: C_20  and  C_21
REMARK                            x       y       z     vdW  Elec       q    Type
REMARK                         _______ _______ _______ _____ _____    ______ ____
ROOT
ATOM      1  N   UNL     1       7.146   6.704  17.998  0.00  0.00    +0.000 N 
ATOM      2  C   UNL     1       6.987   5.338  18.088  0.00  0.00    +0.000 C 
ATOM      3  O   UNL     1       7.765   4.647  18.739  0.00  0.00    +0.000 OA
ATOM      4  H   UNL     1       6.394   7.257  17.620  0.00  0.00    +0.000 HD
ENDROOT
BRANCH   2   5
ATOM      5  C   UNL     1       5.826   4.813  17.407  0.00  0.00    +0.000 A 
ATOM      6  C   UNL     1       5.650   4.383  16.096  0.00  0.00    +0.000 A 
ATOM      7  C   UNL     1       6.617   4.257  14.976  0.00  0.00    +0.000 C 
ATOM      8  N   UNL     1       4.350   3.998  15.869  0.00  0.00    +0.000 NA
ATOM      9  C   UNL     1       3.733   4.131  17.021  0.00  0.00    +0.000 A 
ATOM     10  C   UNL     1       2.382   3.875  17.386  0.00  0.00    +0.000 A 
ATOM     11  C   UNL     1       1.978   4.072  18.655  0.00  0.00    +0.000 A 
ATOM     12  C   UNL     1       2.898   4.547  19.683  0.00  0.00    +0.000 A 
ATOM     13  C   UNL     1       2.396   4.749  21.079  0.00  0.00    +0.000 C 
ATOM     14  C   UNL     1       4.175   4.795  19.333  0.00  0.00    +0.000 A 
ATOM     15  N   UNL     1       4.595   4.596  18.013  0.00  0.00    +0.000 N 
ENDBRANCH   2   5
BRANCH   1  16
ATOM     16  C   UNL     1       8.244   7.395  18.653  0.00  0.00    +0.000 C 
BRANCH  16  17
ATOM     17  C   UNL     1       8.332   8.864  18.236  0.00  0.00    +0.000 C 
BRANCH  17  18
ATOM     18  O   UNL     1       9.265   9.529  19.092  0.00  0.00    +0.000 OA
BRANCH  18  22
ATOM     19  C   UNL     1       9.430  13.639  18.369  0.00  0.00    +0.000 A 
ATOM     20  C   UNL     1       8.601  12.792  17.630  0.00  0.00    +0.000 A 
ATOM     21  C   UNL     1       8.568  11.421  17.903  0.00  0.00    +0.000 A 
ATOM     22  C   UNL     1       9.391  10.876  18.890  0.00  0.00    +0.000 A 
ATOM     23  C   UNL     1      10.224  11.723  19.623  0.00  0.00    +0.000 A 
ATOM     24  C   UNL     1      10.245  13.098  19.361  0.00  0.00    +0.000 A 
BRANCH  19  26
ATOM     25  C   UNL     1       8.086  15.484  17.759  0.00  0.00    +0.000 C 
ATOM     26  O   UNL     1       9.385  14.961  18.019  0.00  0.00    +0.000 OA
ENDBRANCH  19  26
ENDBRANCH  18  22
ENDBRANCH  17  18
ENDBRANCH  16  17
ENDBRANCH   1  16
TORSDOF 6
ENDMDL
MODEL 8
REMARK VINA RESULT:      -7.3      0.801      1.108
REMARK  Name = 
REMARK  9 active torsions:
REMARK  status: ('A' for Active; 'I' for Inactive)
REMARK    1  A    between atoms: C_1  and  O_2
REMARK    2  A    between atoms: O_2  and  C_3
REMARK    3  A    between atoms: C_6  and  O_7
REMARK    4  A    between atoms: O_7  and  C_8
REMARK    5  A    between atoms: C_8  and  C_9
REMARK    6  A    between atoms: C_9  and  N_10
REMARK    7  A    between atoms: C_11  and  C_13
REMARK    8  A    between atoms: C_14  and  C_15
REMARK    9  A    between atoms: C_20  and  C_21
REMARK                            x       y       z     vdW  Elec       q    Type
REMARK                         _______ _______ _______ _____ _____    ______ ____
ROOT
ATOM      1  N   UNL     1       3.575   4.969  16.983  0.00  0.00    +0.000 N 
ATOM      2  C   UNL     1       4.638   4.107  16.817  0.00  0.00    +0.000 C 
ATOM      3  O   UNL     1       4.601   2.959  17.247  0.00  0.00    +0.000 OA
ATOM      4  H   UNL     1       3.561   5.829  16.459  0.00  0.00    +0.000 HD
ENDROOT
BRANCH   2   5
ATOM      5  C   UNL     1       5.750   4.648  16.068  0.00  0.00    +0.000 A 
ATOM      6  C   UNL     1       6.795   5.481  16.454  0.00  0.00    +0.000 A 
ATOM      7  C   UNL     1       7.153   6.039  17.782  0.00  0.00    +0.000 C 
ATOM      8  N   UNL     1       7.612   5.780  15.389  0.00  0.00    +0.000 NA
ATOM      9  C   UNL     1       7.126   5.110  14.370  0.00  0.00    +0.000 A 
ATOM     10  C   UNL     1       7.564   5.029  13.018  0.00  0.00    +0.000 A 
ATOM     11  C   UNL     1       6.905   4.248  12.141  0.00  0.00    +0.000 A 
ATOM     12  C   UNL     1       5.738   3.469  12.542  0.00  0.00    +0.000 A 
ATOM     13  C   UNL     1       5.042   2.617  11.527  0.00  0.00    +0.000 C 
ATOM     14  C   UNL     1       5.321   3.554  13.820  0.00  0.00    +0.000 A 
ATOM     15  N   UNL     1       6.002   4.369  14.731  0.00  0.00    +0.000 N 
ENDBRANCH   2   5
BRANCH   1  16
ATOM     16  C   UNL     1       2.366   4.572  17.683  0.00  0.00    +0.000 C 
BRANCH  16  17
ATOM     17  C   UNL     1       2.127   5.404  18.942  0.00  0.00    +0.000 C 
BRANCH  17  18
ATOM     18  O   UNL     1       2.717   6.695  18.759  0.00  0.00    +0.000 OA
BRANCH  18  22
ATOM     19  C   UNL     1       0.727   9.796  20.723  0.00  0.00    +0.000 A 
ATOM     20  C   UNL     1       1.066   8.609  21.373  0.00  0.00    +0.000 A 
ATOM     21  C   UNL     1       1.737   7.593  20.686  0.00  0.00    +0.000 A 
ATOM     22  C   UNL     1       2.042   7.737  19.331  0.00  0.00    +0.000 A 
ATOM     23  C   UNL     1       1.695   8.922  18.681  0.00  0.00    +0.000 A 
ATOM     24  C   UNL     1       1.038   9.946  19.373  0.00  0.00    +0.000 A 
BRANCH  19  26
ATOM     25  C   UNL     1      -0.563  10.215  22.658  0.00  0.00    +0.000 C 
ATOM     26  O   UNL     1       0.072  10.722  21.489  0.00  0.00    +0.000 OA
ENDBRANCH  19  26
ENDBRANCH  18  22
ENDBRANCH  17  18
ENDBRANCH  16  17
ENDBRANCH   1  16
TORSDOF 6
ENDMDL
MODEL 9
REMARK VINA RESULT:      -7.2      1.905      2.876
REMARK  Name = 
REMARK  9 active torsions:
REMARK  status: ('A' for Active; 'I' for Inactive)
REMARK    1  A    between atoms: C_1  and  O_2
REMARK    2  A    between atoms: O_2  and  C_3
REMARK    3  A    between atoms: C_6  and  O_7
REMARK    4  A    between atoms: O_7  and  C_8
REMARK    5  A    between atoms: C_8  and  C_9
REMARK    6  A    between atoms: C_9  and  N_10
REMARK    7  A    between atoms: C_11  and  C_13
REMARK    8  A    between atoms: C_14  and  C_15
REMARK    9  A    between atoms: C_20  and  C_21
REMARK                            x       y       z     vdW  Elec       q    Type
REMARK                         _______ _______ _______ _____ _____    ______ ____
ROOT
ATOM      1  N   UNL     1       4.698   2.716  17.123  0.00  0.00    +0.000 N 
ATOM      2  C   UNL     1       4.514   3.967  16.575  0.00  0.00    +0.000 C 
ATOM      3  O   UNL     1       3.451   4.567  16.697  0.00  0.00    +0.000 OA
ATOM      4  H   UNL     1       5.630   2.338  17.168  0.00  0.00    +0.000 HD
ENDROOT
BRANCH   2   5
ATOM      5  C   UNL     1       5.672   4.515  15.904  0.00  0.00    +0.000 A 
ATOM      6  C   UNL     1       6.695   5.335  16.367  0.00  0.00    +0.000 A 
ATOM      7  C   UNL     1       6.977   5.867  17.724  0.00  0.00    +0.000 C 
ATOM      8  N   UNL     1       7.576   5.648  15.358  0.00  0.00    +0.000 NA
ATOM      9  C   UNL     1       7.148   4.999  14.299  0.00  0.00    +0.000 A 
ATOM     10  C   UNL     1       7.666   4.940  12.974  0.00  0.00    +0.000 A 
ATOM     11  C   UNL     1       7.056   4.179  12.046  0.00  0.00    +0.000 A 
ATOM     12  C   UNL     1       5.864   3.401  12.362  0.00  0.00    +0.000 A 
ATOM     13  C   UNL     1       5.226   2.571  11.291  0.00  0.00    +0.000 C 
ATOM     14  C   UNL     1       5.372   3.464  13.614  0.00  0.00    +0.000 A 
ATOM     15  N   UNL     1       6.002   4.258  14.579  0.00  0.00    +0.000 N 
ENDBRANCH   2   5
BRANCH   1  16
ATOM     16  C   UNL     1       3.645   2.037  17.859  0.00  0.00    +0.000 C 
BRANCH  16  17
ATOM     17  C   UNL     1       3.983   1.885  19.342  0.00  0.00    +0.000 C 
BRANCH  17  18
ATOM     18  O   UNL     1       4.462   3.139  19.836  0.00  0.00    +0.000 OA
BRANCH  18  22
ATOM     19  C   UNL     1       1.617   6.109  20.562  0.00  0.00    +0.000 A 
ATOM     20  C   UNL     1       2.855   6.398  19.989  0.00  0.00    +0.000 A 
ATOM     21  C   UNL     1       3.783   5.378  19.755  0.00  0.00    +0.000 A 
ATOM     22  C   UNL     1       3.496   4.063  20.128  0.00  0.00    +0.000 A 
ATOM     23  C   UNL     1       2.261   3.777  20.708  0.00  0.00    +0.000 A 
ATOM     24  C   UNL     1       1.326   4.795  20.928  0.00  0.00    +0.000 A 
BRANCH  19  26
ATOM     25  C   UNL     1       1.434   8.433  20.942  0.00  0.00    +0.000 C 
ATOM     26  O   UNL     1       0.786   7.180  20.747  0.00  0.00    +0.000 OA
ENDBRANCH  19  26
ENDBRANCH  18  22
ENDBRANCH  17  18
ENDBRANCH  16  17
ENDBRANCH   1  16
TORSDOF 6
ENDMDL
