MODEL 1
REMARK VINA RESULT:      -6.4      0.000      0.000
REMARK  Name = 
REMARK  22 active torsions:
REMARK  status: ('A' for Active; 'I' for Inactive)
REMARK    1  A    between atoms: C_1  and  C_2
REMARK    2  A    between atoms: C_2  and  C_3
REMARK    3  A    between atoms: C_3  and  C_4
REMARK    4  A    between atoms: C_4  and  N_5
REMARK    5  A    between atoms: N_5  and  C_6
REMARK    6  A    between atoms: C_7  and  C_9
REMARK    7  A    between atoms: C_9  and  C_10
REMARK    8  A    between atoms: C_10  and  C_11
REMARK    9  A    between atoms: C_11  and  C_12
REMARK   10  A    between atoms: C_12  and  C_13
REMARK   11  A    between atoms: C_13  and  C_14
REMARK   12  A    between atoms: C_14  and  C_15
REMARK   13  A    between atoms: C_15  and  C_16
REMARK   14  A    between atoms: C_16  and  C_17
REMARK   15  A    between atoms: C_17  and  C_18
REMARK   16  A    between atoms: C_18  and  S_19
REMARK   17  A    between atoms: S_19  and  C_20
REMARK   18  A    between atoms: C_20  and  C_21
REMARK   19  A    between atoms: C_20  and  C_29
REMARK   20  A    between atoms: C_21  and  C_22
REMARK   21  A    between atoms: C_25  and  O_26
REMARK   22  A    between atoms: C_32  and  O_33
REMARK                            x       y       z     vdW  Elec       q    Type
REMARK                         _______ _______ _______ _____ _____    ______ ____
ROOT
ATOM      1  S   UNL     1      -0.975  10.603  19.394  0.00  0.00    +0.000 S 
ENDROOT
BRANCH   1   2
ATOM      2  C   UNL     1      -1.336  12.073  20.497  0.00  0.00    +0.000 C 
BRANCH   2   3
ATOM      3  C   UNL     1      -0.237  13.124  20.311  0.00  0.00    +0.000 A 
ATOM      4  C   UNL     1       0.011  13.674  19.042  0.00  0.00    +0.000 A 
ATOM      5  C   UNL     1       1.004  14.613  18.842  0.00  0.00    +0.000 A 
ATOM      6  C   UNL     1       1.757  15.049  19.918  0.00  0.00    +0.000 A 
ATOM      7  C   UNL     1       1.532  14.551  21.190  0.00  0.00    +0.000 A 
ATOM      8  C   UNL     1       0.530  13.602  21.387  0.00  0.00    +0.000 A 
BRANCH   6   9
ATOM      9  O   UNL     1       2.721  15.999  19.773  0.00  0.00    +0.000 OA
ATOM     10  H   UNL     1       2.420  16.776  20.281  0.00  0.00    +0.000 HD
ENDBRANCH   6   9
ENDBRANCH   2   3
BRANCH   2  11
ATOM     11  C   UNL     1      -1.601  11.736  21.992  0.00  0.00    +0.000 C 
BRANCH  11  12
ATOM     12  C   UNL     1      -2.881  12.280  22.589  0.00  0.00    +0.000 A 
ATOM     13  C   UNL     1      -3.887  12.840  21.787  0.00  0.00    +0.000 A 
ATOM     14  C   UNL     1      -5.094  13.256  22.346  0.00  0.00    +0.000 A 
ATOM     15  C   UNL     1      -5.287  13.128  23.719  0.00  0.00    +0.000 A 
ATOM     16  C   UNL     1      -4.301  12.596  24.529  0.00  0.00    +0.000 A 
ATOM     17  C   UNL     1      -3.115  12.166  23.963  0.00  0.00    +0.000 A 
BRANCH  15  18
ATOM     18  O   UNL     1      -6.452  13.498  24.316  0.00  0.00    +0.000 OA
ATOM     19  H   UNL     1      -6.420  14.446  24.520  0.00  0.00    +0.000 HD
ENDBRANCH  15  18
ENDBRANCH  11  12
ENDBRANCH   2  11
ENDBRANCH   1   2
BRANCH   1  20
ATOM     20  C   UNL     1       0.700  10.146  19.860  0.00  0.00    +0.000 C 
BRANCH  20  21
ATOM     21  C   UNL     1       1.563  10.214  18.605  0.00  0.00    +0.000 C 
BRANCH  21  22
ATOM     22  C   UNL     1       1.394   8.937  17.790  0.00  0.00    +0.000 C 
BRANCH  22  23
ATOM     23  C   UNL     1       2.658   8.099  17.881  0.00  0.00    +0.000 C 
BRANCH  23  24
ATOM     24  C   UNL     1       2.376   6.745  18.511  0.00  0.00    +0.000 C 
BRANCH  24  25
ATOM     25  C   UNL     1       2.253   6.894  20.022  0.00  0.00    +0.000 C 
BRANCH  25  26
ATOM     26  C   UNL     1       1.837   5.575  20.653  0.00  0.00    +0.000 C 
BRANCH  26  27
ATOM     27  C   UNL     1       1.659   4.501  19.591  0.00  0.00    +0.000 C 
BRANCH  27  28
ATOM     28  C   UNL     1       2.091   3.150  20.136  0.00  0.00    +0.000 C 
BRANCH  28  29
ATOM     29  C   UNL     1       3.581   2.923  19.919  0.00  0.00    +0.000 C 
BRANCH  29  32
ATOM     30  N   UNL     1       4.868   3.959  18.083  0.00  0.00    +0.000 N 
ATOM     31  C   UNL     1       5.450   4.887  19.053  0.00  0.00    +0.000 C 
ATOM     32  C   UNL     1       3.939   2.988  18.452  0.00  0.00    +0.000 C 
ATOM     33  O   UNL     1       3.416   2.214  17.637  0.00  0.00    +0.000 OA
BRANCH  30  34
ATOM     34  C   UNL     1       5.214   4.083  16.665  0.00  0.00    +0.000 C 
BRANCH  34  35
ATOM     35  C   UNL     1       6.686   4.386  16.397  0.00  0.00    +0.000 C 
BRANCH  35  37
ATOM     36  C   UNL     1       6.156   3.967  13.999  0.00  0.00    +0.000 C 
ATOM     37  C   UNL     1       6.981   4.811  14.960  0.00  0.00    +0.000 C 
ENDBRANCH  35  37
ENDBRANCH  34  35
ENDBRANCH  30  34
ENDBRANCH  29  32
ENDBRANCH  28  29
ENDBRANCH  27  28
ENDBRANCH  26  27
ENDBRANCH  25  26
ENDBRANCH  24  25
ENDBRANCH  23  24
ENDBRANCH  22  23
ENDBRANCH  21  22
ENDBRANCH  20  21
ENDBRANCH   1  20
TORSDOF 20
ENDMDL
MODEL 2
REMARK VINA RESULT:      -6.4      2.915      4.640
REMARK  Name = 
REMARK  22 active torsions:
REMARK  status: ('A' for Active; 'I' for Inactive)
REMARK    1  A    between atoms: C_1  and  C_2
REMARK    2  A    between atoms: C_2  and  C_3
REMARK    3  A    between atoms: C_3  and  C_4
REMARK    4  A    between atoms: C_4  and  N_5
REMARK    5  A    between atoms: N_5  and  C_6
REMARK    6  A    between atoms: C_7  and  C_9
REMARK    7  A    between atoms: C_9  and  C_10
REMARK    8  A    between atoms: C_10  and  C_11
REMARK    9  A    between atoms: C_11  and  C_12
REMARK   10  A    between atoms: C_12  and  C_13
REMARK   11  A    between atoms: C_13  and  C_14
REMARK   12  A    between atoms: C_14  and  C_15
REMARK   13  A    between atoms: C_15  and  C_16
REMARK   14  A    between atoms: C_16  and  C_17
REMARK   15  A    between atoms: C_17  and  C_18
REMARK   16  A    between atoms: C_18  and  S_19
REMARK   17  A    between atoms: S_19  and  C_20
REMARK   18  A    between atoms: C_20  and  C_21
REMARK   19  A    between atoms: C_20  and  C_29
REMARK   20  A    between atoms: C_21  and  C_22
REMARK   21  A    between atoms: C_25  and  O_26
REMARK   22  A    between atoms: C_32  and  O_33
REMARK                            x       y       z     vdW  Elec       q    Type
REMARK                         _______ _______ _______ _____ _____    ______ ____
ROOT
ATOM      1  S   UNL     1      -0.431  11.119  21.900  0.00  0.00    +0.000 S 
ENDROOT
BRANCH   1   2
ATOM      2  C   UNL     1      -0.694  11.342  20.059  0.00  0.00    +0.000 C 
BRANCH   2   3
ATOM      3  C   UNL     1       0.498  12.103  19.469  0.00  0.00    +0.000 A 
ATOM      4  C   UNL     1       1.421  11.443  18.641  0.00  0.00    +0.000 A 
ATOM      5  C   UNL     1       2.512  12.100  18.106  0.00  0.00    +0.000 A 
ATOM      6  C   UNL     1       2.690  13.448  18.364  0.00  0.00    +0.000 A 
ATOM      7  C   UNL     1       1.792  14.143  19.156  0.00  0.00    +0.000 A 
ATOM      8  C   UNL     1       0.694  13.476  19.695  0.00  0.00    +0.000 A 
BRANCH   6   9
ATOM      9  O   UNL     1       3.731  14.143  17.828  0.00  0.00    +0.000 OA
ATOM     10  H   UNL     1       4.383  14.256  18.546  0.00  0.00    +0.000 HD
ENDBRANCH   6   9
ENDBRANCH   2   3
BRANCH   2  11
ATOM     11  C   UNL     1      -2.063  11.955  19.651  0.00  0.00    +0.000 C 
BRANCH  11  12
ATOM     12  C   UNL     1      -2.689  11.420  18.381  0.00  0.00    +0.000 A 
ATOM     13  C   UNL     1      -3.982  11.791  17.985  0.00  0.00    +0.000 A 
ATOM     14  C   UNL     1      -4.507  11.356  16.769  0.00  0.00    +0.000 A 
ATOM     15  C   UNL     1      -3.739  10.529  15.954  0.00  0.00    +0.000 A 
ATOM     16  C   UNL     1      -2.469  10.138  16.334  0.00  0.00    +0.000 A 
ATOM     17  C   UNL     1      -1.948  10.591  17.532  0.00  0.00    +0.000 A 
BRANCH  15  18
ATOM     18  O   UNL     1      -4.191  10.091  14.748  0.00  0.00    +0.000 OA
ATOM     19  H   UNL     1      -4.982  10.596  14.502  0.00  0.00    +0.000 HD
ENDBRANCH  15  18
ENDBRANCH  11  12
ENDBRANCH   2  11
ENDBRANCH   1   2
BRANCH   1  20
ATOM     20  C   UNL     1      -0.337   9.333  22.084  0.00  0.00    +0.000 C 
BRANCH  20  21
ATOM     21  C   UNL     1       1.037   8.890  21.593  0.00  0.00    +0.000 C 
BRANCH  21  22
ATOM     22  C   UNL     1       0.956   8.474  20.130  0.00  0.00    +0.000 C 
BRANCH  22  23
ATOM     23  C   UNL     1       2.166   7.629  19.768  0.00  0.00    +0.000 C 
BRANCH  23  24
ATOM     24  C   UNL     1       2.504   7.756  18.292  0.00  0.00    +0.000 C 
BRANCH  24  25
ATOM     25  C   UNL     1       3.394   6.597  17.863  0.00  0.00    +0.000 C 
BRANCH  25  26
ATOM     26  C   UNL     1       4.769   7.104  17.458  0.00  0.00    +0.000 C 
BRANCH  26  27
ATOM     27  C   UNL     1       5.516   6.050  16.655  0.00  0.00    +0.000 C 
BRANCH  27  28
ATOM     28  C   UNL     1       4.538   5.034  16.088  0.00  0.00    +0.000 C 
BRANCH  28  29
ATOM     29  C   UNL     1       4.860   3.630  16.581  0.00  0.00    +0.000 C 
BRANCH  29  32
ATOM     30  N   UNL     1       3.781   2.939  18.693  0.00  0.00    +0.000 N 
ATOM     31  C   UNL     1       4.969   3.397  19.415  0.00  0.00    +0.000 C 
ATOM     32  C   UNL     1       3.683   3.019  17.305  0.00  0.00    +0.000 C 
ATOM     33  O   UNL     1       2.695   2.608  16.678  0.00  0.00    +0.000 OA
BRANCH  30  34
ATOM     34  C   UNL     1       2.680   2.317  19.432  0.00  0.00    +0.000 C 
BRANCH  34  35
ATOM     35  C   UNL     1       2.722   2.543  20.940  0.00  0.00    +0.000 C 
BRANCH  35  37
ATOM     36  C   UNL     1       0.916   4.198  20.484  0.00  0.00    +0.000 C 
ATOM     37  C   UNL     1       1.469   3.212  21.503  0.00  0.00    +0.000 C 
ENDBRANCH  35  37
ENDBRANCH  34  35
ENDBRANCH  30  34
ENDBRANCH  29  32
ENDBRANCH  28  29
ENDBRANCH  27  28
ENDBRANCH  26  27
ENDBRANCH  25  26
ENDBRANCH  24  25
ENDBRANCH  23  24
ENDBRANCH  22  23
ENDBRANCH  21  22
ENDBRANCH  20  21
ENDBRANCH   1  20
TORSDOF 20
ENDMDL
MODEL 3
REMARK VINA RESULT:      -6.4      3.000      4.850
REMARK  Name = 
REMARK  22 active torsions:
REMARK  status: ('A' for Active; 'I' for Inactive)
REMARK    1  A    between atoms: C_1  and  C_2
REMARK    2  A    between atoms: C_2  and  C_3
REMARK    3  A    between atoms: C_3  and  C_4
REMARK    4  A    between atoms: C_4  and  N_5
REMARK    5  A    between atoms: N_5  and  C_6
REMARK    6  A    between atoms: C_7  and  C_9
REMARK    7  A    between atoms: C_9  and  C_10
REMARK    8  A    between atoms: C_10  and  C_11
REMARK    9  A    between atoms: C_11  and  C_12
REMARK   10  A    between atoms: C_12  and  C_13
REMARK   11  A    between atoms: C_13  and  C_14
REMARK   12  A    between atoms: C_14  and  C_15
REMARK   13  A    between atoms: C_15  and  C_16
REMARK   14  A    between atoms: C_16  and  C_17
REMARK   15  A    between atoms: C_17  and  C_18
REMARK   16  A    between atoms: C_18  and  S_19
REMARK   17  A    between atoms: S_19  and  C_20
REMARK   18  A    between atoms: C_20  and  C_21
REMARK   19  A    between atoms: C_20  and  C_29
REMARK   20  A    between atoms: C_21  and  C_22
REMARK   21  A    between atoms: C_25  and  O_26
REMARK   22  A    between atoms: C_32  and  O_33
REMARK                            x       y       z     vdW  Elec       q    Type
REMARK                         _______ _______ _______ _____ _____    ______ ____
ROOT
ATOM      1  S   UNL     1       1.120  10.931  19.143  0.00  0.00    +0.000 S 
ENDROOT
BRANCH   1   2
ATOM      2  C   UNL     1      -0.295  12.057  18.656  0.00  0.00    +0.000 C 
BRANCH   2   3
ATOM      3  C   UNL     1      -0.075  13.440  19.279  0.00  0.00    +0.000 A 
ATOM      4  C   UNL     1      -1.025  13.979  20.163  0.00  0.00    +0.000 A 
ATOM      5  C   UNL     1      -0.859  15.228  20.728  0.00  0.00    +0.000 A 
ATOM      6  C   UNL     1       0.280  15.960  20.444  0.00  0.00    +0.000 A 
ATOM      7  C   UNL     1       1.252  15.458  19.595  0.00  0.00    +0.000 A 
ATOM      8  C   UNL     1       1.081  14.198  19.026  0.00  0.00    +0.000 A 
BRANCH   6   9
ATOM      9  O   UNL     1       0.501  17.180  21.006  0.00  0.00    +0.000 OA
ATOM     10  H   UNL     1       0.501  17.040  21.972  0.00  0.00    +0.000 HD
ENDBRANCH   6   9
ENDBRANCH   2   3
BRANCH   2  11
ATOM     11  C   UNL     1      -1.719  11.493  18.927  0.00  0.00    +0.000 C 
BRANCH  11  12
ATOM     12  C   UNL     1      -2.510  11.052  17.714  0.00  0.00    +0.000 A 
ATOM     13  C   UNL     1      -3.790  11.559  17.447  0.00  0.00    +0.000 A 
ATOM     14  C   UNL     1      -4.466  11.207  16.280  0.00  0.00    +0.000 A 
ATOM     15  C   UNL     1      -3.864  10.326  15.385  0.00  0.00    +0.000 A 
ATOM     16  C   UNL     1      -2.611   9.801  15.639  0.00  0.00    +0.000 A 
ATOM     17  C   UNL     1      -1.939  10.173  16.789  0.00  0.00    +0.000 A 
BRANCH  15  18
ATOM     18  O   UNL     1      -4.468   9.963  14.221  0.00  0.00    +0.000 OA
ATOM     19  H   UNL     1      -5.239   9.408  14.421  0.00  0.00    +0.000 HD
ENDBRANCH  15  18
ENDBRANCH  11  12
ENDBRANCH   2  11
ENDBRANCH   1   2
BRANCH   1  20
ATOM     20  C   UNL     1       0.295   9.595  20.020  0.00  0.00    +0.000 C 
BRANCH  20  21
ATOM     21  C   UNL     1       1.338   8.899  20.888  0.00  0.00    +0.000 C 
BRANCH  21  22
ATOM     22  C   UNL     1       1.320   7.400  20.618  0.00  0.00    +0.000 C 
BRANCH  22  23
ATOM     23  C   UNL     1       2.600   6.990  19.909  0.00  0.00    +0.000 C 
BRANCH  23  24
ATOM     24  C   UNL     1       2.335   6.642  18.454  0.00  0.00    +0.000 C 
BRANCH  24  25
ATOM     25  C   UNL     1       3.100   7.596  17.546  0.00  0.00    +0.000 C 
BRANCH  25  26
ATOM     26  C   UNL     1       4.577   7.238  17.523  0.00  0.00    +0.000 C 
BRANCH  26  27
ATOM     27  C   UNL     1       4.904   6.380  16.310  0.00  0.00    +0.000 C 
BRANCH  27  28
ATOM     28  C   UNL     1       5.670   5.139  16.737  0.00  0.00    +0.000 C 
BRANCH  28  29
ATOM     29  C   UNL     1       4.718   4.022  17.142  0.00  0.00    +0.000 C 
BRANCH  29  32
ATOM     30  N   UNL     1       4.077   2.633  19.082  0.00  0.00    +0.000 N 
ATOM     31  C   UNL     1       3.175   1.881  18.208  0.00  0.00    +0.000 C 
ATOM     32  C   UNL     1       4.844   3.698  18.613  0.00  0.00    +0.000 C 
ATOM     33  O   UNL     1       5.591   4.362  19.347  0.00  0.00    +0.000 OA
BRANCH  30  34
ATOM     34  C   UNL     1       4.139   2.310  20.509  0.00  0.00    +0.000 C 
BRANCH  34  35
ATOM     35  C   UNL     1       2.793   2.352  21.227  0.00  0.00    +0.000 C 
BRANCH  35  37
ATOM     36  C   UNL     1       0.888   3.762  20.460  0.00  0.00    +0.000 C 
ATOM     37  C   UNL     1       2.165   3.744  21.288  0.00  0.00    +0.000 C 
ENDBRANCH  35  37
ENDBRANCH  34  35
ENDBRANCH  30  34
ENDBRANCH  29  32
ENDBRANCH  28  29
ENDBRANCH  27  28
ENDBRANCH  26  27
ENDBRANCH  25  26
ENDBRANCH  24  25
ENDBRANCH  23  24
ENDBRANCH  22  23
ENDBRANCH  21  22
ENDBRANCH  20  21
ENDBRANCH   1  20
TORSDOF 20
ENDMDL
MODEL 4
REMARK VINA RESULT:      -6.2      3.457      4.500
REMARK  Name = 
REMARK  22 active torsions:
REMARK  status: ('A' for Active; 'I' for Inactive)
REMARK    1  A    between atoms: C_1  and  C_2
REMARK    2  A    between atoms: C_2  and  C_3
REMARK    3  A    between atoms: C_3  and  C_4
REMARK    4  A    between atoms: C_4  and  N_5
REMARK    5  A    between atoms: N_5  and  C_6
REMARK    6  A    between atoms: C_7  and  C_9
REMARK    7  A    between atoms: C_9  and  C_10
REMARK    8  A    between atoms: C_10  and  C_11
REMARK    9  A    between atoms: C_11  and  C_12
REMARK   10  A    between atoms: C_12  and  C_13
REMARK   11  A    between atoms: C_13  and  C_14
REMARK   12  A    between atoms: C_14  and  C_15
REMARK   13  A    between atoms: C_15  and  C_16
REMARK   14  A    between atoms: C_16  and  C_17
REMARK   15  A    between atoms: C_17  and  C_18
REMARK   16  A    between atoms: C_18  and  S_19
REMARK   17  A    between atoms: S_19  and  C_20
REMARK   18  A    between atoms: C_20  and  C_21
REMARK   19  A    between atoms: C_20  and  C_29
REMARK   20  A    between atoms: C_21  and  C_22
REMARK   21  A    between atoms: C_25  and  O_26
REMARK   22  A    between atoms: C_32  and  O_33
REMARK                            x       y       z     vdW  Elec       q    Type
REMARK                         _______ _______ _______ _____ _____    ______ ____
ROOT
ATOM      1  S   UNL     1       0.147   9.862  19.153  0.00  0.00    +0.000 S 
ENDROOT
BRANCH   1   2
ATOM      2  C   UNL     1      -1.438  10.852  19.284  0.00  0.00    +0.000 C 
BRANCH   2   3
ATOM      3  C   UNL     1      -2.225  10.718  17.977  0.00  0.00    +0.000 A 
ATOM      4  C   UNL     1      -3.418  11.436  17.791  0.00  0.00    +0.000 A 
ATOM      5  C   UNL     1      -4.156  11.325  16.629  0.00  0.00    +0.000 A 
ATOM      6  C   UNL     1      -3.699  10.511  15.607  0.00  0.00    +0.000 A 
ATOM      7  C   UNL     1      -2.517   9.802  15.739  0.00  0.00    +0.000 A 
ATOM      8  C   UNL     1      -1.777   9.916  16.914  0.00  0.00    +0.000 A 
BRANCH   6   9
ATOM      9  O   UNL     1      -4.376  10.399  14.431  0.00  0.00    +0.000 OA
ATOM     10  H   UNL     1      -4.224   9.489  14.113  0.00  0.00    +0.000 HD
ENDBRANCH   6   9
ENDBRANCH   2   3
BRANCH   2  11
ATOM     11  C   UNL     1      -1.264  12.330  19.736  0.00  0.00    +0.000 C 
BRANCH  11  12
ATOM     12  C   UNL     1      -1.871  12.701  21.073  0.00  0.00    +0.000 A 
ATOM     13  C   UNL     1      -3.235  12.516  21.338  0.00  0.00    +0.000 A 
ATOM     14  C   UNL     1      -3.757  12.783  22.603  0.00  0.00    +0.000 A 
ATOM     15  C   UNL     1      -2.911  13.257  23.602  0.00  0.00    +0.000 A 
ATOM     16  C   UNL     1      -1.567  13.464  23.354  0.00  0.00    +0.000 A 
ATOM     17  C   UNL     1      -1.054  13.176  22.103  0.00  0.00    +0.000 A 
BRANCH  15  18
ATOM     18  O   UNL     1      -3.361  13.515  24.859  0.00  0.00    +0.000 OA
ATOM     19  H   UNL     1      -2.701  13.212  25.503  0.00  0.00    +0.000 HD
ENDBRANCH  15  18
ENDBRANCH  11  12
ENDBRANCH   2  11
ENDBRANCH   1   2
BRANCH   1  20
ATOM     20  C   UNL     1       0.550   9.508  20.869  0.00  0.00    +0.000 C 
BRANCH  20  21
ATOM     21  C   UNL     1       1.643   8.445  20.876  0.00  0.00    +0.000 C 
BRANCH  21  22
ATOM     22  C   UNL     1       1.037   7.076  20.592  0.00  0.00    +0.000 C 
BRANCH  22  23
ATOM     23  C   UNL     1       2.132   6.103  20.190  0.00  0.00    +0.000 C 
BRANCH  23  24
ATOM     24  C   UNL     1       1.921   4.741  20.832  0.00  0.00    +0.000 C 
BRANCH  24  25
ATOM     25  C   UNL     1       1.563   3.716  19.764  0.00  0.00    +0.000 C 
BRANCH  25  26
ATOM     26  C   UNL     1       2.186   4.098  18.431  0.00  0.00    +0.000 C 
BRANCH  26  27
ATOM     27  C   UNL     1       3.422   3.257  18.153  0.00  0.00    +0.000 C 
BRANCH  27  28
ATOM     28  C   UNL     1       4.672   4.003  18.589  0.00  0.00    +0.000 C 
BRANCH  28  29
ATOM     29  C   UNL     1       5.593   4.266  17.405  0.00  0.00    +0.000 C 
BRANCH  29  32
ATOM     30  N   UNL     1       6.804   6.408  17.618  0.00  0.00    +0.000 N 
ATOM     31  C   UNL     1       5.662   7.082  16.999  0.00  0.00    +0.000 C 
ATOM     32  C   UNL     1       6.826   5.031  17.828  0.00  0.00    +0.000 C 
ATOM     33  O   UNL     1       7.799   4.443  18.325  0.00  0.00    +0.000 OA
BRANCH  30  34
ATOM     34  C   UNL     1       7.994   7.183  17.977  0.00  0.00    +0.000 C 
BRANCH  34  35
ATOM     35  C   UNL     1       7.837   8.693  17.821  0.00  0.00    +0.000 C 
BRANCH  35  37
ATOM     36  C   UNL     1       9.312  10.691  18.022  0.00  0.00    +0.000 C 
ATOM     37  C   UNL     1       8.712   9.510  18.771  0.00  0.00    +0.000 C 
ENDBRANCH  35  37
ENDBRANCH  34  35
ENDBRANCH  30  34
ENDBRANCH  29  32
ENDBRANCH  28  29
ENDBRANCH  27  28
ENDBRANCH  26  27
ENDBRANCH  25  26
ENDBRANCH  24  25
ENDBRANCH  23  24
ENDBRANCH  22  23
ENDBRANCH  21  22
ENDBRANCH  20  21
ENDBRANCH   1  20
TORSDOF 20
ENDMDL
MODEL 5
REMARK VINA RESULT:      -6.2      3.362     11.336
REMARK  Name = 
REMARK  22 active torsions:
REMARK  status: ('A' for Active; 'I' for Inactive)
REMARK    1  A    between atoms: C_1  and  C_2
REMARK    2  A    between atoms: C_2  and  C_3
REMARK    3  A    between atoms: C_3  and  C_4
REMARK    4  A    between atoms: C_4  and  N_5
REMARK    5  A    between atoms: N_5  and  C_6
REMARK    6  A    between atoms: C_7  and  C_9
REMARK    7  A    between atoms: C_9  and  C_10
REMARK    8  A    between atoms: C_10  and  C_11
REMARK    9  A    between atoms: C_11  and  C_12
REMARK   10  A    between atoms: C_12  and  C_13
REMARK   11  A    between atoms: C_13  and  C_14
REMARK   12  A    between atoms: C_14  and  C_15
REMARK   13  A    between atoms: C_15  and  C_16
REMARK   14  A    between atoms: C_16  and  C_17
REMARK   15  A    between atoms: C_17  and  C_18
REMARK   16  A    between atoms: C_18  and  S_19
REMARK   17  A    between atoms: S_19  and  C_20
REMARK   18  A    between atoms: C_20  and  C_21
REMARK   19  A    between atoms: C_20  and  C_29
REMARK   20  A    between atoms: C_21  and  C_22
REMARK   21  A    between atoms: C_25  and  O_26
REMARK   22  A    between atoms: C_32  and  O_33
REMARK                            x       y       z     vdW  Elec       q    Type
REMARK                         _______ _______ _______ _____ _____    ______ ____
ROOT
ATOM      1  S   UNL     1       4.815   5.726  18.947  0.00  0.00    +0.000 S 
ENDROOT
BRANCH   1   2
ATOM      2  C   UNL     1       5.124   4.125  18.025  0.00  0.00    +0.000 C 
BRANCH   2   3
ATOM      3  C   UNL     1       5.800   4.437  16.686  0.00  0.00    +0.000 A 
ATOM      4  C   UNL     1       5.116   4.221  15.478  0.00  0.00    +0.000 A 
ATOM      5  C   UNL     1       5.706   4.480  14.257  0.00  0.00    +0.000 A 
ATOM      6  C   UNL     1       6.991   4.993  14.215  0.00  0.00    +0.000 A 
ATOM      7  C   UNL     1       7.694   5.242  15.382  0.00  0.00    +0.000 A 
ATOM      8  C   UNL     1       7.095   4.977  16.612  0.00  0.00    +0.000 A 
BRANCH   6   9
ATOM      9  O   UNL     1       7.597   5.297  13.035  0.00  0.00    +0.000 OA
ATOM     10  H   UNL     1       8.390   4.731  12.980  0.00  0.00    +0.000 HD
ENDBRANCH   6   9
ENDBRANCH   2   3
BRANCH   2  11
ATOM     11  C   UNL     1       3.888   3.194  17.874  0.00  0.00    +0.000 C 
BRANCH  11  12
ATOM     12  C   UNL     1       3.072   2.949  19.125  0.00  0.00    +0.000 A 
ATOM     13  C   UNL     1       3.662   2.483  20.309  0.00  0.00    +0.000 A 
ATOM     14  C   UNL     1       2.909   2.348  21.474  0.00  0.00    +0.000 A 
ATOM     15  C   UNL     1       1.552   2.661  21.448  0.00  0.00    +0.000 A 
ATOM     16  C   UNL     1       0.948   3.104  20.286  0.00  0.00    +0.000 A 
ATOM     17  C   UNL     1       1.708   3.257  19.141  0.00  0.00    +0.000 A 
BRANCH  15  18
ATOM     18  O   UNL     1       0.774   2.568  22.560  0.00  0.00    +0.000 OA
ATOM     19  H   UNL     1       0.463   3.452  22.808  0.00  0.00    +0.000 HD
ENDBRANCH  15  18
ENDBRANCH  11  12
ENDBRANCH   2  11
ENDBRANCH   1   2
BRANCH   1  20
ATOM     20  C   UNL     1       4.145   6.805  17.674  0.00  0.00    +0.000 C 
BRANCH  20  21
ATOM     21  C   UNL     1       2.646   6.936  17.922  0.00  0.00    +0.000 C 
BRANCH  21  22
ATOM     22  C   UNL     1       2.366   6.934  19.420  0.00  0.00    +0.000 C 
BRANCH  22  23
ATOM     23  C   UNL     1       1.750   8.262  19.829  0.00  0.00    +0.000 C 
BRANCH  23  24
ATOM     24  C   UNL     1       1.634   9.202  18.641  0.00  0.00    +0.000 C 
BRANCH  24  25
ATOM     25  C   UNL     1       0.201   9.703  18.515  0.00  0.00    +0.000 C 
BRANCH  25  26
ATOM     26  C   UNL     1      -0.100  10.729  19.596  0.00  0.00    +0.000 C 
BRANCH  26  27
ATOM     27  C   UNL     1       1.111  11.612  19.853  0.00  0.00    +0.000 C 
BRANCH  27  28
ATOM     28  C   UNL     1       0.764  12.697  20.859  0.00  0.00    +0.000 C 
BRANCH  28  29
ATOM     29  C   UNL     1      -0.745  12.859  20.990  0.00  0.00    +0.000 C 
BRANCH  29  32
ATOM     30  N   UNL     1      -1.665  14.251  22.811  0.00  0.00    +0.000 N 
ATOM     31  C   UNL     1      -1.770  15.364  21.867  0.00  0.00    +0.000 C 
ATOM     32  C   UNL     1      -1.158  13.008  22.436  0.00  0.00    +0.000 C 
ATOM     33  O   UNL     1      -1.036  12.064  23.232  0.00  0.00    +0.000 OA
BRANCH  30  34
ATOM     34  C   UNL     1      -2.041  14.452  24.212  0.00  0.00    +0.000 C 
BRANCH  34  35
ATOM     35  C   UNL     1      -3.491  14.874  24.424  0.00  0.00    +0.000 C 
BRANCH  35  37
ATOM     36  C   UNL     1      -4.275  12.520  24.648  0.00  0.00    +0.000 C 
ATOM     37  C   UNL     1      -4.515  13.847  23.942  0.00  0.00    +0.000 C 
ENDBRANCH  35  37
ENDBRANCH  34  35
ENDBRANCH  30  34
ENDBRANCH  29  32
ENDBRANCH  28  29
ENDBRANCH  27  28
ENDBRANCH  26  27
ENDBRANCH  25  26
ENDBRANCH  24  25
ENDBRANCH  23  24
ENDBRANCH  22  23
ENDBRANCH  21  22
ENDBRANCH  20  21
ENDBRANCH   1  20
TORSDOF 20
ENDMDL
MODEL 6
REMARK VINA RESULT:      -6.1      3.138      4.313
REMARK  Name = 
REMARK  22 active torsions:
REMARK  status: ('A' for Active; 'I' for Inactive)
REMARK    1  A    between atoms: C_1  and  C_2
REMARK    2  A    between atoms: C_2  and  C_3
REMARK    3  A    between atoms: C_3  and  C_4
REMARK    4  A    between atoms: C_4  and  N_5
REMARK    5  A    between atoms: N_5  and  C_6
REMARK    6  A    between atoms: C_7  and  C_9
REMARK    7  A    between atoms: C_9  and  C_10
REMARK    8  A    between atoms: C_10  and  C_11
REMARK    9  A    between atoms: C_11  and  C_12
REMARK   10  A    between atoms: C_12  and  C_13
REMARK   11  A    between atoms: C_13  and  C_14
REMARK   12  A    between atoms: C_14  and  C_15
REMARK   13  A    between atoms: C_15  and  C_16
REMARK   14  A    between atoms: C_16  and  C_17
REMARK   15  A    between atoms: C_17  and  C_18
REMARK   16  A    between atoms: C_18  and  S_19
REMARK   17  A    between atoms: S_19  and  C_20
REMARK   18  A    between atoms: C_20  and  C_21
REMARK   19  A    between atoms: C_20  and  C_29
REMARK   20  A    between atoms: C_21  and  C_22
REMARK   21  A    between atoms: C_25  and  O_26
REMARK   22  A    between atoms: C_32  and  O_33
REMARK                            x       y       z     vdW  Elec       q    Type
REMARK                         _______ _______ _______ _____ _____    ______ ____
ROOT
ATOM      1  S   UNL     1       0.346   9.969  20.545  0.00  0.00    +0.000 S 
ENDROOT
BRANCH   1   2
ATOM      2  C   UNL     1      -0.240  10.965  19.071  0.00  0.00    +0.000 C 
BRANCH   2   3
ATOM      3  C   UNL     1       0.576  12.259  18.980  0.00  0.00    +0.000 A 
ATOM      4  C   UNL     1       0.012  13.482  19.381  0.00  0.00    +0.000 A 
ATOM      5  C   UNL     1       0.719  14.666  19.298  0.00  0.00    +0.000 A 
ATOM      6  C   UNL     1       2.024  14.649  18.838  0.00  0.00    +0.000 A 
ATOM      7  C   UNL     1       2.626  13.463  18.453  0.00  0.00    +0.000 A 
ATOM      8  C   UNL     1       1.909  12.272  18.537  0.00  0.00    +0.000 A 
BRANCH   6   9
ATOM      9  O   UNL     1       2.770  15.787  18.773  0.00  0.00    +0.000 OA
ATOM     10  H   UNL     1       3.687  15.504  18.597  0.00  0.00    +0.000 HD
ENDBRANCH   6   9
ENDBRANCH   2   3
BRANCH   2  11
ATOM     11  C   UNL     1      -1.774  11.212  19.001  0.00  0.00    +0.000 C 
BRANCH  11  12
ATOM     12  C   UNL     1      -2.445  10.908  17.679  0.00  0.00    +0.000 A 
ATOM     13  C   UNL     1      -1.883  10.014  16.757  0.00  0.00    +0.000 A 
ATOM     14  C   UNL     1      -2.559   9.681  15.584  0.00  0.00    +0.000 A 
ATOM     15  C   UNL     1      -3.797  10.263  15.325  0.00  0.00    +0.000 A 
ATOM     16  C   UNL     1      -4.360  11.161  16.213  0.00  0.00    +0.000 A 
ATOM     17  C   UNL     1      -3.692  11.468  17.383  0.00  0.00    +0.000 A 
BRANCH  15  18
ATOM     18  O   UNL     1      -4.511   9.960  14.207  0.00  0.00    +0.000 OA
ATOM     19  H   UNL     1      -5.441  10.198  14.347  0.00  0.00    +0.000 HD
ENDBRANCH  15  18
ENDBRANCH  11  12
ENDBRANCH   2  11
ENDBRANCH   1   2
BRANCH   1  20
ATOM     20  C   UNL     1       1.497   8.797  19.814  0.00  0.00    +0.000 C 
BRANCH  20  21
ATOM     21  C   UNL     1       1.685   7.655  20.806  0.00  0.00    +0.000 C 
BRANCH  21  22
ATOM     22  C   UNL     1       1.911   6.348  20.056  0.00  0.00    +0.000 C 
BRANCH  22  23
ATOM     23  C   UNL     1       1.601   5.173  20.968  0.00  0.00    +0.000 C 
BRANCH  23  24
ATOM     24  C   UNL     1       0.893   4.062  20.211  0.00  0.00    +0.000 C 
BRANCH  24  25
ATOM     25  C   UNL     1       1.463   2.711  20.623  0.00  0.00    +0.000 C 
BRANCH  25  26
ATOM     26  C   UNL     1       2.791   2.890  21.341  0.00  0.00    +0.000 C 
BRANCH  26  27
ATOM     27  C   UNL     1       3.797   1.846  20.880  0.00  0.00    +0.000 C 
BRANCH  27  28
ATOM     28  C   UNL     1       4.216   2.120  19.445  0.00  0.00    +0.000 C 
BRANCH  28  29
ATOM     29  C   UNL     1       4.602   3.581  19.258  0.00  0.00    +0.000 C 
BRANCH  29  32
ATOM     30  N   UNL     1       5.837   4.420  17.290  0.00  0.00    +0.000 N 
ATOM     31  C   UNL     1       7.027   4.554  18.131  0.00  0.00    +0.000 C 
ATOM     32  C   UNL     1       4.622   3.960  17.795  0.00  0.00    +0.000 C 
ATOM     33  O   UNL     1       3.598   3.868  17.101  0.00  0.00    +0.000 OA
BRANCH  30  34
ATOM     34  C   UNL     1       5.892   4.836  15.886  0.00  0.00    +0.000 C 
BRANCH  34  35
ATOM     35  C   UNL     1       5.236   6.183  15.600  0.00  0.00    +0.000 C 
BRANCH  35  37
ATOM     36  C   UNL     1       3.943   7.451  17.311  0.00  0.00    +0.000 C 
ATOM     37  C   UNL     1       5.333   7.180  16.754  0.00  0.00    +0.000 C 
ENDBRANCH  35  37
ENDBRANCH  34  35
ENDBRANCH  30  34
ENDBRANCH  29  32
ENDBRANCH  28  29
ENDBRANCH  27  28
ENDBRANCH  26  27
ENDBRANCH  25  26
ENDBRANCH  24  25
ENDBRANCH  23  24
ENDBRANCH  22  23
ENDBRANCH  21  22
ENDBRANCH  20  21
ENDBRANCH   1  20
TORSDOF 20
ENDMDL
MODEL 7
REMARK VINA RESULT:      -6.1      3.380     10.948
REMARK  Name = 
REMARK  22 active torsions:
REMARK  status: ('A' for Active; 'I' for Inactive)
REMARK    1  A    between atoms: C_1  and  C_2
REMARK    2  A    between atoms: C_2  and  C_3
REMARK    3  A    between atoms: C_3  and  C_4
REMARK    4  A    between atoms: C_4  and  N_5
REMARK    5  A    between atoms: N_5  and  C_6
REMARK    6  A    between atoms: C_7  and  C_9
REMARK    7  A    between atoms: C_9  and  C_10
REMARK    8  A    between atoms: C_10  and  C_11
REMARK    9  A    between atoms: C_11  and  C_12
REMARK   10  A    between atoms: C_12  and  C_13
REMARK   11  A    between atoms: C_13  and  C_14
REMARK   12  A    between atoms: C_14  and  C_15
REMARK   13  A    between atoms: C_15  and  C_16
REMARK   14  A    between atoms: C_16  and  C_17
REMARK   15  A    between atoms: C_17  and  C_18
REMARK   16  A    between atoms: C_18  and  S_19
REMARK   17  A    between atoms: S_19  and  C_20
REMARK   18  A    between atoms: C_20  and  C_21
REMARK   19  A    between atoms: C_20  and  C_29
REMARK   20  A    between atoms: C_21  and  C_22
REMARK   21  A    between atoms: C_25  and  O_26
REMARK   22  A    between atoms: C_32  and  O_33
REMARK                            x       y       z     vdW  Elec       q    Type
REMARK                         _______ _______ _______ _____ _____    ______ ____
ROOT
ATOM      1  S   UNL     1       5.537   6.370  17.501  0.00  0.00    +0.000 S 
ENDROOT
BRANCH   1   2
ATOM      2  C   UNL     1       5.168   4.656  16.843  0.00  0.00    +0.000 C 
BRANCH   2   3
ATOM      3  C   UNL     1       5.767   4.514  15.440  0.00  0.00    +0.000 A 
ATOM      4  C   UNL     1       5.083   3.797  14.445  0.00  0.00    +0.000 A 
ATOM      5  C   UNL     1       5.606   3.642  13.176  0.00  0.00    +0.000 A 
ATOM      6  C   UNL     1       6.818   4.230  12.861  0.00  0.00    +0.000 A 
ATOM      7  C   UNL     1       7.516   4.965  13.805  0.00  0.00    +0.000 A 
ATOM      8  C   UNL     1       6.986   5.117  15.084  0.00  0.00    +0.000 A 
BRANCH   6   9
ATOM      9  O   UNL     1       7.353   4.133  11.613  0.00  0.00    +0.000 OA
ATOM     10  H   UNL     1       7.324   5.031  11.232  0.00  0.00    +0.000 HD
ENDBRANCH   6   9
ENDBRANCH   2   3
BRANCH   2  11
ATOM     11  C   UNL     1       3.675   4.224  16.908  0.00  0.00    +0.000 C 
BRANCH  11  12
ATOM     12  C   UNL     1       3.132   3.884  18.279  0.00  0.00    +0.000 A 
ATOM     13  C   UNL     1       1.791   4.117  18.617  0.00  0.00    +0.000 A 
ATOM     14  C   UNL     1       1.289   3.716  19.854  0.00  0.00    +0.000 A 
ATOM     15  C   UNL     1       2.140   3.097  20.766  0.00  0.00    +0.000 A 
ATOM     16  C   UNL     1       3.470   2.875  20.458  0.00  0.00    +0.000 A 
ATOM     17  C   UNL     1       3.953   3.256  19.220  0.00  0.00    +0.000 A 
BRANCH  15  18
ATOM     18  O   UNL     1       1.701   2.667  21.979  0.00  0.00    +0.000 OA
ATOM     19  H   UNL     1       1.711   1.697  21.997  0.00  0.00    +0.000 HD
ENDBRANCH  15  18
ENDBRANCH  11  12
ENDBRANCH   2  11
ENDBRANCH   1   2
BRANCH   1  20
ATOM     20  C   UNL     1       4.073   7.307  17.040  0.00  0.00    +0.000 C 
BRANCH  20  21
ATOM     21  C   UNL     1       3.231   7.495  18.298  0.00  0.00    +0.000 C 
BRANCH  21  22
ATOM     22  C   UNL     1       1.938   8.222  17.952  0.00  0.00    +0.000 C 
BRANCH  22  23
ATOM     23  C   UNL     1       1.418   8.955  19.178  0.00  0.00    +0.000 C 
BRANCH  23  24
ATOM     24  C   UNL     1       1.073  10.398  18.850  0.00  0.00    +0.000 C 
BRANCH  24  25
ATOM     25  C   UNL     1      -0.432  10.606  18.951  0.00  0.00    +0.000 C 
BRANCH  25  26
ATOM     26  C   UNL     1      -0.825  11.949  18.357  0.00  0.00    +0.000 C 
BRANCH  26  27
ATOM     27  C   UNL     1       0.296  12.962  18.529  0.00  0.00    +0.000 C 
BRANCH  27  28
ATOM     28  C   UNL     1      -0.280  14.329  18.861  0.00  0.00    +0.000 C 
BRANCH  28  29
ATOM     29  C   UNL     1       0.308  14.870  20.157  0.00  0.00    +0.000 C 
BRANCH  29  32
ATOM     30  N   UNL     1      -0.945  13.590  21.859  0.00  0.00    +0.000 N 
ATOM     31  C   UNL     1      -2.150  14.331  21.486  0.00  0.00    +0.000 C 
ATOM     32  C   UNL     1       0.286  13.824  21.249  0.00  0.00    +0.000 C 
ATOM     33  O   UNL     1       1.322  13.225  21.574  0.00  0.00    +0.000 OA
BRANCH  30  34
ATOM     34  C   UNL     1      -1.003  12.613  22.949  0.00  0.00    +0.000 C 
BRANCH  34  35
ATOM     35  C   UNL     1      -1.302  11.185  22.503  0.00  0.00    +0.000 C 
BRANCH  35  37
ATOM     36  C   UNL     1      -0.530   8.833  22.219  0.00  0.00    +0.000 C 
ATOM     37  C   UNL     1      -0.190  10.188  22.824  0.00  0.00    +0.000 C 
ENDBRANCH  35  37
ENDBRANCH  34  35
ENDBRANCH  30  34
ENDBRANCH  29  32
ENDBRANCH  28  29
ENDBRANCH  27  28
ENDBRANCH  26  27
ENDBRANCH  25  26
ENDBRANCH  24  25
ENDBRANCH  23  24
ENDBRANCH  22  23
ENDBRANCH  21  22
ENDBRANCH  20  21
ENDBRANCH   1  20
TORSDOF 20
ENDMDL
MODEL 8
REMARK VINA RESULT:      -6.1      4.554     10.611
REMARK  Name = 
REMARK  22 active torsions:
REMARK  status: ('A' for Active; 'I' for Inactive)
REMARK    1  A    between atoms: C_1  and  C_2
REMARK    2  A    between atoms: C_2  and  C_3
REMARK    3  A    between atoms: C_3  and  C_4
REMARK    4  A    between atoms: C_4  and  N_5
REMARK    5  A    between atoms: N_5  and  C_6
REMARK    6  A    between atoms: C_7  and  C_9
REMARK    7  A    between atoms: C_9  and  C_10
REMARK    8  A    between atoms: C_10  and  C_11
REMARK    9  A    between atoms: C_11  and  C_12
REMARK   10  A    between atoms: C_12  and  C_13
REMARK   11  A    between atoms: C_13  and  C_14
REMARK   12  A    between atoms: C_14  and  C_15
REMARK   13  A    between atoms: C_15  and  C_16
REMARK   14  A    between atoms: C_16  and  C_17
REMARK   15  A    between atoms: C_17  and  C_18
REMARK   16  A    between atoms: C_18  and  S_19
REMARK   17  A    between atoms: S_19  and  C_20
REMARK   18  A    between atoms: C_20  and  C_21
REMARK   19  A    between atoms: C_20  and  C_29
REMARK   20  A    between atoms: C_21  and  C_22
REMARK   21  A    between atoms: C_25  and  O_26
REMARK   22  A    between atoms: C_32  and  O_33
REMARK                            x       y       z     vdW  Elec       q    Type
REMARK                         _______ _______ _______ _____ _____    ______ ____
ROOT
ATOM      1  S   UNL     1       2.643   8.314  17.790  0.00  0.00    +0.000 S 
ENDROOT
BRANCH   1   2
ATOM      2  C   UNL     1       3.221   6.758  18.658  0.00  0.00    +0.000 C 
BRANCH   2   3
ATOM      3  C   UNL     1       4.457   6.209  17.937  0.00  0.00    +0.000 A 
ATOM      4  C   UNL     1       5.550   5.724  18.673  0.00  0.00    +0.000 A 
ATOM      5  C   UNL     1       6.683   5.236  18.050  0.00  0.00    +0.000 A 
ATOM      6  C   UNL     1       6.735   5.193  16.668  0.00  0.00    +0.000 A 
ATOM      7  C   UNL     1       5.671   5.640  15.903  0.00  0.00    +0.000 A 
ATOM      8  C   UNL     1       4.532   6.134  16.536  0.00  0.00    +0.000 A 
BRANCH   6   9
ATOM      9  O   UNL     1       7.816   4.688  16.013  0.00  0.00    +0.000 OA
ATOM     10  H   UNL     1       7.585   4.684  15.065  0.00  0.00    +0.000 HD
ENDBRANCH   6   9
ENDBRANCH   2   3
BRANCH   2  11
ATOM     11  C   UNL     1       2.127   5.678  18.888  0.00  0.00    +0.000 C 
BRANCH  11  12
ATOM     12  C   UNL     1       2.575   4.235  18.797  0.00  0.00    +0.000 A 
ATOM     13  C   UNL     1       2.356   3.468  17.644  0.00  0.00    +0.000 A 
ATOM     14  C   UNL     1       2.853   2.169  17.548  0.00  0.00    +0.000 A 
ATOM     15  C   UNL     1       3.556   1.628  18.622  0.00  0.00    +0.000 A 
ATOM     16  C   UNL     1       3.766   2.362  19.774  0.00  0.00    +0.000 A 
ATOM     17  C   UNL     1       3.288   3.657  19.852  0.00  0.00    +0.000 A 
BRANCH  15  18
ATOM     18  O   UNL     1       4.081   0.374  18.576  0.00  0.00    +0.000 OA
ATOM     19  H   UNL     1       3.513  -0.228  19.081  0.00  0.00    +0.000 HD
ENDBRANCH  15  18
ENDBRANCH  11  12
ENDBRANCH   2  11
ENDBRANCH   1   2
BRANCH   1  20
ATOM     20  C   UNL     1       1.549   9.072  18.999  0.00  0.00    +0.000 C 
BRANCH  20  21
ATOM     21  C   UNL     1       1.246  10.489  18.523  0.00  0.00    +0.000 C 
BRANCH  21  22
ATOM     22  C   UNL     1       0.720  11.325  19.683  0.00  0.00    +0.000 C 
BRANCH  22  23
ATOM     23  C   UNL     1       1.110  12.780  19.486  0.00  0.00    +0.000 C 
BRANCH  23  24
ATOM     24  C   UNL     1       2.118  12.931  18.359  0.00  0.00    +0.000 C 
BRANCH  24  25
ATOM     25  C   UNL     1       3.192  13.935  18.757  0.00  0.00    +0.000 C 
BRANCH  25  26
ATOM     26  C   UNL     1       3.269  15.062  17.739  0.00  0.00    +0.000 C 
BRANCH  26  27
ATOM     27  C   UNL     1       4.070  16.231  18.291  0.00  0.00    +0.000 C 
BRANCH  27  28
ATOM     28  C   UNL     1       5.165  15.726  19.216  0.00  0.00    +0.000 C 
BRANCH  28  29
ATOM     29  C   UNL     1       6.538  16.171  18.733  0.00  0.00    +0.000 C 
BRANCH  29  32
ATOM     30  N   UNL     1       8.569  14.840  19.187  0.00  0.00    +0.000 N 
ATOM     31  C   UNL     1       8.923  15.794  20.239  0.00  0.00    +0.000 C 
ATOM     32  C   UNL     1       7.420  14.986  18.413  0.00  0.00    +0.000 C 
ATOM     33  O   UNL     1       7.122  14.202  17.499  0.00  0.00    +0.000 OA
BRANCH  30  34
ATOM     34  C   UNL     1       9.472  13.728  18.885  0.00  0.00    +0.000 C 
BRANCH  34  35
ATOM     35  C   UNL     1       9.283  12.500  19.772  0.00  0.00    +0.000 C 
BRANCH  35  37
ATOM     36  C   UNL     1      10.378  11.339  17.859  0.00  0.00    +0.000 C 
ATOM     37  C   UNL     1       9.423  11.171  19.031  0.00  0.00    +0.000 C 
ENDBRANCH  35  37
ENDBRANCH  34  35
ENDBRANCH  30  34
ENDBRANCH  29  32
ENDBRANCH  28  29
ENDBRANCH  27  28
ENDBRANCH  26  27
ENDBRANCH  25  26
ENDBRANCH  24  25
ENDBRANCH  23  24
ENDBRANCH  22  23
ENDBRANCH  21  22
ENDBRANCH  20  21
ENDBRANCH   1  20
TORSDOF 20
ENDMDL
MODEL 9
REMARK VINA RESULT:      -6.1      1.745      5.050
REMARK  Name = 
REMARK  22 active torsions:
REMARK  status: ('A' for Active; 'I' for Inactive)
REMARK    1  A    between atoms: C_1  and  C_2
REMARK    2  A    between atoms: C_2  and  C_3
REMARK    3  A    between atoms: C_3  and  C_4
REMARK    4  A    between atoms: C_4  and  N_5
REMARK    5  A    between atoms: N_5  and  C_6
REMARK    6  A    between atoms: C_7  and  C_9
REMARK    7  A    between atoms: C_9  and  C_10
REMARK    8  A    between atoms: C_10  and  C_11
REMARK    9  A    between atoms: C_11  and  C_12
REMARK   10  A    between atoms: C_12  and  C_13
REMARK   11  A    between atoms: C_13  and  C_14
REMARK   12  A    between atoms: C_14  and  C_15
REMARK   13  A    between atoms: C_15  and  C_16
REMARK   14  A    between atoms: C_16  and  C_17
REMARK   15  A    between atoms: C_17  and  C_18
REMARK   16  A    between atoms: C_18  and  S_19
REMARK   17  A    between atoms: S_19  and  C_20
REMARK   18  A    between atoms: C_20  and  C_21
REMARK   19  A    between atoms: C_20  and  C_29
REMARK   20  A    between atoms: C_21  and  C_22
REMARK   21  A    between atoms: C_25  and  O_26
REMARK   22  A    between atoms: C_32  and  O_33
REMARK                            x       y       z     vdW  Elec       q    Type
REMARK                         _______ _______ _______ _____ _____    ______ ____
ROOT
ATOM      1  S   UNL     1       0.192  10.154  18.508  0.00  0.00    +0.000 S 
ENDROOT
BRANCH   1   2
ATOM      2  C   UNL     1       0.573  11.630  19.596  0.00  0.00    +0.000 C 
BRANCH   2   3
ATOM      3  C   UNL     1      -0.463  11.706  20.722  0.00  0.00    +0.000 A 
ATOM      4  C   UNL     1      -1.626  12.477  20.565  0.00  0.00    +0.000 A 
ATOM      5  C   UNL     1      -2.570  12.575  21.568  0.00  0.00    +0.000 A 
ATOM      6  C   UNL     1      -2.386  11.877  22.749  0.00  0.00    +0.000 A 
ATOM      7  C   UNL     1      -1.265  11.087  22.938  0.00  0.00    +0.000 A 
ATOM      8  C   UNL     1      -0.314  10.993  21.924  0.00  0.00    +0.000 A 
BRANCH   6   9
ATOM      9  O   UNL     1      -3.308  11.916  23.750  0.00  0.00    +0.000 OA
ATOM     10  H   UNL     1      -2.815  11.780  24.581  0.00  0.00    +0.000 HD
ENDBRANCH   6   9
ENDBRANCH   2   3
BRANCH   2  11
ATOM     11  C   UNL     1       0.751  12.981  18.847  0.00  0.00    +0.000 C 
BRANCH  11  12
ATOM     12  C   UNL     1       1.726  13.965  19.457  0.00  0.00    +0.000 A 
ATOM     13  C   UNL     1       2.779  13.543  20.282  0.00  0.00    +0.000 A 
ATOM     14  C   UNL     1       3.717  14.456  20.763  0.00  0.00    +0.000 A 
ATOM     15  C   UNL     1       3.588  15.802  20.431  0.00  0.00    +0.000 A 
ATOM     16  C   UNL     1       2.547  16.240  19.634  0.00  0.00    +0.000 A 
ATOM     17  C   UNL     1       1.634  15.325  19.144  0.00  0.00    +0.000 A 
BRANCH  15  18
ATOM     18  O   UNL     1       4.485  16.733  20.855  0.00  0.00    +0.000 OA
ATOM     19  H   UNL     1       4.852  17.196  20.085  0.00  0.00    +0.000 HD
ENDBRANCH  15  18
ENDBRANCH  11  12
ENDBRANCH   2  11
ENDBRANCH   1   2
BRANCH   1  20
ATOM     20  C   UNL     1       1.677   9.150  18.648  0.00  0.00    +0.000 C 
BRANCH  20  21
ATOM     21  C   UNL     1       1.656   8.484  20.019  0.00  0.00    +0.000 C 
BRANCH  21  22
ATOM     22  C   UNL     1       2.174   7.055  19.910  0.00  0.00    +0.000 C 
BRANCH  22  23
ATOM     23  C   UNL     1       1.445   6.166  20.904  0.00  0.00    +0.000 C 
BRANCH  23  24
ATOM     24  C   UNL     1       1.979   4.744  20.864  0.00  0.00    +0.000 C 
BRANCH  24  25
ATOM     25  C   UNL     1       0.986   3.840  20.144  0.00  0.00    +0.000 C 
BRANCH  25  26
ATOM     26  C   UNL     1       1.438   2.390  20.217  0.00  0.00    +0.000 C 
BRANCH  26  27
ATOM     27  C   UNL     1       2.746   2.196  19.465  0.00  0.00    +0.000 C 
BRANCH  27  28
ATOM     28  C   UNL     1       2.547   2.486  17.987  0.00  0.00    +0.000 C 
BRANCH  28  29
ATOM     29  C   UNL     1       3.864   2.861  17.321  0.00  0.00    +0.000 C 
BRANCH  29  32
ATOM     30  N   UNL     1       5.019   4.788  16.292  0.00  0.00    +0.000 N 
ATOM     31  C   UNL     1       6.023   3.865  15.762  0.00  0.00    +0.000 C 
ATOM     32  C   UNL     1       3.950   4.349  17.071  0.00  0.00    +0.000 C 
ATOM     33  O   UNL     1       3.107   5.123  17.552  0.00  0.00    +0.000 OA
BRANCH  30  34
ATOM     34  C   UNL     1       5.162   6.226  16.058  0.00  0.00    +0.000 C 
BRANCH  34  35
ATOM     35  C   UNL     1       5.835   6.989  17.196  0.00  0.00    +0.000 C 
BRANCH  35  37
ATOM     36  C   UNL     1       7.676   6.020  18.567  0.00  0.00    +0.000 C 
ATOM     37  C   UNL     1       7.344   6.769  17.284  0.00  0.00    +0.000 C 
ENDBRANCH  35  37
ENDBRANCH  34  35
ENDBRANCH  30  34
ENDBRANCH  29  32
ENDBRANCH  28  29
ENDBRANCH  27  28
ENDBRANCH  26  27
ENDBRANCH  25  26
ENDBRANCH  24  25
ENDBRANCH  23  24
ENDBRANCH  22  23
ENDBRANCH  21  22
ENDBRANCH  20  21
ENDBRANCH   1  20
TORSDOF 20
ENDMDL
