MODEL 1
REMARK VINA RESULT:      -7.6      0.000      0.000
REMARK  Name = 
REMARK  10 active torsions:
REMARK  status: ('A' for Active; 'I' for Inactive)
REMARK    1  A    between atoms: C_1  and  C_2
REMARK    2  A    between atoms: C_2  and  C_3
REMARK    3  A    between atoms: C_2  and  S_4
REMARK    4  A    between atoms: S_4  and  N_7
REMARK    5  A    between atoms: N_7  and  C_8
REMARK    6  A    between atoms: C_8  and  C_9
REMARK    7  A    between atoms: C_9  and  O_10
REMARK    8  A    between atoms: O_10  and  C_11
REMARK    9  A    between atoms: C_11  and  C_12
REMARK   10  A    between atoms: C_12  and  N_13
REMARK                            x       y       z     vdW  Elec       q    Type
REMARK                         _______ _______ _______ _____ _____    ______ ____
ROOT
ATOM      1  N   UNL     1       1.170   9.870  20.015  0.00  0.00    +0.000 N 
ATOM      2  C   UNL     1       1.568   8.581  19.925  0.00  0.00    +0.000 A 
ATOM      3  N   UNL     1       2.165   8.042  18.886  0.00  0.00    +0.000 NA
ATOM      4  C   UNL     1       2.395   6.699  19.108  0.00  0.00    +0.000 A 
ATOM      5  C   UNL     1       1.959   6.228  20.327  0.00  0.00    +0.000 A 
ATOM      6  S   UNL     1       1.283   7.503  21.237  0.00  0.00    +0.000 S 
ATOM      7  C   UNL     1       2.011   4.831  20.830  0.00  0.00    +0.000 C 
ATOM      8  C   UNL     1       1.132   3.951  19.951  0.00  0.00    +0.000 C 
ATOM      9  C   UNL     1       1.534   3.823  18.470  0.00  0.00    +0.000 C 
ATOM     10  C   UNL     1       2.777   4.502  17.927  0.00  0.00    +0.000 A 
ATOM     11  C   UNL     1       3.578   3.757  17.034  0.00  0.00    +0.000 A 
ATOM     12  C   UNL     1       4.677   4.332  16.397  0.00  0.00    +0.000 A 
ATOM     13  C   UNL     1       4.975   5.664  16.623  0.00  0.00    +0.000 A 
ATOM     14  F   UNL     1       6.026   6.218  16.004  0.00  0.00    +0.000 F 
ATOM     15  C   UNL     1       4.204   6.431  17.485  0.00  0.00    +0.000 A 
ATOM     16  C   UNL     1       3.107   5.860  18.154  0.00  0.00    +0.000 A 
ATOM     17  H   UNL     1       0.598  10.107  20.819  0.00  0.00    +0.000 HD
ENDROOT
BRANCH   1  18
ATOM     18  C   UNL     1       0.807  10.562  18.784  0.00  0.00    +0.000 C 
BRANCH  18  19
ATOM     19  C   UNL     1       0.796  12.078  18.988  0.00  0.00    +0.000 C 
BRANCH  19  20
ATOM     20  O   UNL     1      -0.518  12.588  18.746  0.00  0.00    +0.000 OA
BRANCH  20  21
ATOM     21  C   UNL     1      -1.386  12.241  19.827  0.00  0.00    +0.000 C 
BRANCH  21  22
ATOM     22  C   UNL     1      -2.830  12.189  19.336  0.00  0.00    +0.000 C 
BRANCH  22  23
ATOM     23  N   UNL     1      -2.956  12.160  17.846  0.00  0.00    +0.000 NA
ATOM     24  H   UNL     1      -3.069  13.118  17.507  0.00  0.00    +0.000 HD
BRANCH  23  25
ATOM     25  S   UNL     1      -4.217  11.194  17.255  0.00  0.00    +0.000 S 
ATOM     26  O   UNL     1      -4.989  12.051  16.383  0.00  0.00    +0.000 OA
ATOM     27  O   UNL     1      -4.832  10.508  18.373  0.00  0.00    +0.000 OA
BRANCH  25  29
ATOM     28  C   UNL     1      -3.287  10.403  14.794  0.00  0.00    +0.000 C 
ATOM     29  C   UNL     1      -3.349   9.977  16.254  0.00  0.00    +0.000 C 
ATOM     30  C   UNL     1      -1.945   9.775  16.822  0.00  0.00    +0.000 C 
ENDBRANCH  25  29
ENDBRANCH  23  25
ENDBRANCH  22  23
ENDBRANCH  21  22
ENDBRANCH  20  21
ENDBRANCH  19  20
ENDBRANCH  18  19
ENDBRANCH   1  18
TORSDOF 8
ENDMDL
MODEL 2
REMARK VINA RESULT:      -7.5      4.881      8.950
REMARK  Name = 
REMARK  10 active torsions:
REMARK  status: ('A' for Active; 'I' for Inactive)
REMARK    1  A    between atoms: C_1  and  C_2
REMARK    2  A    between atoms: C_2  and  C_3
REMARK    3  A    between atoms: C_2  and  S_4
REMARK    4  A    between atoms: S_4  and  N_7
REMARK    5  A    between atoms: N_7  and  C_8
REMARK    6  A    between atoms: C_8  and  C_9
REMARK    7  A    between atoms: C_9  and  O_10
REMARK    8  A    between atoms: O_10  and  C_11
REMARK    9  A    between atoms: C_11  and  C_12
REMARK   10  A    between atoms: C_12  and  N_13
REMARK                            x       y       z     vdW  Elec       q    Type
REMARK                         _______ _______ _______ _____ _____    ______ ____
ROOT
ATOM      1  N   UNL     1       3.274   5.693  18.793  0.00  0.00    +0.000 N 
ATOM      2  C   UNL     1       2.677   6.892  18.980  0.00  0.00    +0.000 A 
ATOM      3  N   UNL     1       1.910   7.205  19.999  0.00  0.00    +0.000 NA
ATOM      4  C   UNL     1       1.428   8.492  19.859  0.00  0.00    +0.000 A 
ATOM      5  C   UNL     1       1.838   9.146  18.717  0.00  0.00    +0.000 A 
ATOM      6  S   UNL     1       2.885   8.143  17.816  0.00  0.00    +0.000 S 
ATOM      7  C   UNL     1       1.447  10.504  18.261  0.00  0.00    +0.000 C 
ATOM      8  C   UNL     1      -0.049  10.523  17.975  0.00  0.00    +0.000 C 
ATOM      9  C   UNL     1      -0.989  10.251  19.163  0.00  0.00    +0.000 C 
ATOM     10  C   UNL     1      -0.449  10.024  20.564  0.00  0.00    +0.000 A 
ATOM     11  C   UNL     1      -1.137  10.650  21.626  0.00  0.00    +0.000 A 
ATOM     12  C   UNL     1      -0.784  10.413  22.954  0.00  0.00    +0.000 A 
ATOM     13  C   UNL     1       0.242   9.529  23.239  0.00  0.00    +0.000 A 
ATOM     14  F   UNL     1       0.575   9.295  24.515  0.00  0.00    +0.000 F 
ATOM     15  C   UNL     1       0.933   8.887  22.221  0.00  0.00    +0.000 A 
ATOM     16  C   UNL     1       0.606   9.134  20.875  0.00  0.00    +0.000 A 
ATOM     17  H   UNL     1       3.720   5.551  17.892  0.00  0.00    +0.000 HD
ENDROOT
BRANCH   1  18
ATOM     18  C   UNL     1       2.625   4.510  19.343  0.00  0.00    +0.000 C 
BRANCH  18  19
ATOM     19  C   UNL     1       1.866   3.744  18.259  0.00  0.00    +0.000 C 
BRANCH  19  20
ATOM     20  O   UNL     1       2.735   3.486  17.153  0.00  0.00    +0.000 OA
BRANCH  20  21
ATOM     21  C   UNL     1       4.000   3.013  17.622  0.00  0.00    +0.000 C 
BRANCH  21  22
ATOM     22  C   UNL     1       5.104   3.451  16.666  0.00  0.00    +0.000 C 
BRANCH  22  23
ATOM     23  N   UNL     1       5.402   4.917  16.724  0.00  0.00    +0.000 NA
ATOM     24  H   UNL     1       4.957   5.374  15.925  0.00  0.00    +0.000 HD
BRANCH  23  25
ATOM     25  S   UNL     1       7.050   5.310  16.759  0.00  0.00    +0.000 S 
ATOM     26  O   UNL     1       7.307   6.027  15.530  0.00  0.00    +0.000 OA
ATOM     27  O   UNL     1       7.799   4.118  17.105  0.00  0.00    +0.000 OA
BRANCH  25  29
ATOM     28  C   UNL     1       7.920   5.859  19.307  0.00  0.00    +0.000 C 
ATOM     29  C   UNL     1       7.154   6.462  18.137  0.00  0.00    +0.000 C 
ATOM     30  C   UNL     1       7.820   7.751  17.658  0.00  0.00    +0.000 C 
ENDBRANCH  25  29
ENDBRANCH  23  25
ENDBRANCH  22  23
ENDBRANCH  21  22
ENDBRANCH  20  21
ENDBRANCH  19  20
ENDBRANCH  18  19
ENDBRANCH   1  18
TORSDOF 8
ENDMDL
MODEL 3
REMARK VINA RESULT:      -7.5      5.100      8.874
REMARK  Name = 
REMARK  10 active torsions:
REMARK  status: ('A' for Active; 'I' for Inactive)
REMARK    1  A    between atoms: C_1  and  C_2
REMARK    2  A    between atoms: C_2  and  C_3
REMARK    3  A    between atoms: C_2  and  S_4
REMARK    4  A    between atoms: S_4  and  N_7
REMARK    5  A    between atoms: N_7  and  C_8
REMARK    6  A    between atoms: C_8  and  C_9
REMARK    7  A    between atoms: C_9  and  O_10
REMARK    8  A    between atoms: O_10  and  C_11
REMARK    9  A    between atoms: C_11  and  C_12
REMARK   10  A    between atoms: C_12  and  N_13
REMARK                            x       y       z     vdW  Elec       q    Type
REMARK                         _______ _______ _______ _____ _____    ______ ____
ROOT
ATOM      1  N   UNL     1       2.816   5.050  19.578  0.00  0.00    +0.000 N 
ATOM      2  C   UNL     1       2.364   6.325  19.567  0.00  0.00    +0.000 A 
ATOM      3  N   UNL     1       1.590   6.862  20.482  0.00  0.00    +0.000 NA
ATOM      4  C   UNL     1       1.282   8.165  20.145  0.00  0.00    +0.000 A 
ATOM      5  C   UNL     1       1.829   8.605  18.959  0.00  0.00    +0.000 A 
ATOM      6  S   UNL     1       2.788   7.373  18.269  0.00  0.00    +0.000 S 
ATOM      7  C   UNL     1       1.635   9.924  18.306  0.00  0.00    +0.000 C 
ATOM      8  C   UNL     1       0.170  10.080  17.918  0.00  0.00    +0.000 C 
ATOM      9  C   UNL     1      -0.858  10.084  19.065  0.00  0.00    +0.000 C 
ATOM     10  C   UNL     1      -0.423   9.988  20.516  0.00  0.00    +0.000 A 
ATOM     11  C   UNL     1      -1.082  10.830  21.439  0.00  0.00    +0.000 A 
ATOM     12  C   UNL     1      -0.832  10.736  22.808  0.00  0.00    +0.000 A 
ATOM     13  C   UNL     1       0.059   9.785  23.274  0.00  0.00    +0.000 A 
ATOM     14  F   UNL     1       0.294   9.690  24.589  0.00  0.00    +0.000 F 
ATOM     15  C   UNL     1       0.717   8.933  22.396  0.00  0.00    +0.000 A 
ATOM     16  C   UNL     1       0.494   9.032  21.012  0.00  0.00    +0.000 A 
ATOM     17  H   UNL     1       3.287   4.736  18.736  0.00  0.00    +0.000 HD
ENDROOT
BRANCH   1  18
ATOM     18  C   UNL     1       1.996   4.038  20.230  0.00  0.00    +0.000 C 
BRANCH  18  19
ATOM     19  C   UNL     1       1.892   2.777  19.372  0.00  0.00    +0.000 C 
BRANCH  19  20
ATOM     20  O   UNL     1       3.179   2.162  19.261  0.00  0.00    +0.000 OA
BRANCH  20  21
ATOM     21  C   UNL     1       3.466   1.868  17.892  0.00  0.00    +0.000 C 
BRANCH  21  22
ATOM     22  C   UNL     1       4.500   2.853  17.356  0.00  0.00    +0.000 C 
BRANCH  22  23
ATOM     23  N   UNL     1       5.363   3.455  18.419  0.00  0.00    +0.000 NA
ATOM     24  H   UNL     1       4.769   3.742  19.201  0.00  0.00    +0.000 HD
BRANCH  23  25
ATOM     25  S   UNL     1       6.310   4.767  17.913  0.00  0.00    +0.000 S 
ATOM     26  O   UNL     1       7.678   4.302  17.962  0.00  0.00    +0.000 OA
ATOM     27  O   UNL     1       5.889   5.945  18.645  0.00  0.00    +0.000 OA
BRANCH  25  29
ATOM     28  C   UNL     1       5.324   6.379  15.919  0.00  0.00    +0.000 C 
ATOM     29  C   UNL     1       5.824   4.967  16.193  0.00  0.00    +0.000 C 
ATOM     30  C   UNL     1       7.014   4.627  15.297  0.00  0.00    +0.000 C 
ENDBRANCH  25  29
ENDBRANCH  23  25
ENDBRANCH  22  23
ENDBRANCH  21  22
ENDBRANCH  20  21
ENDBRANCH  19  20
ENDBRANCH  18  19
ENDBRANCH   1  18
TORSDOF 8
ENDMDL
MODEL 4
REMARK VINA RESULT:      -7.3      5.022      8.825
REMARK  Name = 
REMARK  10 active torsions:
REMARK  status: ('A' for Active; 'I' for Inactive)
REMARK    1  A    between atoms: C_1  and  C_2
REMARK    2  A    between atoms: C_2  and  C_3
REMARK    3  A    between atoms: C_2  and  S_4
REMARK    4  A    between atoms: S_4  and  N_7
REMARK    5  A    between atoms: N_7  and  C_8
REMARK    6  A    between atoms: C_8  and  C_9
REMARK    7  A    between atoms: C_9  and  O_10
REMARK    8  A    between atoms: O_10  and  C_11
REMARK    9  A    between atoms: C_11  and  C_12
REMARK   10  A    between atoms: C_12  and  N_13
REMARK                            x       y       z     vdW  Elec       q    Type
REMARK                         _______ _______ _______ _____ _____    ______ ____
ROOT
ATOM      1  N   UNL     1       3.029   5.279  19.326  0.00  0.00    +0.000 N 
ATOM      2  C   UNL     1       2.517   6.530  19.366  0.00  0.00    +0.000 A 
ATOM      3  N   UNL     1       1.730   6.998  20.308  0.00  0.00    +0.000 NA
ATOM      4  C   UNL     1       1.355   8.295  20.021  0.00  0.00    +0.000 A 
ATOM      5  C   UNL     1       1.866   8.801  18.845  0.00  0.00    +0.000 A 
ATOM      6  S   UNL     1       2.873   7.642  18.101  0.00  0.00    +0.000 S 
ATOM      7  C   UNL     1       1.601  10.132  18.241  0.00  0.00    +0.000 C 
ATOM      8  C   UNL     1       0.125  10.230  17.876  0.00  0.00    +0.000 C 
ATOM      9  C   UNL     1      -0.887  10.145  19.033  0.00  0.00    +0.000 C 
ATOM     10  C   UNL     1      -0.429  10.020  20.476  0.00  0.00    +0.000 A 
ATOM     11  C   UNL     1      -1.115  10.796  21.436  0.00  0.00    +0.000 A 
ATOM     12  C   UNL     1      -0.843  10.667  22.797  0.00  0.00    +0.000 A 
ATOM     13  C   UNL     1       0.099   9.744  23.219  0.00  0.00    +0.000 A 
ATOM     14  F   UNL     1       0.354   9.615  24.527  0.00  0.00    +0.000 F 
ATOM     15  C   UNL     1       0.784   8.957  22.304  0.00  0.00    +0.000 A 
ATOM     16  C   UNL     1       0.539   9.092  20.927  0.00  0.00    +0.000 A 
ATOM     17  H   UNL     1       3.503   5.017  18.468  0.00  0.00    +0.000 HD
ENDROOT
BRANCH   1  18
ATOM     18  C   UNL     1       2.266   4.206  19.952  0.00  0.00    +0.000 C 
BRANCH  18  19
ATOM     19  C   UNL     1       2.485   2.879  19.225  0.00  0.00    +0.000 C 
BRANCH  19  20
ATOM     20  O   UNL     1       3.856   2.762  18.836  0.00  0.00    +0.000 OA
BRANCH  20  21
ATOM     21  C   UNL     1       3.948   2.484  17.437  0.00  0.00    +0.000 C 
BRANCH  21  22
ATOM     22  C   UNL     1       4.297   3.759  16.677  0.00  0.00    +0.000 C 
BRANCH  22  23
ATOM     23  N   UNL     1       5.204   4.679  17.432  0.00  0.00    +0.000 NA
ATOM     24  H   UNL     1       4.636   5.385  17.905  0.00  0.00    +0.000 HD
BRANCH  23  25
ATOM     25  S   UNL     1       6.392   5.440  16.493  0.00  0.00    +0.000 S 
ATOM     26  O   UNL     1       5.725   6.545  15.840  0.00  0.00    +0.000 OA
ATOM     27  O   UNL     1       7.092   4.427  15.729  0.00  0.00    +0.000 OA
BRANCH  25  29
ATOM     28  C   UNL     1       7.596   7.612  17.667  0.00  0.00    +0.000 C 
ATOM     29  C   UNL     1       7.520   6.093  17.733  0.00  0.00    +0.000 C 
ATOM     30  C   UNL     1       7.061   5.631  19.115  0.00  0.00    +0.000 C 
ENDBRANCH  25  29
ENDBRANCH  23  25
ENDBRANCH  22  23
ENDBRANCH  21  22
ENDBRANCH  20  21
ENDBRANCH  19  20
ENDBRANCH  18  19
ENDBRANCH   1  18
TORSDOF 8
ENDMDL
MODEL 5
REMARK VINA RESULT:      -7.3      2.677      3.622
REMARK  Name = 
REMARK  10 active torsions:
REMARK  status: ('A' for Active; 'I' for Inactive)
REMARK    1  A    between atoms: C_1  and  C_2
REMARK    2  A    between atoms: C_2  and  C_3
REMARK    3  A    between atoms: C_2  and  S_4
REMARK    4  A    between atoms: S_4  and  N_7
REMARK    5  A    between atoms: N_7  and  C_8
REMARK    6  A    between atoms: C_8  and  C_9
REMARK    7  A    between atoms: C_9  and  O_10
REMARK    8  A    between atoms: O_10  and  C_11
REMARK    9  A    between atoms: C_11  and  C_12
REMARK   10  A    between atoms: C_12  and  N_13
REMARK                            x       y       z     vdW  Elec       q    Type
REMARK                         _______ _______ _______ _____ _____    ______ ____
ROOT
ATOM      1  N   UNL     1       1.164   9.961  19.779  0.00  0.00    +0.000 N 
ATOM      2  C   UNL     1       1.566   8.669  19.757  0.00  0.00    +0.000 A 
ATOM      3  N   UNL     1       2.158   8.077  18.745  0.00  0.00    +0.000 NA
ATOM      4  C   UNL     1       2.393   6.749  19.038  0.00  0.00    +0.000 A 
ATOM      5  C   UNL     1       1.967   6.343  20.284  0.00  0.00    +0.000 A 
ATOM      6  S   UNL     1       1.292   7.664  21.128  0.00  0.00    +0.000 S 
ATOM      7  C   UNL     1       2.027   4.976  20.861  0.00  0.00    +0.000 C 
ATOM      8  C   UNL     1       1.145   4.046  20.037  0.00  0.00    +0.000 C 
ATOM      9  C   UNL     1       1.537   3.839  18.563  0.00  0.00    +0.000 C 
ATOM     10  C   UNL     1       2.775   4.492  17.975  0.00  0.00    +0.000 A 
ATOM     11  C   UNL     1       3.573   3.701  17.119  0.00  0.00    +0.000 A 
ATOM     12  C   UNL     1       4.666   4.244  16.444  0.00  0.00    +0.000 A 
ATOM     13  C   UNL     1       4.961   5.588  16.595  0.00  0.00    +0.000 A 
ATOM     14  F   UNL     1       6.006   6.110  15.941  0.00  0.00    +0.000 F 
ATOM     15  C   UNL     1       4.192   6.398  17.420  0.00  0.00    +0.000 A 
ATOM     16  C   UNL     1       3.102   5.861  18.127  0.00  0.00    +0.000 A 
ATOM     17  H   UNL     1       0.596  10.239  20.573  0.00  0.00    +0.000 HD
ENDROOT
BRANCH   1  18
ATOM     18  C   UNL     1       0.791  10.584  18.516  0.00  0.00    +0.000 C 
BRANCH  18  19
ATOM     19  C   UNL     1      -0.191  11.735  18.739  0.00  0.00    +0.000 C 
BRANCH  19  20
ATOM     20  O   UNL     1       0.485  12.984  18.571  0.00  0.00    +0.000 OA
BRANCH  20  21
ATOM     21  C   UNL     1      -0.449  14.063  18.658  0.00  0.00    +0.000 C 
BRANCH  21  22
ATOM     22  C   UNL     1      -0.315  14.757  20.010  0.00  0.00    +0.000 C 
BRANCH  22  23
ATOM     23  N   UNL     1      -1.262  14.240  21.047  0.00  0.00    +0.000 NA
ATOM     24  H   UNL     1      -1.765  15.031  21.455  0.00  0.00    +0.000 HD
BRANCH  23  25
ATOM     25  S   UNL     1      -0.542  13.326  22.279  0.00  0.00    +0.000 S 
ATOM     26  O   UNL     1      -0.722  14.095  23.491  0.00  0.00    +0.000 OA
ATOM     27  O   UNL     1       0.775  12.916  21.836  0.00  0.00    +0.000 OA
BRANCH  25  29
ATOM     28  C   UNL     1      -0.816  10.650  22.840  0.00  0.00    +0.000 C 
ATOM     29  C   UNL     1      -1.593  11.867  22.356  0.00  0.00    +0.000 C 
ATOM     30  C   UNL     1      -2.779  12.156  23.275  0.00  0.00    +0.000 C 
ENDBRANCH  25  29
ENDBRANCH  23  25
ENDBRANCH  22  23
ENDBRANCH  21  22
ENDBRANCH  20  21
ENDBRANCH  19  20
ENDBRANCH  18  19
ENDBRANCH   1  18
TORSDOF 8
ENDMDL
MODEL 6
REMARK VINA RESULT:      -7.3      2.518      3.506
REMARK  Name = 
REMARK  10 active torsions:
REMARK  status: ('A' for Active; 'I' for Inactive)
REMARK    1  A    between atoms: C_1  and  C_2
REMARK    2  A    between atoms: C_2  and  C_3
REMARK    3  A    between atoms: C_2  and  S_4
REMARK    4  A    between atoms: S_4  and  N_7
REMARK    5  A    between atoms: N_7  and  C_8
REMARK    6  A    between atoms: C_8  and  C_9
REMARK    7  A    between atoms: C_9  and  O_10
REMARK    8  A    between atoms: O_10  and  C_11
REMARK    9  A    between atoms: C_11  and  C_12
REMARK   10  A    between atoms: C_12  and  N_13
REMARK                            x       y       z     vdW  Elec       q    Type
REMARK                         _______ _______ _______ _____ _____    ______ ____
ROOT
ATOM      1  N   UNL     1       0.968   9.761  19.851  0.00  0.00    +0.000 N 
ATOM      2  C   UNL     1       1.612   8.646  19.436  0.00  0.00    +0.000 A 
ATOM      3  N   UNL     1       1.738   7.540  20.133  0.00  0.00    +0.000 NA
ATOM      4  C   UNL     1       2.489   6.616  19.434  0.00  0.00    +0.000 A 
ATOM      5  C   UNL     1       2.934   7.040  18.201  0.00  0.00    +0.000 A 
ATOM      6  S   UNL     1       2.365   8.618  17.888  0.00  0.00    +0.000 S 
ATOM      7  C   UNL     1       3.803   6.303  17.249  0.00  0.00    +0.000 C 
ATOM      8  C   UNL     1       5.168   6.080  17.886  0.00  0.00    +0.000 C 
ATOM      9  C   UNL     1       5.209   5.218  19.162  0.00  0.00    +0.000 C 
ATOM     10  C   UNL     1       3.952   4.580  19.726  0.00  0.00    +0.000 A 
ATOM     11  C   UNL     1       4.060   3.250  20.187  0.00  0.00    +0.000 A 
ATOM     12  C   UNL     1       2.991   2.617  20.822  0.00  0.00    +0.000 A 
ATOM     13  C   UNL     1       1.812   3.312  21.027  0.00  0.00    +0.000 A 
ATOM     14  F   UNL     1       0.789   2.707  21.644  0.00  0.00    +0.000 F 
ATOM     15  C   UNL     1       1.674   4.625  20.597  0.00  0.00    +0.000 A 
ATOM     16  C   UNL     1       2.733   5.269  19.933  0.00  0.00    +0.000 A 
ATOM     17  H   UNL     1       1.074  10.582  19.264  0.00  0.00    +0.000 HD
ENDROOT
BRANCH   1  18
ATOM     18  C   UNL     1       0.923  10.034  21.281  0.00  0.00    +0.000 C 
BRANCH  18  19
ATOM     19  C   UNL     1      -0.273  10.919  21.635  0.00  0.00    +0.000 C 
BRANCH  19  20
ATOM     20  O   UNL     1      -0.367  11.998  20.701  0.00  0.00    +0.000 OA
BRANCH  20  21
ATOM     21  C   UNL     1      -1.702  12.100  20.201  0.00  0.00    +0.000 C 
BRANCH  21  22
ATOM     22  C   UNL     1      -1.794  11.440  18.829  0.00  0.00    +0.000 C 
BRANCH  22  23
ATOM     23  N   UNL     1      -2.750  12.119  17.899  0.00  0.00    +0.000 NA
ATOM     24  H   UNL     1      -3.149  12.932  18.375  0.00  0.00    +0.000 HD
BRANCH  23  25
ATOM     25  S   UNL     1      -3.998  11.134  17.313  0.00  0.00    +0.000 S 
ATOM     26  O   UNL     1      -3.754   9.822  17.870  0.00  0.00    +0.000 OA
ATOM     27  O   UNL     1      -4.108  11.336  15.882  0.00  0.00    +0.000 OA
BRANCH  25  29
ATOM     28  C   UNL     1      -6.217  12.744  17.139  0.00  0.00    +0.000 C 
ATOM     29  C   UNL     1      -5.459  11.836  18.096  0.00  0.00    +0.000 C 
ATOM     30  C   UNL     1      -6.352  10.699  18.591  0.00  0.00    +0.000 C 
ENDBRANCH  25  29
ENDBRANCH  23  25
ENDBRANCH  22  23
ENDBRANCH  21  22
ENDBRANCH  20  21
ENDBRANCH  19  20
ENDBRANCH  18  19
ENDBRANCH   1  18
TORSDOF 8
ENDMDL
MODEL 7
REMARK VINA RESULT:      -7.3      1.775      2.547
REMARK  Name = 
REMARK  10 active torsions:
REMARK  status: ('A' for Active; 'I' for Inactive)
REMARK    1  A    between atoms: C_1  and  C_2
REMARK    2  A    between atoms: C_2  and  C_3
REMARK    3  A    between atoms: C_2  and  S_4
REMARK    4  A    between atoms: S_4  and  N_7
REMARK    5  A    between atoms: N_7  and  C_8
REMARK    6  A    between atoms: C_8  and  C_9
REMARK    7  A    between atoms: C_9  and  O_10
REMARK    8  A    between atoms: O_10  and  C_11
REMARK    9  A    between atoms: C_11  and  C_12
REMARK   10  A    between atoms: C_12  and  N_13
REMARK                            x       y       z     vdW  Elec       q    Type
REMARK                         _______ _______ _______ _____ _____    ______ ____
ROOT
ATOM      1  N   UNL     1       1.076   9.974  19.669  0.00  0.00    +0.000 N 
ATOM      2  C   UNL     1       1.510   8.693  19.671  0.00  0.00    +0.000 A 
ATOM      3  N   UNL     1       2.110   8.094  18.667  0.00  0.00    +0.000 NA
ATOM      4  C   UNL     1       2.380   6.778  18.986  0.00  0.00    +0.000 A 
ATOM      5  C   UNL     1       1.973   6.388  20.243  0.00  0.00    +0.000 A 
ATOM      6  S   UNL     1       1.272   7.710  21.064  0.00  0.00    +0.000 S 
ATOM      7  C   UNL     1       2.071   5.036  20.848  0.00  0.00    +0.000 C 
ATOM      8  C   UNL     1       1.207   4.067  20.051  0.00  0.00    +0.000 C 
ATOM      9  C   UNL     1       1.594   3.839  18.578  0.00  0.00    +0.000 C 
ATOM     10  C   UNL     1       2.811   4.510  17.967  0.00  0.00    +0.000 A 
ATOM     11  C   UNL     1       3.622   3.721  17.122  0.00  0.00    +0.000 A 
ATOM     12  C   UNL     1       4.697   4.277  16.428  0.00  0.00    +0.000 A 
ATOM     13  C   UNL     1       4.959   5.630  16.549  0.00  0.00    +0.000 A 
ATOM     14  F   UNL     1       5.986   6.165  15.876  0.00  0.00    +0.000 F 
ATOM     15  C   UNL     1       4.176   6.438  17.362  0.00  0.00    +0.000 A 
ATOM     16  C   UNL     1       3.105   5.889  18.088  0.00  0.00    +0.000 A 
ATOM     17  H   UNL     1       0.508  10.254  20.461  0.00  0.00    +0.000 HD
ENDROOT
BRANCH   1  18
ATOM     18  C   UNL     1       0.679  10.560  18.396  0.00  0.00    +0.000 C 
BRANCH  18  19
ATOM     19  C   UNL     1      -0.694  10.049  17.959  0.00  0.00    +0.000 C 
BRANCH  19  20
ATOM     20  O   UNL     1      -1.588  11.152  17.788  0.00  0.00    +0.000 OA
BRANCH  20  21
ATOM     21  C   UNL     1      -2.880  10.821  18.304  0.00  0.00    +0.000 C 
BRANCH  21  22
ATOM     22  C   UNL     1      -3.960  11.509  17.475  0.00  0.00    +0.000 C 
BRANCH  22  23
ATOM     23  N   UNL     1      -4.863  12.391  18.278  0.00  0.00    +0.000 NA
ATOM     24  H   UNL     1      -4.425  12.570  19.185  0.00  0.00    +0.000 HD
BRANCH  23  25
ATOM     25  S   UNL     1      -6.429  11.788  18.512  0.00  0.00    +0.000 S 
ATOM     26  O   UNL     1      -6.303  10.348  18.470  0.00  0.00    +0.000 OA
ATOM     27  O   UNL     1      -7.329  12.490  17.619  0.00  0.00    +0.000 OA
BRANCH  25  29
ATOM     28  C   UNL     1      -7.682  11.266  20.901  0.00  0.00    +0.000 C 
ATOM     29  C   UNL     1      -6.800  12.290  20.199  0.00  0.00    +0.000 C 
ATOM     30  C   UNL     1      -5.489  12.491  20.958  0.00  0.00    +0.000 C 
ENDBRANCH  25  29
ENDBRANCH  23  25
ENDBRANCH  22  23
ENDBRANCH  21  22
ENDBRANCH  20  21
ENDBRANCH  19  20
ENDBRANCH  18  19
ENDBRANCH   1  18
TORSDOF 8
ENDMDL
MODEL 8
REMARK VINA RESULT:      -7.3      4.372      8.668
REMARK  Name = 
REMARK  10 active torsions:
REMARK  status: ('A' for Active; 'I' for Inactive)
REMARK    1  A    between atoms: C_1  and  C_2
REMARK    2  A    between atoms: C_2  and  C_3
REMARK    3  A    between atoms: C_2  and  S_4
REMARK    4  A    between atoms: S_4  and  N_7
REMARK    5  A    between atoms: N_7  and  C_8
REMARK    6  A    between atoms: C_8  and  C_9
REMARK    7  A    between atoms: C_9  and  O_10
REMARK    8  A    between atoms: O_10  and  C_11
REMARK    9  A    between atoms: C_11  and  C_12
REMARK   10  A    between atoms: C_12  and  N_13
REMARK                            x       y       z     vdW  Elec       q    Type
REMARK                         _______ _______ _______ _____ _____    ______ ____
ROOT
ATOM      1  N   UNL     1       2.387   6.926  20.508  0.00  0.00    +0.000 N 
ATOM      2  C   UNL     1       1.592   8.020  20.510  0.00  0.00    +0.000 A 
ATOM      3  N   UNL     1       1.000   8.528  19.454  0.00  0.00    +0.000 NA
ATOM      4  C   UNL     1       0.300   9.667  19.798  0.00  0.00    +0.000 A 
ATOM      5  C   UNL     1       0.375  10.017  21.129  0.00  0.00    +0.000 A 
ATOM      6  S   UNL     1       1.309   8.871  21.980  0.00  0.00    +0.000 S 
ATOM      7  C   UNL     1      -0.217  11.210  21.787  0.00  0.00    +0.000 C 
ATOM      8  C   UNL     1       0.426  12.467  21.215  0.00  0.00    +0.000 C 
ATOM      9  C   UNL     1       0.216  12.735  19.713  0.00  0.00    +0.000 C 
ATOM     10  C   UNL     1      -0.635  11.815  18.857  0.00  0.00    +0.000 A 
ATOM     11  C   UNL     1      -1.508  12.425  17.930  0.00  0.00    +0.000 A 
ATOM     12  C   UNL     1      -2.247  11.665  17.025  0.00  0.00    +0.000 A 
ATOM     13  C   UNL     1      -2.104  10.288  17.015  0.00  0.00    +0.000 A 
ATOM     14  F   UNL     1      -2.808   9.559  16.140  0.00  0.00    +0.000 F 
ATOM     15  C   UNL     1      -1.247   9.654  17.905  0.00  0.00    +0.000 A 
ATOM     16  C   UNL     1      -0.514  10.404  18.841  0.00  0.00    +0.000 A 
ATOM     17  H   UNL     1       2.887   6.735  21.371  0.00  0.00    +0.000 HD
ENDROOT
BRANCH   1  18
ATOM     18  C   UNL     1       3.131   6.621  19.293  0.00  0.00    +0.000 C 
BRANCH  18  19
ATOM     19  C   UNL     1       2.612   5.342  18.636  0.00  0.00    +0.000 C 
BRANCH  19  20
ATOM     20  O   UNL     1       2.464   4.319  19.624  0.00  0.00    +0.000 OA
BRANCH  20  21
ATOM     21  C   UNL     1       3.716   3.665  19.847  0.00  0.00    +0.000 C 
BRANCH  21  22
ATOM     22  C   UNL     1       4.448   3.483  18.521  0.00  0.00    +0.000 C 
BRANCH  22  23
ATOM     23  N   UNL     1       5.930   3.661  18.624  0.00  0.00    +0.000 NA
ATOM     24  H   UNL     1       6.171   3.845  19.601  0.00  0.00    +0.000 HD
BRANCH  23  25
ATOM     25  S   UNL     1       6.572   4.882  17.640  0.00  0.00    +0.000 S 
ATOM     26  O   UNL     1       7.861   4.394  17.203  0.00  0.00    +0.000 OA
ATOM     27  O   UNL     1       6.442   6.147  18.335  0.00  0.00    +0.000 OA
BRANCH  25  29
ATOM     28  C   UNL     1       5.188   6.309  15.743  0.00  0.00    +0.000 C 
ATOM     29  C   UNL     1       5.448   4.892  16.235  0.00  0.00    +0.000 C 
ATOM     30  C   UNL     1       6.038   4.028  15.120  0.00  0.00    +0.000 C 
ENDBRANCH  25  29
ENDBRANCH  23  25
ENDBRANCH  22  23
ENDBRANCH  21  22
ENDBRANCH  20  21
ENDBRANCH  19  20
ENDBRANCH  18  19
ENDBRANCH   1  18
TORSDOF 8
ENDMDL
MODEL 9
REMARK VINA RESULT:      -7.2      2.490      3.807
REMARK  Name = 
REMARK  10 active torsions:
REMARK  status: ('A' for Active; 'I' for Inactive)
REMARK    1  A    between atoms: C_1  and  C_2
REMARK    2  A    between atoms: C_2  and  C_3
REMARK    3  A    between atoms: C_2  and  S_4
REMARK    4  A    between atoms: S_4  and  N_7
REMARK    5  A    between atoms: N_7  and  C_8
REMARK    6  A    between atoms: C_8  and  C_9
REMARK    7  A    between atoms: C_9  and  O_10
REMARK    8  A    between atoms: O_10  and  C_11
REMARK    9  A    between atoms: C_11  and  C_12
REMARK   10  A    between atoms: C_12  and  N_13
REMARK                            x       y       z     vdW  Elec       q    Type
REMARK                         _______ _______ _______ _____ _____    ______ ____
ROOT
ATOM      1  N   UNL     1       1.077  10.076  19.800  0.00  0.00    +0.000 N 
ATOM      2  C   UNL     1       1.496   8.790  19.783  0.00  0.00    +0.000 A 
ATOM      3  N   UNL     1       2.086   8.198  18.770  0.00  0.00    +0.000 NA
ATOM      4  C   UNL     1       2.342   6.875  19.070  0.00  0.00    +0.000 A 
ATOM      5  C   UNL     1       1.934   6.473  20.323  0.00  0.00    +0.000 A 
ATOM      6  S   UNL     1       1.249   7.791  21.163  0.00  0.00    +0.000 S 
ATOM      7  C   UNL     1       2.017   5.111  20.909  0.00  0.00    +0.000 C 
ATOM      8  C   UNL     1       1.139   4.164  20.100  0.00  0.00    +0.000 C 
ATOM      9  C   UNL     1       1.520   3.951  18.623  0.00  0.00    +0.000 C 
ATOM     10  C   UNL     1       2.744   4.616  18.019  0.00  0.00    +0.000 A 
ATOM     11  C   UNL     1       3.543   3.830  17.160  0.00  0.00    +0.000 A 
ATOM     12  C   UNL     1       4.622   4.382  16.471  0.00  0.00    +0.000 A 
ATOM     13  C   UNL     1       4.901   5.731  16.610  0.00  0.00    +0.000 A 
ATOM     14  F   UNL     1       5.932   6.262  15.942  0.00  0.00    +0.000 F 
ATOM     15  C   UNL     1       4.130   6.537  17.436  0.00  0.00    +0.000 A 
ATOM     16  C   UNL     1       3.054   5.990  18.157  0.00  0.00    +0.000 A 
ATOM     17  H   UNL     1       0.514  10.352  20.598  0.00  0.00    +0.000 HD
ENDROOT
BRANCH   1  18
ATOM     18  C   UNL     1       0.683  10.685  18.536  0.00  0.00    +0.000 C 
BRANCH  18  19
ATOM     19  C   UNL     1      -0.726  11.270  18.623  0.00  0.00    +0.000 C 
BRANCH  19  20
ATOM     20  O   UNL     1      -1.226  11.130  19.956  0.00  0.00    +0.000 OA
BRANCH  20  21
ATOM     21  C   UNL     1      -2.033  12.258  20.299  0.00  0.00    +0.000 C 
BRANCH  21  22
ATOM     22  C   UNL     1      -1.286  13.149  21.287  0.00  0.00    +0.000 C 
BRANCH  22  23
ATOM     23  N   UNL     1       0.076  12.641  21.642  0.00  0.00    +0.000 NA
ATOM     24  H   UNL     1       0.086  12.397  22.635  0.00  0.00    +0.000 HD
BRANCH  23  25
ATOM     25  S   UNL     1       1.347  13.709  21.304  0.00  0.00    +0.000 S 
ATOM     26  O   UNL     1       2.474  12.875  20.947  0.00  0.00    +0.000 OA
ATOM     27  O   UNL     1       1.436  14.672  22.384  0.00  0.00    +0.000 OA
BRANCH  25  29
ATOM     28  C   UNL     1       0.733  16.071  20.043  0.00  0.00    +0.000 C 
ATOM     29  C   UNL     1       0.767  14.564  19.831  0.00  0.00    +0.000 C 
ATOM     30  C   UNL     1       1.673  14.200  18.656  0.00  0.00    +0.000 C 
ENDBRANCH  25  29
ENDBRANCH  23  25
ENDBRANCH  22  23
ENDBRANCH  21  22
ENDBRANCH  20  21
ENDBRANCH  19  20
ENDBRANCH  18  19
ENDBRANCH   1  18
TORSDOF 8
ENDMDL
