MODEL 1
REMARK VINA RESULT:      -7.9      0.000      0.000
REMARK  Name = 
REMARK  14 active torsions:
REMARK  status: ('A' for Active; 'I' for Inactive)
REMARK    1  A    between atoms: C_1  and  C_2
REMARK    2  A    between atoms: C_2  and  C_3
REMARK    3  A    between atoms: C_2  and  C_15
REMARK    4  A    between atoms: C_3  and  C_4
REMARK    5  A    between atoms: C_4  and  O_5
REMARK    6  A    between atoms: O_5  and  C_6
REMARK    7  A    between atoms: C_6  and  C_8
REMARK    8  A    between atoms: C_15  and  C_16
REMARK    9  A    between atoms: C_16  and  C_17
REMARK   10  A    between atoms: C_18  and  C_19
REMARK   11  A    between atoms: C_23  and  C_24
REMARK   12  A    between atoms: C_23  and  C_25
REMARK   13  A    between atoms: C_29  and  C_30
REMARK   14  A    between atoms: C_29  and  O_31
REMARK                            x       y       z     vdW  Elec       q    Type
REMARK                         _______ _______ _______ _____ _____    ______ ____
ROOT
ATOM      1  C   UNL     1       3.349   7.813  17.834  0.00  0.00    +0.000 C 
ENDROOT
BRANCH   1   2
ATOM      2  C   UNL     1       3.673   6.370  17.341  0.00  0.00    +0.000 C 
ATOM      3  C   UNL     1       3.479   5.263  18.492  0.00  0.00    +0.000 C 
ATOM      4  C   UNL     1       4.350   5.588  19.731  0.00  0.00    +0.000 C 
ATOM      5  C   UNL     1       1.992   5.254  18.963  0.00  0.00    +0.000 C 
ATOM      6  C   UNL     1       1.632   4.072  19.868  0.00  0.00    +0.000 C 
ATOM      7  C   UNL     1       1.961   2.727  19.233  0.00  0.00    +0.000 C 
ATOM      8  C   UNL     1       3.419   2.594  18.729  0.00  0.00    +0.000 C 
ATOM      9  C   UNL     1       4.382   2.334  19.901  0.00  0.00    +0.000 C 
ATOM     10  C   UNL     1       3.463   1.316  17.847  0.00  0.00    +0.000 C 
ATOM     11  C   UNL     1       3.775   3.849  17.860  0.00  0.00    +0.000 C 
ATOM     12  C   UNL     1       5.175   3.798  17.226  0.00  0.00    +0.000 C 
ATOM     13  C   UNL     1       5.245   4.788  16.076  0.00  0.00    +0.000 C 
ATOM     14  C   UNL     1       5.012   6.236  16.518  0.00  0.00    +0.000 C 
ATOM     15  C   UNL     1       6.281   6.779  17.187  0.00  0.00    +0.000 C 
BRANCH  14  16
ATOM     16  O   UNL     1       4.899   6.975  15.289  0.00  0.00    +0.000 OA
ATOM     17  H   UNL     1       4.456   7.819  15.479  0.00  0.00    +0.000 HD
ENDBRANCH  14  16
ENDBRANCH   1   2
BRANCH   1  18
ATOM     18  C   UNL     1       1.969   8.357  17.449  0.00  0.00    +0.000 C 
BRANCH  18  20
ATOM     19  C   UNL     1       1.267  10.530  18.475  0.00  0.00    +0.000 C 
ATOM     20  C   UNL     1       1.209   9.005  18.623  0.00  0.00    +0.000 C 
BRANCH  20  21
ATOM     21  C   UNL     1       1.729   8.571  20.004  0.00  0.00    +0.000 C 
BRANCH  21  22
ATOM     22  C   UNL     1       0.716   8.729  21.137  0.00  0.00    +0.000 C 
BRANCH  22  23
ATOM     23  O   UNL     1       0.749  10.072  21.626  0.00  0.00    +0.000 OA
BRANCH  23  24
ATOM     24  C   UNL     1      -0.023  10.286  22.711  0.00  0.00    +0.000 C 
ATOM     25  O   UNL     1       0.118   9.794  23.819  0.00  0.00    +0.000 OA
BRANCH  24  26
ATOM     26  C   UNL     1      -1.128  11.203  22.360  0.00  0.00    +0.000 A 
ATOM     27  C   UNL     1      -2.139  11.549  23.270  0.00  0.00    +0.000 A 
ATOM     28  C   UNL     1      -3.161  12.411  22.879  0.00  0.00    +0.000 A 
ATOM     29  C   UNL     1      -3.167  12.930  21.582  0.00  0.00    +0.000 A 
ATOM     30 BR   UNL     1      -4.554  14.097  21.049  0.00  0.00    +0.000 Br
ATOM     31  C   UNL     1      -2.165  12.591  20.674  0.00  0.00    +0.000 A 
ATOM     32  C   UNL     1      -1.144  11.724  21.060  0.00  0.00    +0.000 A 
ENDBRANCH  24  26
ENDBRANCH  23  24
ENDBRANCH  22  23
ENDBRANCH  21  22
ENDBRANCH  20  21
ENDBRANCH  18  20
ENDBRANCH   1  18
TORSDOF 9
ENDMDL
MODEL 2
REMARK VINA RESULT:      -7.9      1.944      3.665
REMARK  Name = 
REMARK  14 active torsions:
REMARK  status: ('A' for Active; 'I' for Inactive)
REMARK    1  A    between atoms: C_1  and  C_2
REMARK    2  A    between atoms: C_2  and  C_3
REMARK    3  A    between atoms: C_2  and  C_15
REMARK    4  A    between atoms: C_3  and  C_4
REMARK    5  A    between atoms: C_4  and  O_5
REMARK    6  A    between atoms: O_5  and  C_6
REMARK    7  A    between atoms: C_6  and  C_8
REMARK    8  A    between atoms: C_15  and  C_16
REMARK    9  A    between atoms: C_16  and  C_17
REMARK   10  A    between atoms: C_18  and  C_19
REMARK   11  A    between atoms: C_23  and  C_24
REMARK   12  A    between atoms: C_23  and  C_25
REMARK   13  A    between atoms: C_29  and  C_30
REMARK   14  A    between atoms: C_29  and  O_31
REMARK                            x       y       z     vdW  Elec       q    Type
REMARK                         _______ _______ _______ _____ _____    ______ ____
ROOT
ATOM      1  C   UNL     1       1.168   5.794  20.667  0.00  0.00    +0.000 C 
ENDROOT
BRANCH   1   2
ATOM      2  C   UNL     1       2.488   5.032  20.343  0.00  0.00    +0.000 C 
ATOM      3  C   UNL     1       3.024   5.326  18.855  0.00  0.00    +0.000 C 
ATOM      4  C   UNL     1       1.954   4.967  17.794  0.00  0.00    +0.000 C 
ATOM      5  C   UNL     1       3.334   6.847  18.701  0.00  0.00    +0.000 C 
ATOM      6  C   UNL     1       4.089   7.203  17.417  0.00  0.00    +0.000 C 
ATOM      7  C   UNL     1       5.383   6.414  17.260  0.00  0.00    +0.000 C 
ATOM      8  C   UNL     1       5.218   4.879  17.380  0.00  0.00    +0.000 C 
ATOM      9  C   UNL     1       4.641   4.289  16.081  0.00  0.00    +0.000 C 
ATOM     10  C   UNL     1       6.650   4.293  17.518  0.00  0.00    +0.000 C 
ATOM     11  C   UNL     1       4.387   4.553  18.668  0.00  0.00    +0.000 C 
ATOM     12  C   UNL     1       4.224   3.050  18.948  0.00  0.00    +0.000 C 
ATOM     13  C   UNL     1       3.828   2.847  20.400  0.00  0.00    +0.000 C 
ATOM     14  C   UNL     1       2.494   3.510  20.755  0.00  0.00    +0.000 C 
ATOM     15  C   UNL     1       1.338   2.655  20.222  0.00  0.00    +0.000 C 
BRANCH  14  16
ATOM     16  O   UNL     1       2.404   3.398  22.187  0.00  0.00    +0.000 OA
ATOM     17  H   UNL     1       3.256   3.075  22.523  0.00  0.00    +0.000 HD
ENDBRANCH  14  16
ENDBRANCH   1   2
BRANCH   1  18
ATOM     18  C   UNL     1       1.334   7.209  21.232  0.00  0.00    +0.000 C 
BRANCH  18  20
ATOM     19  C   UNL     1       0.772   9.307  19.987  0.00  0.00    +0.000 C 
ATOM     20  C   UNL     1       0.195   8.171  20.840  0.00  0.00    +0.000 C 
BRANCH  20  21
ATOM     21  C   UNL     1      -0.576   8.732  22.047  0.00  0.00    +0.000 C 
BRANCH  21  22
ATOM     22  C   UNL     1       0.259   9.614  22.973  0.00  0.00    +0.000 C 
BRANCH  22  23
ATOM     23  O   UNL     1      -0.498  10.766  23.350  0.00  0.00    +0.000 OA
BRANCH  23  24
ATOM     24  C   UNL     1      -0.511  11.748  22.426  0.00  0.00    +0.000 C 
ATOM     25  O   UNL     1       0.458  12.273  21.901  0.00  0.00    +0.000 OA
BRANCH  24  26
ATOM     26  C   UNL     1      -1.906  12.148  22.147  0.00  0.00    +0.000 A 
ATOM     27  C   UNL     1      -2.389  12.345  20.845  0.00  0.00    +0.000 A 
ATOM     28  C   UNL     1      -3.713  12.731  20.644  0.00  0.00    +0.000 A 
ATOM     29  C   UNL     1      -4.551  12.915  21.746  0.00  0.00    +0.000 A 
ATOM     30 BR   UNL     1      -6.345  13.443  21.477  0.00  0.00    +0.000 Br
ATOM     31  C   UNL     1      -4.077  12.721  23.042  0.00  0.00    +0.000 A 
ATOM     32  C   UNL     1      -2.753  12.339  23.247  0.00  0.00    +0.000 A 
ENDBRANCH  24  26
ENDBRANCH  23  24
ENDBRANCH  22  23
ENDBRANCH  21  22
ENDBRANCH  20  21
ENDBRANCH  18  20
ENDBRANCH   1  18
TORSDOF 9
ENDMDL
MODEL 3
REMARK VINA RESULT:      -7.7      0.807      1.020
REMARK  Name = 
REMARK  14 active torsions:
REMARK  status: ('A' for Active; 'I' for Inactive)
REMARK    1  A    between atoms: C_1  and  C_2
REMARK    2  A    between atoms: C_2  and  C_3
REMARK    3  A    between atoms: C_2  and  C_15
REMARK    4  A    between atoms: C_3  and  C_4
REMARK    5  A    between atoms: C_4  and  O_5
REMARK    6  A    between atoms: O_5  and  C_6
REMARK    7  A    between atoms: C_6  and  C_8
REMARK    8  A    between atoms: C_15  and  C_16
REMARK    9  A    between atoms: C_16  and  C_17
REMARK   10  A    between atoms: C_18  and  C_19
REMARK   11  A    between atoms: C_23  and  C_24
REMARK   12  A    between atoms: C_23  and  C_25
REMARK   13  A    between atoms: C_29  and  C_30
REMARK   14  A    between atoms: C_29  and  O_31
REMARK                            x       y       z     vdW  Elec       q    Type
REMARK                         _______ _______ _______ _____ _____    ______ ____
ROOT
ATOM      1  C   UNL     1       3.298   7.826  17.784  0.00  0.00    +0.000 C 
ENDROOT
BRANCH   1   2
ATOM      2  C   UNL     1       3.662   6.379  17.333  0.00  0.00    +0.000 C 
ATOM      3  C   UNL     1       3.441   5.293  18.499  0.00  0.00    +0.000 C 
ATOM      4  C   UNL     1       4.259   5.656  19.763  0.00  0.00    +0.000 C 
ATOM      5  C   UNL     1       1.937   5.269  18.914  0.00  0.00    +0.000 C 
ATOM      6  C   UNL     1       1.561   4.101  19.831  0.00  0.00    +0.000 C 
ATOM      7  C   UNL     1       1.935   2.748  19.237  0.00  0.00    +0.000 C 
ATOM      8  C   UNL     1       3.412   2.628  18.790  0.00  0.00    +0.000 C 
ATOM      9  C   UNL     1       4.334   2.407  20.003  0.00  0.00    +0.000 C 
ATOM     10  C   UNL     1       3.509   1.333  17.937  0.00  0.00    +0.000 C 
ATOM     11  C   UNL     1       3.782   3.871  17.909  0.00  0.00    +0.000 C 
ATOM     12  C   UNL     1       5.205   3.829  17.329  0.00  0.00    +0.000 C 
ATOM     13  C   UNL     1       5.304   4.796  16.162  0.00  0.00    +0.000 C 
ATOM     14  C   UNL     1       5.033   6.249  16.565  0.00  0.00    +0.000 C 
ATOM     15  C   UNL     1       6.267   6.826  17.269  0.00  0.00    +0.000 C 
BRANCH  14  16
ATOM     16  O   UNL     1       4.955   6.961  15.317  0.00  0.00    +0.000 OA
ATOM     17  H   UNL     1       5.465   7.784  15.402  0.00  0.00    +0.000 HD
ENDBRANCH  14  16
ENDBRANCH   1   2
BRANCH   1  18
ATOM     18  C   UNL     1       1.915   8.331  17.358  0.00  0.00    +0.000 C 
BRANCH  18  20
ATOM     19  C   UNL     1       1.973  10.709  18.139  0.00  0.00    +0.000 C 
ATOM     20  C   UNL     1       1.296   9.347  18.338  0.00  0.00    +0.000 C 
BRANCH  20  21
ATOM     21  C   UNL     1       1.378   8.907  19.809  0.00  0.00    +0.000 C 
BRANCH  21  22
ATOM     22  C   UNL     1       0.334   9.552  20.718  0.00  0.00    +0.000 C 
BRANCH  22  23
ATOM     23  O   UNL     1       0.979  10.430  21.643  0.00  0.00    +0.000 OA
BRANCH  23  24
ATOM     24  C   UNL     1       0.739  11.739  21.425  0.00  0.00    +0.000 C 
ATOM     25  O   UNL     1       1.547  12.583  21.074  0.00  0.00    +0.000 OA
BRANCH  24  26
ATOM     26  C   UNL     1      -0.679  12.038  21.714  0.00  0.00    +0.000 A 
ATOM     27  C   UNL     1      -1.267  11.775  22.960  0.00  0.00    +0.000 A 
ATOM     28  C   UNL     1      -2.613  12.070  23.170  0.00  0.00    +0.000 A 
ATOM     29  C   UNL     1      -3.364  12.633  22.137  0.00  0.00    +0.000 A 
ATOM     30 BR   UNL     1      -5.190  13.032  22.419  0.00  0.00    +0.000 Br
ATOM     31  C   UNL     1      -2.785  12.899  20.897  0.00  0.00    +0.000 A 
ATOM     32  C   UNL     1      -1.441  12.599  20.681  0.00  0.00    +0.000 A 
ENDBRANCH  24  26
ENDBRANCH  23  24
ENDBRANCH  22  23
ENDBRANCH  21  22
ENDBRANCH  20  21
ENDBRANCH  18  20
ENDBRANCH   1  18
TORSDOF 9
ENDMDL
MODEL 4
REMARK VINA RESULT:      -7.7      1.057      1.673
REMARK  Name = 
REMARK  14 active torsions:
REMARK  status: ('A' for Active; 'I' for Inactive)
REMARK    1  A    between atoms: C_1  and  C_2
REMARK    2  A    between atoms: C_2  and  C_3
REMARK    3  A    between atoms: C_2  and  C_15
REMARK    4  A    between atoms: C_3  and  C_4
REMARK    5  A    between atoms: C_4  and  O_5
REMARK    6  A    between atoms: O_5  and  C_6
REMARK    7  A    between atoms: C_6  and  C_8
REMARK    8  A    between atoms: C_15  and  C_16
REMARK    9  A    between atoms: C_16  and  C_17
REMARK   10  A    between atoms: C_18  and  C_19
REMARK   11  A    between atoms: C_23  and  C_24
REMARK   12  A    between atoms: C_23  and  C_25
REMARK   13  A    between atoms: C_29  and  C_30
REMARK   14  A    between atoms: C_29  and  O_31
REMARK                            x       y       z     vdW  Elec       q    Type
REMARK                         _______ _______ _______ _____ _____    ______ ____
ROOT
ATOM      1  C   UNL     1       3.341   7.902  17.622  0.00  0.00    +0.000 C 
ENDROOT
BRANCH   1   2
ATOM      2  C   UNL     1       3.710   6.447  17.202  0.00  0.00    +0.000 C 
ATOM      3  C   UNL     1       3.448   5.377  18.374  0.00  0.00    +0.000 C 
ATOM      4  C   UNL     1       4.229   5.752  19.658  0.00  0.00    +0.000 C 
ATOM      5  C   UNL     1       1.932   5.367  18.744  0.00  0.00    +0.000 C 
ATOM      6  C   UNL     1       1.522   4.212  19.663  0.00  0.00    +0.000 C 
ATOM      7  C   UNL     1       1.905   2.850  19.098  0.00  0.00    +0.000 C 
ATOM      8  C   UNL     1       3.395   2.717  18.698  0.00  0.00    +0.000 C 
ATOM      9  C   UNL     1       4.278   2.507  19.941  0.00  0.00    +0.000 C 
ATOM     10  C   UNL     1       3.510   1.410  17.865  0.00  0.00    +0.000 C 
ATOM     11  C   UNL     1       3.799   3.946  17.813  0.00  0.00    +0.000 C 
ATOM     12  C   UNL     1       5.239   3.889  17.277  0.00  0.00    +0.000 C 
ATOM     13  C   UNL     1       5.378   4.841  16.102  0.00  0.00    +0.000 C 
ATOM     14  C   UNL     1       5.103   6.300  16.478  0.00  0.00    +0.000 C 
ATOM     15  C   UNL     1       6.318   6.879  17.211  0.00  0.00    +0.000 C 
BRANCH  14  16
ATOM     16  O   UNL     1       5.067   6.997  15.219  0.00  0.00    +0.000 OA
ATOM     17  H   UNL     1       5.686   6.561  14.610  0.00  0.00    +0.000 HD
ENDBRANCH  14  16
ENDBRANCH   1   2
BRANCH   1  18
ATOM     18  C   UNL     1       1.849   8.174  17.849  0.00  0.00    +0.000 C 
BRANCH  18  20
ATOM     19  C   UNL     1       1.215   8.635  20.226  0.00  0.00    +0.000 C 
ATOM     20  C   UNL     1       1.571   9.283  18.883  0.00  0.00    +0.000 C 
BRANCH  20  21
ATOM     21  C   UNL     1       0.475  10.269  18.444  0.00  0.00    +0.000 C 
BRANCH  21  22
ATOM     22  C   UNL     1      -0.688  10.396  19.426  0.00  0.00    +0.000 C 
BRANCH  22  23
ATOM     23  O   UNL     1      -0.782  11.745  19.886  0.00  0.00    +0.000 OA
BRANCH  23  24
ATOM     24  C   UNL     1      -0.678  11.884  21.224  0.00  0.00    +0.000 C 
ATOM     25  O   UNL     1       0.328  11.737  21.899  0.00  0.00    +0.000 OA
BRANCH  24  26
ATOM     26  C   UNL     1      -2.001  12.215  21.793  0.00  0.00    +0.000 A 
ATOM     27  C   UNL     1      -3.033  12.779  21.027  0.00  0.00    +0.000 A 
ATOM     28  C   UNL     1      -4.257  13.078  21.622  0.00  0.00    +0.000 A 
ATOM     29  C   UNL     1      -4.448  12.808  22.979  0.00  0.00    +0.000 A 
ATOM     30 BR   UNL     1      -6.106  13.217  23.788  0.00  0.00    +0.000 Br
ATOM     31  C   UNL     1      -3.428  12.247  23.744  0.00  0.00    +0.000 A 
ATOM     32  C   UNL     1      -2.200  11.952  23.154  0.00  0.00    +0.000 A 
ENDBRANCH  24  26
ENDBRANCH  23  24
ENDBRANCH  22  23
ENDBRANCH  21  22
ENDBRANCH  20  21
ENDBRANCH  18  20
ENDBRANCH   1  18
TORSDOF 9
ENDMDL
MODEL 5
REMARK VINA RESULT:      -7.7      1.579      2.075
REMARK  Name = 
REMARK  14 active torsions:
REMARK  status: ('A' for Active; 'I' for Inactive)
REMARK    1  A    between atoms: C_1  and  C_2
REMARK    2  A    between atoms: C_2  and  C_3
REMARK    3  A    between atoms: C_2  and  C_15
REMARK    4  A    between atoms: C_3  and  C_4
REMARK    5  A    between atoms: C_4  and  O_5
REMARK    6  A    between atoms: O_5  and  C_6
REMARK    7  A    between atoms: C_6  and  C_8
REMARK    8  A    between atoms: C_15  and  C_16
REMARK    9  A    between atoms: C_16  and  C_17
REMARK   10  A    between atoms: C_18  and  C_19
REMARK   11  A    between atoms: C_23  and  C_24
REMARK   12  A    between atoms: C_23  and  C_25
REMARK   13  A    between atoms: C_29  and  C_30
REMARK   14  A    between atoms: C_29  and  O_31
REMARK                            x       y       z     vdW  Elec       q    Type
REMARK                         _______ _______ _______ _____ _____    ______ ____
ROOT
ATOM      1  C   UNL     1       3.434   7.771  17.741  0.00  0.00    +0.000 C 
ENDROOT
BRANCH   1   2
ATOM      2  C   UNL     1       3.770   6.312  17.306  0.00  0.00    +0.000 C 
ATOM      3  C   UNL     1       3.535   5.244  18.486  0.00  0.00    +0.000 C 
ATOM      4  C   UNL     1       4.364   5.607  19.743  0.00  0.00    +0.000 C 
ATOM      5  C   UNL     1       2.032   5.253  18.907  0.00  0.00    +0.000 C 
ATOM      6  C   UNL     1       1.638   4.102  19.838  0.00  0.00    +0.000 C 
ATOM      7  C   UNL     1       1.985   2.736  19.259  0.00  0.00    +0.000 C 
ATOM      8  C   UNL     1       3.458   2.584  18.808  0.00  0.00    +0.000 C 
ATOM      9  C   UNL     1       4.381   2.361  20.020  0.00  0.00    +0.000 C 
ATOM     10  C   UNL     1       3.528   1.277  17.971  0.00  0.00    +0.000 C 
ATOM     11  C   UNL     1       3.847   3.809  17.912  0.00  0.00    +0.000 C 
ATOM     12  C   UNL     1       5.267   3.735  17.326  0.00  0.00    +0.000 C 
ATOM     13  C   UNL     1       5.379   4.686  16.148  0.00  0.00    +0.000 C 
ATOM     14  C   UNL     1       5.135   6.148  16.535  0.00  0.00    +0.000 C 
ATOM     15  C   UNL     1       6.383   6.711  17.227  0.00  0.00    +0.000 C 
BRANCH  14  16
ATOM     16  O   UNL     1       5.066   6.847  15.278  0.00  0.00    +0.000 OA
ATOM     17  H   UNL     1       5.537   7.692  15.371  0.00  0.00    +0.000 HD
ENDBRANCH  14  16
ENDBRANCH   1   2
BRANCH   1  18
ATOM     18  C   UNL     1       1.984   8.216  17.524  0.00  0.00    +0.000 C 
BRANCH  18  20
ATOM     19  C   UNL     1       1.392   8.731  19.902  0.00  0.00    +0.000 C 
ATOM     20  C   UNL     1       1.523   9.322  18.493  0.00  0.00    +0.000 C 
BRANCH  20  21
ATOM     21  C   UNL     1       0.213  10.005  18.064  0.00  0.00    +0.000 C 
BRANCH  21  22
ATOM     22  C   UNL     1      -0.721  10.359  19.220  0.00  0.00    +0.000 C 
BRANCH  22  23
ATOM     23  O   UNL     1      -1.616  11.397  18.813  0.00  0.00    +0.000 OA
BRANCH  23  24
ATOM     24  C   UNL     1      -1.428  12.572  19.448  0.00  0.00    +0.000 C 
ATOM     25  O   UNL     1      -0.762  13.517  19.057  0.00  0.00    +0.000 OA
BRANCH  24  26
ATOM     26  C   UNL     1      -2.133  12.553  20.746  0.00  0.00    +0.000 A 
ATOM     27  C   UNL     1      -1.475  12.296  21.959  0.00  0.00    +0.000 A 
ATOM     28  C   UNL     1      -2.195  12.282  23.152  0.00  0.00    +0.000 A 
ATOM     29  C   UNL     1      -3.569  12.530  23.130  0.00  0.00    +0.000 A 
ATOM     30 BR   UNL     1      -4.548  12.508  24.746  0.00  0.00    +0.000 Br
ATOM     31  C   UNL     1      -4.228  12.787  21.929  0.00  0.00    +0.000 A 
ATOM     32  C   UNL     1      -3.513  12.797  20.733  0.00  0.00    +0.000 A 
ENDBRANCH  24  26
ENDBRANCH  23  24
ENDBRANCH  22  23
ENDBRANCH  21  22
ENDBRANCH  20  21
ENDBRANCH  18  20
ENDBRANCH   1  18
TORSDOF 9
ENDMDL
MODEL 6
REMARK VINA RESULT:      -7.5      2.188      2.895
REMARK  Name = 
REMARK  14 active torsions:
REMARK  status: ('A' for Active; 'I' for Inactive)
REMARK    1  A    between atoms: C_1  and  C_2
REMARK    2  A    between atoms: C_2  and  C_3
REMARK    3  A    between atoms: C_2  and  C_15
REMARK    4  A    between atoms: C_3  and  C_4
REMARK    5  A    between atoms: C_4  and  O_5
REMARK    6  A    between atoms: O_5  and  C_6
REMARK    7  A    between atoms: C_6  and  C_8
REMARK    8  A    between atoms: C_15  and  C_16
REMARK    9  A    between atoms: C_16  and  C_17
REMARK   10  A    between atoms: C_18  and  C_19
REMARK   11  A    between atoms: C_23  and  C_24
REMARK   12  A    between atoms: C_23  and  C_25
REMARK   13  A    between atoms: C_29  and  C_30
REMARK   14  A    between atoms: C_29  and  O_31
REMARK                            x       y       z     vdW  Elec       q    Type
REMARK                         _______ _______ _______ _____ _____    ______ ____
ROOT
ATOM      1  C   UNL     1       3.347   7.801  17.689  0.00  0.00    +0.000 C 
ENDROOT
BRANCH   1   2
ATOM      2  C   UNL     1       3.722   6.348  17.269  0.00  0.00    +0.000 C 
ATOM      3  C   UNL     1       3.480   5.280  18.447  0.00  0.00    +0.000 C 
ATOM      4  C   UNL     1       4.272   5.664  19.722  0.00  0.00    +0.000 C 
ATOM      5  C   UNL     1       1.967   5.260  18.832  0.00  0.00    +0.000 C 
ATOM      6  C   UNL     1       1.575   4.106  19.759  0.00  0.00    +0.000 C 
ATOM      7  C   UNL     1       1.961   2.744  19.194  0.00  0.00    +0.000 C 
ATOM      8  C   UNL     1       3.447   2.620  18.778  0.00  0.00    +0.000 C 
ATOM      9  C   UNL     1       4.345   2.419  20.013  0.00  0.00    +0.000 C 
ATOM     10  C   UNL     1       3.563   1.312  17.948  0.00  0.00    +0.000 C 
ATOM     11  C   UNL     1       3.834   3.849  17.886  0.00  0.00    +0.000 C 
ATOM     12  C   UNL     1       5.269   3.801  17.335  0.00  0.00    +0.000 C 
ATOM     13  C   UNL     1       5.390   4.750  16.156  0.00  0.00    +0.000 C 
ATOM     14  C   UNL     1       5.108   6.208  16.531  0.00  0.00    +0.000 C 
ATOM     15  C   UNL     1       6.327   6.797  17.250  0.00  0.00    +0.000 C 
BRANCH  14  16
ATOM     16  O   UNL     1       5.055   6.901  15.270  0.00  0.00    +0.000 OA
ATOM     17  H   UNL     1       4.165   7.276  15.165  0.00  0.00    +0.000 HD
ENDBRANCH  14  16
ENDBRANCH   1   2
BRANCH   1  18
ATOM     18  C   UNL     1       1.852   8.079  17.873  0.00  0.00    +0.000 C 
BRANCH  18  20
ATOM     19  C   UNL     1       1.088   8.828  20.137  0.00  0.00    +0.000 C 
ATOM     20  C   UNL     1       1.553   9.307  18.757  0.00  0.00    +0.000 C 
BRANCH  20  21
ATOM     21  C   UNL     1       0.525  10.270  18.139  0.00  0.00    +0.000 C 
BRANCH  21  22
ATOM     22  C   UNL     1      -0.792  10.363  18.906  0.00  0.00    +0.000 C 
BRANCH  22  23
ATOM     23  O   UNL     1      -1.443  11.597  18.595  0.00  0.00    +0.000 OA
BRANCH  23  24
ATOM     24  C   UNL     1      -2.487  11.476  17.750  0.00  0.00    +0.000 C 
ATOM     25  O   UNL     1      -2.437  11.322  16.541  0.00  0.00    +0.000 OA
BRANCH  24  26
ATOM     26  C   UNL     1      -3.752  11.598  18.504  0.00  0.00    +0.000 A 
ATOM     27  C   UNL     1      -4.924  10.925  18.126  0.00  0.00    +0.000 A 
ATOM     28  C   UNL     1      -6.090  11.086  18.872  0.00  0.00    +0.000 A 
ATOM     29  C   UNL     1      -6.080  11.914  19.997  0.00  0.00    +0.000 A 
ATOM     30 BR   UNL     1      -7.661  12.136  21.008  0.00  0.00    +0.000 Br
ATOM     31  C   UNL     1      -4.918  12.583  20.379  0.00  0.00    +0.000 A 
ATOM     32  C   UNL     1      -3.752  12.429  19.632  0.00  0.00    +0.000 A 
ENDBRANCH  24  26
ENDBRANCH  23  24
ENDBRANCH  22  23
ENDBRANCH  21  22
ENDBRANCH  20  21
ENDBRANCH  18  20
ENDBRANCH   1  18
TORSDOF 9
ENDMDL
MODEL 7
REMARK VINA RESULT:      -7.5      1.339      1.920
REMARK  Name = 
REMARK  14 active torsions:
REMARK  status: ('A' for Active; 'I' for Inactive)
REMARK    1  A    between atoms: C_1  and  C_2
REMARK    2  A    between atoms: C_2  and  C_3
REMARK    3  A    between atoms: C_2  and  C_15
REMARK    4  A    between atoms: C_3  and  C_4
REMARK    5  A    between atoms: C_4  and  O_5
REMARK    6  A    between atoms: O_5  and  C_6
REMARK    7  A    between atoms: C_6  and  C_8
REMARK    8  A    between atoms: C_15  and  C_16
REMARK    9  A    between atoms: C_16  and  C_17
REMARK   10  A    between atoms: C_18  and  C_19
REMARK   11  A    between atoms: C_23  and  C_24
REMARK   12  A    between atoms: C_23  and  C_25
REMARK   13  A    between atoms: C_29  and  C_30
REMARK   14  A    between atoms: C_29  and  O_31
REMARK                            x       y       z     vdW  Elec       q    Type
REMARK                         _______ _______ _______ _____ _____    ______ ____
ROOT
ATOM      1  C   UNL     1       3.319   7.959  17.845  0.00  0.00    +0.000 C 
ENDROOT
BRANCH   1   2
ATOM      2  C   UNL     1       3.629   6.515  17.348  0.00  0.00    +0.000 C 
ATOM      3  C   UNL     1       3.442   5.409  18.501  0.00  0.00    +0.000 C 
ATOM      4  C   UNL     1       4.327   5.728  19.731  0.00  0.00    +0.000 C 
ATOM      5  C   UNL     1       1.959   5.408  18.988  0.00  0.00    +0.000 C 
ATOM      6  C   UNL     1       1.602   4.228  19.898  0.00  0.00    +0.000 C 
ATOM      7  C   UNL     1       1.917   2.881  19.259  0.00  0.00    +0.000 C 
ATOM      8  C   UNL     1       3.368   2.740  18.739  0.00  0.00    +0.000 C 
ATOM      9  C   UNL     1       4.342   2.474  19.901  0.00  0.00    +0.000 C 
ATOM     10  C   UNL     1       3.395   1.461  17.856  0.00  0.00    +0.000 C 
ATOM     11  C   UNL     1       3.723   3.993  17.867  0.00  0.00    +0.000 C 
ATOM     12  C   UNL     1       5.115   3.934  17.217  0.00  0.00    +0.000 C 
ATOM     13  C   UNL     1       5.178   4.923  16.067  0.00  0.00    +0.000 C 
ATOM     14  C   UNL     1       4.958   6.372  16.512  0.00  0.00    +0.000 C 
ATOM     15  C   UNL     1       6.237   6.908  17.166  0.00  0.00    +0.000 C 
BRANCH  14  16
ATOM     16  O   UNL     1       4.836   7.113  15.283  0.00  0.00    +0.000 OA
ATOM     17  H   UNL     1       4.410   6.542  14.623  0.00  0.00    +0.000 HD
ENDBRANCH  14  16
ENDBRANCH   1   2
BRANCH   1  18
ATOM     18  C   UNL     1       1.868   8.425  17.682  0.00  0.00    +0.000 C 
BRANCH  18  20
ATOM     19  C   UNL     1       1.309   8.602  20.116  0.00  0.00    +0.000 C 
ATOM     20  C   UNL     1       1.394   9.378  18.796  0.00  0.00    +0.000 C 
BRANCH  20  21
ATOM     21  C   UNL     1       0.056  10.070  18.482  0.00  0.00    +0.000 C 
BRANCH  21  22
ATOM     22  C   UNL     1       0.028  11.562  18.806  0.00  0.00    +0.000 C 
BRANCH  22  23
ATOM     23  O   UNL     1       0.913  11.834  19.895  0.00  0.00    +0.000 OA
BRANCH  23  24
ATOM     24  C   UNL     1       0.667  12.998  20.532  0.00  0.00    +0.000 C 
ATOM     25  O   UNL     1       1.281  14.045  20.406  0.00  0.00    +0.000 OA
BRANCH  24  26
ATOM     26  C   UNL     1      -0.463  12.822  21.468  0.00  0.00    +0.000 A 
ATOM     27  C   UNL     1      -0.621  11.670  22.253  0.00  0.00    +0.000 A 
ATOM     28  C   UNL     1      -1.713  11.558  23.111  0.00  0.00    +0.000 A 
ATOM     29  C   UNL     1      -2.640  12.599  23.186  0.00  0.00    +0.000 A 
ATOM     30 BR   UNL     1      -4.124  12.447  24.347  0.00  0.00    +0.000 Br
ATOM     31  C   UNL     1      -2.488  13.746  22.410  0.00  0.00    +0.000 A 
ATOM     32  C   UNL     1      -1.400  13.860  21.546  0.00  0.00    +0.000 A 
ENDBRANCH  24  26
ENDBRANCH  23  24
ENDBRANCH  22  23
ENDBRANCH  21  22
ENDBRANCH  20  21
ENDBRANCH  18  20
ENDBRANCH   1  18
TORSDOF 9
ENDMDL
MODEL 8
REMARK VINA RESULT:      -7.5      3.093      3.969
REMARK  Name = 
REMARK  14 active torsions:
REMARK  status: ('A' for Active; 'I' for Inactive)
REMARK    1  A    between atoms: C_1  and  C_2
REMARK    2  A    between atoms: C_2  and  C_3
REMARK    3  A    between atoms: C_2  and  C_15
REMARK    4  A    between atoms: C_3  and  C_4
REMARK    5  A    between atoms: C_4  and  O_5
REMARK    6  A    between atoms: O_5  and  C_6
REMARK    7  A    between atoms: C_6  and  C_8
REMARK    8  A    between atoms: C_15  and  C_16
REMARK    9  A    between atoms: C_16  and  C_17
REMARK   10  A    between atoms: C_18  and  C_19
REMARK   11  A    between atoms: C_23  and  C_24
REMARK   12  A    between atoms: C_23  and  C_25
REMARK   13  A    between atoms: C_29  and  C_30
REMARK   14  A    between atoms: C_29  and  O_31
REMARK                            x       y       z     vdW  Elec       q    Type
REMARK                         _______ _______ _______ _____ _____    ______ ____
ROOT
ATOM      1  C   UNL     1       3.363   7.871  17.895  0.00  0.00    +0.000 C 
ENDROOT
BRANCH   1   2
ATOM      2  C   UNL     1       3.670   6.435  17.374  0.00  0.00    +0.000 C 
ATOM      3  C   UNL     1       3.475   5.309  18.507  0.00  0.00    +0.000 C 
ATOM      4  C   UNL     1       4.358   5.604  19.745  0.00  0.00    +0.000 C 
ATOM      5  C   UNL     1       1.991   5.304  18.989  0.00  0.00    +0.000 C 
ATOM      6  C   UNL     1       1.628   4.109  19.876  0.00  0.00    +0.000 C 
ATOM      7  C   UNL     1       1.940   2.773  19.215  0.00  0.00    +0.000 C 
ATOM      8  C   UNL     1       3.393   2.636  18.697  0.00  0.00    +0.000 C 
ATOM      9  C   UNL     1       4.362   2.347  19.857  0.00  0.00    +0.000 C 
ATOM     10  C   UNL     1       3.419   1.374  17.792  0.00  0.00    +0.000 C 
ATOM     11  C   UNL     1       3.754   3.904  17.848  0.00  0.00    +0.000 C 
ATOM     12  C   UNL     1       5.148   3.852  17.202  0.00  0.00    +0.000 C 
ATOM     13  C   UNL     1       5.219   4.862  16.070  0.00  0.00    +0.000 C 
ATOM     14  C   UNL     1       5.002   6.303  16.540  0.00  0.00    +0.000 C 
ATOM     15  C   UNL     1       6.280   6.824  17.208  0.00  0.00    +0.000 C 
BRANCH  14  16
ATOM     16  O   UNL     1       4.886   7.066  15.324  0.00  0.00    +0.000 OA
ATOM     17  H   UNL     1       4.118   6.737  14.829  0.00  0.00    +0.000 HD
ENDBRANCH  14  16
ENDBRANCH   1   2
BRANCH   1  18
ATOM     18  C   UNL     1       1.969   8.418  17.567  0.00  0.00    +0.000 C 
BRANCH  18  20
ATOM     19  C   UNL     1       1.432   8.658  20.000  0.00  0.00    +0.000 C 
ATOM     20  C   UNL     1       1.406   9.368  18.641  0.00  0.00    +0.000 C 
BRANCH  20  21
ATOM     21  C   UNL     1      -0.007   9.885  18.321  0.00  0.00    +0.000 C 
BRANCH  21  22
ATOM     22  C   UNL     1      -0.450  11.074  19.172  0.00  0.00    +0.000 C 
BRANCH  22  23
ATOM     23  O   UNL     1       0.610  12.029  19.251  0.00  0.00    +0.000 OA
BRANCH  23  24
ATOM     24  C   UNL     1       0.371  13.179  18.588  0.00  0.00    +0.000 C 
ATOM     25  O   UNL     1      -0.637  13.468  17.963  0.00  0.00    +0.000 OA
BRANCH  24  26
ATOM     26  C   UNL     1       1.549  14.065  18.689  0.00  0.00    +0.000 A 
ATOM     27  C   UNL     1       1.465  15.382  19.167  0.00  0.00    +0.000 A 
ATOM     28  C   UNL     1       2.610  16.173  19.231  0.00  0.00    +0.000 A 
ATOM     29  C   UNL     1       3.837  15.644  18.823  0.00  0.00    +0.000 A 
ATOM     30 BR   UNL     1       5.390  16.717  18.906  0.00  0.00    +0.000 Br
ATOM     31  C   UNL     1       3.927  14.337  18.349  0.00  0.00    +0.000 A 
ATOM     32  C   UNL     1       2.783  13.544  18.278  0.00  0.00    +0.000 A 
ENDBRANCH  24  26
ENDBRANCH  23  24
ENDBRANCH  22  23
ENDBRANCH  21  22
ENDBRANCH  20  21
ENDBRANCH  18  20
ENDBRANCH   1  18
TORSDOF 9
ENDMDL
MODEL 9
REMARK VINA RESULT:      -7.5      1.196      1.316
REMARK  Name = 
REMARK  14 active torsions:
REMARK  status: ('A' for Active; 'I' for Inactive)
REMARK    1  A    between atoms: C_1  and  C_2
REMARK    2  A    between atoms: C_2  and  C_3
REMARK    3  A    between atoms: C_2  and  C_15
REMARK    4  A    between atoms: C_3  and  C_4
REMARK    5  A    between atoms: C_4  and  O_5
REMARK    6  A    between atoms: O_5  and  C_6
REMARK    7  A    between atoms: C_6  and  C_8
REMARK    8  A    between atoms: C_15  and  C_16
REMARK    9  A    between atoms: C_16  and  C_17
REMARK   10  A    between atoms: C_18  and  C_19
REMARK   11  A    between atoms: C_23  and  C_24
REMARK   12  A    between atoms: C_23  and  C_25
REMARK   13  A    between atoms: C_29  and  C_30
REMARK   14  A    between atoms: C_29  and  O_31
REMARK                            x       y       z     vdW  Elec       q    Type
REMARK                         _______ _______ _______ _____ _____    ______ ____
ROOT
ATOM      1  C   UNL     1       3.075   7.860  17.736  0.00  0.00    +0.000 C 
ENDROOT
BRANCH   1   2
ATOM      2  C   UNL     1       3.520   6.427  17.313  0.00  0.00    +0.000 C 
ATOM      3  C   UNL     1       3.296   5.339  18.476  0.00  0.00    +0.000 C 
ATOM      4  C   UNL     1       4.041   5.745  19.772  0.00  0.00    +0.000 C 
ATOM      5  C   UNL     1       1.777   5.253  18.825  0.00  0.00    +0.000 C 
ATOM      6  C   UNL     1       1.412   4.074  19.733  0.00  0.00    +0.000 C 
ATOM      7  C   UNL     1       1.869   2.735  19.166  0.00  0.00    +0.000 C 
ATOM      8  C   UNL     1       3.369   2.677  18.785  0.00  0.00    +0.000 C 
ATOM      9  C   UNL     1       4.245   2.503  20.038  0.00  0.00    +0.000 C 
ATOM     10  C   UNL     1       3.559   1.383  17.947  0.00  0.00    +0.000 C 
ATOM     11  C   UNL     1       3.723   3.930  17.912  0.00  0.00    +0.000 C 
ATOM     12  C   UNL     1       5.171   3.947  17.395  0.00  0.00    +0.000 C 
ATOM     13  C   UNL     1       5.279   4.911  16.227  0.00  0.00    +0.000 C 
ATOM     14  C   UNL     1       4.928   6.352  16.606  0.00  0.00    +0.000 C 
ATOM     15  C   UNL     1       6.104   6.987  17.359  0.00  0.00    +0.000 C 
BRANCH  14  16
ATOM     16  O   UNL     1       4.875   7.054  15.350  0.00  0.00    +0.000 OA
ATOM     17  H   UNL     1       4.216   6.619  14.784  0.00  0.00    +0.000 HD
ENDBRANCH  14  16
ENDBRANCH   1   2
BRANCH   1  18
ATOM     18  C   UNL     1       1.562   8.089  17.829  0.00  0.00    +0.000 C 
BRANCH  18  20
ATOM     19  C   UNL     1       2.304  10.472  18.028  0.00  0.00    +0.000 C 
ATOM     20  C   UNL     1       1.178   9.485  18.357  0.00  0.00    +0.000 C 
BRANCH  20  21
ATOM     21  C   UNL     1       0.857   9.504  19.861  0.00  0.00    +0.000 C 
BRANCH  21  22
ATOM     22  C   UNL     1       0.369  10.854  20.385  0.00  0.00    +0.000 C 
BRANCH  22  23
ATOM     23  O   UNL     1      -0.800  10.664  21.185  0.00  0.00    +0.000 OA
BRANCH  23  24
ATOM     24  C   UNL     1      -0.607  10.864  22.505  0.00  0.00    +0.000 C 
ATOM     25  O   UNL     1       0.089  10.196  23.253  0.00  0.00    +0.000 OA
BRANCH  24  26
ATOM     26  C   UNL     1      -1.409  12.020  22.954  0.00  0.00    +0.000 A 
ATOM     27  C   UNL     1      -2.714  11.886  23.452  0.00  0.00    +0.000 A 
ATOM     28  C   UNL     1      -3.425  13.016  23.852  0.00  0.00    +0.000 A 
ATOM     29  C   UNL     1      -2.829  14.275  23.759  0.00  0.00    +0.000 A 
ATOM     30 BR   UNL     1      -3.792  15.808  24.299  0.00  0.00    +0.000 Br
ATOM     31  C   UNL     1      -1.532  14.414  23.267  0.00  0.00    +0.000 A 
ATOM     32  C   UNL     1      -0.820  13.288  22.860  0.00  0.00    +0.000 A 
ENDBRANCH  24  26
ENDBRANCH  23  24
ENDBRANCH  22  23
ENDBRANCH  21  22
ENDBRANCH  20  21
ENDBRANCH  18  20
ENDBRANCH   1  18
TORSDOF 9
ENDMDL
