MODEL 1
REMARK VINA RESULT:      -7.1      0.000      0.000
REMARK  Name = 
REMARK  14 active torsions:
REMARK  status: ('A' for Active; 'I' for Inactive)
REMARK    1  A    between atoms: C_1  and  O_2
REMARK    2  A    between atoms: O_2  and  C_3
REMARK    3  A    between atoms: C_3  and  C_5
REMARK    4  A    between atoms: C_6  and  C_7
REMARK    5  A    between atoms: C_7  and  S_8
REMARK    6  A    between atoms: S_8  and  C_11
REMARK    7  A    between atoms: C_13  and  O_14
REMARK    8  A    between atoms: O_14  and  C_15
REMARK    9  A    between atoms: C_18  and  O_19
REMARK   10  A    between atoms: O_19  and  C_20
REMARK   11  A    between atoms: C_25  and  C_26
REMARK   12  A    between atoms: C_29  and  O_30
REMARK   13  A    between atoms: C_31  and  O_32
REMARK   14  A    between atoms: O_32  and  C_33
REMARK                            x       y       z     vdW  Elec       q    Type
REMARK                         _______ _______ _______ _____ _____    ______ ____
ROOT
ATOM      1  C   UNL     1       0.451   9.637  20.275  0.00  0.00    +0.000 C 
ATOM      2  C   UNL     1       1.434   9.092  19.519  0.00  0.00    +0.000 C 
ATOM      3  N   UNL     1       2.067   9.932  18.616  0.00  0.00    +0.000 N 
ATOM      4  C   UNL     1       1.918  11.292  18.560  0.00  0.00    +0.000 C 
ATOM      5  O   UNL     1       2.595  12.003  17.833  0.00  0.00    +0.000 OA
ATOM      6  N   UNL     1       0.953  11.810  19.369  0.00  0.00    +0.000 N 
ATOM      7  C   UNL     1      -0.113  10.988  19.912  0.00  0.00    +0.000 C 
ATOM      8  H   UNL     1       2.793   9.568  17.996  0.00  0.00    +0.000 HD
ATOM      9  H   UNL     1       0.777  12.800  19.227  0.00  0.00    +0.000 HD
ENDROOT
BRANCH   7  10
ATOM     10  C   UNL     1      -1.300  10.895  18.951  0.00  0.00    +0.000 A 
ATOM     11  C   UNL     1      -1.277  10.060  17.821  0.00  0.00    +0.000 A 
ATOM     12  C   UNL     1      -2.363   9.991  16.954  0.00  0.00    +0.000 A 
ATOM     13  C   UNL     1      -3.507  10.733  17.220  0.00  0.00    +0.000 A 
ATOM     14  C   UNL     1      -3.577  11.564  18.343  0.00  0.00    +0.000 A 
ATOM     15  C   UNL     1      -2.471  11.637  19.202  0.00  0.00    +0.000 A 
BRANCH  13  16
ATOM     16  O   UNL     1      -4.582  10.641  16.376  0.00  0.00    +0.000 OA
ATOM     17  H   UNL     1      -4.397  11.167  15.584  0.00  0.00    +0.000 HD
ENDBRANCH  13  16
BRANCH  14  18
ATOM     18  O   UNL     1      -4.751  12.250  18.506  0.00  0.00    +0.000 OA
ATOM     19  C   UNL     1      -5.219  12.438  19.833  0.00  0.00    +0.000 C 
ENDBRANCH  14  18
ENDBRANCH   7  10
BRANCH   1  20
ATOM     20  C   UNL     1      -0.114   9.069  21.528  0.00  0.00    +0.000 C 
ATOM     21  O   UNL     1      -0.805   8.064  21.563  0.00  0.00    +0.000 OA
BRANCH  20  23
ATOM     22  C   UNL     1      -1.017  10.478  23.217  0.00  0.00    +0.000 C 
ATOM     23  O   UNL     1       0.123   9.896  22.575  0.00  0.00    +0.000 OA
ENDBRANCH  20  23
ENDBRANCH   1  20
BRANCH   2  24
ATOM     24  C   UNL     1       2.005   7.696  19.669  0.00  0.00    +0.000 C 
BRANCH  24  25
ATOM     25  S   UNL     1       2.736   7.043  18.182  0.00  0.00    +0.000 S 
ATOM     26  O   UNL     1       1.838   7.379  17.085  0.00  0.00    +0.000 OA
ATOM     27  O   UNL     1       4.097   7.536  18.107  0.00  0.00    +0.000 OA
BRANCH  25  28
ATOM     28  C   UNL     1       2.785   5.263  18.337  0.00  0.00    +0.000 A 
ATOM     29  C   UNL     1       1.924   4.755  19.344  0.00  0.00    +0.000 A 
ATOM     30  C   UNL     1       1.752   3.387  19.567  0.00  0.00    +0.000 A 
ATOM     31  C   UNL     1       2.434   2.491  18.764  0.00  0.00    +0.000 A 
ATOM     32  C   UNL     1       3.274   2.975  17.765  0.00  0.00    +0.000 A 
ATOM     33  C   UNL     1       3.472   4.354  17.521  0.00  0.00    +0.000 A 
BRANCH  30  34
ATOM     34  O   UNL     1       0.890   3.054  20.572  0.00  0.00    +0.000 OA
ATOM     35  C   UNL     1       1.482   2.642  21.800  0.00  0.00    +0.000 C 
ENDBRANCH  30  34
BRANCH  33  36
ATOM     36  O   UNL     1       4.347   4.448  16.488  0.00  0.00    +0.000 OA
ATOM     37  C   UNL     1       5.737   4.617  16.591  0.00  0.00    +0.000 C 
ENDBRANCH  33  36
ENDBRANCH  25  28
ENDBRANCH  24  25
ENDBRANCH   2  24
TORSDOF 10
ENDMDL
MODEL 2
REMARK VINA RESULT:      -7.0      1.168      2.354
REMARK  Name = 
REMARK  14 active torsions:
REMARK  status: ('A' for Active; 'I' for Inactive)
REMARK    1  A    between atoms: C_1  and  O_2
REMARK    2  A    between atoms: O_2  and  C_3
REMARK    3  A    between atoms: C_3  and  C_5
REMARK    4  A    between atoms: C_6  and  C_7
REMARK    5  A    between atoms: C_7  and  S_8
REMARK    6  A    between atoms: S_8  and  C_11
REMARK    7  A    between atoms: C_13  and  O_14
REMARK    8  A    between atoms: O_14  and  C_15
REMARK    9  A    between atoms: C_18  and  O_19
REMARK   10  A    between atoms: O_19  and  C_20
REMARK   11  A    between atoms: C_25  and  C_26
REMARK   12  A    between atoms: C_29  and  O_30
REMARK   13  A    between atoms: C_31  and  O_32
REMARK   14  A    between atoms: O_32  and  C_33
REMARK                            x       y       z     vdW  Elec       q    Type
REMARK                         _______ _______ _______ _____ _____    ______ ____
ROOT
ATOM      1  C   UNL     1       0.341   9.902  20.402  0.00  0.00    +0.000 C 
ATOM      2  C   UNL     1       1.312   9.354  19.633  0.00  0.00    +0.000 C 
ATOM      3  N   UNL     1       1.907  10.182  18.693  0.00  0.00    +0.000 N 
ATOM      4  C   UNL     1       1.734  11.538  18.610  0.00  0.00    +0.000 C 
ATOM      5  O   UNL     1       2.380  12.242  17.848  0.00  0.00    +0.000 OA
ATOM      6  N   UNL     1       0.784  12.061  19.432  0.00  0.00    +0.000 N 
ATOM      7  C   UNL     1      -0.255  11.235  20.023  0.00  0.00    +0.000 C 
ATOM      8  H   UNL     1       2.622   9.815  18.063  0.00  0.00    +0.000 HD
ATOM      9  H   UNL     1       0.588  13.044  19.272  0.00  0.00    +0.000 HD
ENDROOT
BRANCH   7  10
ATOM     10  C   UNL     1      -1.464  11.101  19.097  0.00  0.00    +0.000 A 
ATOM     11  C   UNL     1      -1.468  10.221  18.001  0.00  0.00    +0.000 A 
ATOM     12  C   UNL     1      -2.576  10.114  17.166  0.00  0.00    +0.000 A 
ATOM     13  C   UNL     1      -3.714  10.864  17.431  0.00  0.00    +0.000 A 
ATOM     14  C   UNL     1      -3.758  11.741  18.520  0.00  0.00    +0.000 A 
ATOM     15  C   UNL     1      -2.632  11.850  19.347  0.00  0.00    +0.000 A 
BRANCH  13  16
ATOM     16  O   UNL     1      -4.810  10.737  16.619  0.00  0.00    +0.000 OA
ATOM     17  H   UNL     1      -5.594  11.018  17.114  0.00  0.00    +0.000 HD
ENDBRANCH  13  16
BRANCH  14  18
ATOM     18  O   UNL     1      -4.929  12.431  18.685  0.00  0.00    +0.000 OA
ATOM     19  C   UNL     1      -5.770  12.044  19.761  0.00  0.00    +0.000 C 
ENDBRANCH  14  18
ENDBRANCH   7  10
BRANCH   1  20
ATOM     20  C   UNL     1      -0.181   9.355  21.683  0.00  0.00    +0.000 C 
ATOM     21  O   UNL     1      -0.770   8.290  21.773  0.00  0.00    +0.000 OA
BRANCH  20  23
ATOM     22  C   UNL     1      -1.240  10.811  23.236  0.00  0.00    +0.000 C 
ATOM     23  O   UNL     1      -0.040  10.262  22.680  0.00  0.00    +0.000 OA
ENDBRANCH  20  23
ENDBRANCH   1  20
BRANCH   2  24
ATOM     24  C   UNL     1       1.909   7.971  19.799  0.00  0.00    +0.000 C 
BRANCH  24  25
ATOM     25  S   UNL     1       2.560   7.272  18.296  0.00  0.00    +0.000 S 
ATOM     26  O   UNL     1       1.431   7.069  17.399  0.00  0.00    +0.000 OA
ATOM     27  O   UNL     1       3.633   8.133  17.838  0.00  0.00    +0.000 OA
BRANCH  25  28
ATOM     28  C   UNL     1       3.249   5.671  18.697  0.00  0.00    +0.000 A 
ATOM     29  C   UNL     1       4.657   5.601  18.534  0.00  0.00    +0.000 A 
ATOM     30  C   UNL     1       5.398   4.466  18.875  0.00  0.00    +0.000 A 
ATOM     31  C   UNL     1       4.735   3.375  19.407  0.00  0.00    +0.000 A 
ATOM     32  C   UNL     1       3.356   3.434  19.581  0.00  0.00    +0.000 A 
ATOM     33  C   UNL     1       2.580   4.566  19.240  0.00  0.00    +0.000 A 
BRANCH  30  34
ATOM     34  O   UNL     1       6.743   4.550  18.661  0.00  0.00    +0.000 OA
ATOM     35  C   UNL     1       7.407   5.665  19.248  0.00  0.00    +0.000 C 
ENDBRANCH  30  34
BRANCH  33  36
ATOM     36  O   UNL     1       1.292   4.264  19.542  0.00  0.00    +0.000 OA
ATOM     37  C   UNL     1       0.749   2.976  19.671  0.00  0.00    +0.000 C 
ENDBRANCH  33  36
ENDBRANCH  25  28
ENDBRANCH  24  25
ENDBRANCH   2  24
TORSDOF 10
ENDMDL
MODEL 3
REMARK VINA RESULT:      -6.8      2.184      8.195
REMARK  Name = 
REMARK  14 active torsions:
REMARK  status: ('A' for Active; 'I' for Inactive)
REMARK    1  A    between atoms: C_1  and  O_2
REMARK    2  A    between atoms: O_2  and  C_3
REMARK    3  A    between atoms: C_3  and  C_5
REMARK    4  A    between atoms: C_6  and  C_7
REMARK    5  A    between atoms: C_7  and  S_8
REMARK    6  A    between atoms: S_8  and  C_11
REMARK    7  A    between atoms: C_13  and  O_14
REMARK    8  A    between atoms: O_14  and  C_15
REMARK    9  A    between atoms: C_18  and  O_19
REMARK   10  A    between atoms: O_19  and  C_20
REMARK   11  A    between atoms: C_25  and  C_26
REMARK   12  A    between atoms: C_29  and  O_30
REMARK   13  A    between atoms: C_31  and  O_32
REMARK   14  A    between atoms: O_32  and  C_33
REMARK                            x       y       z     vdW  Elec       q    Type
REMARK                         _______ _______ _______ _____ _____    ______ ____
ROOT
ATOM      1  C   UNL     1       1.970   6.244  19.789  0.00  0.00    +0.000 C 
ATOM      2  C   UNL     1       2.088   7.532  20.190  0.00  0.00    +0.000 C 
ATOM      3  N   UNL     1       2.298   8.479  19.199  0.00  0.00    +0.000 N 
ATOM      4  C   UNL     1       2.203   8.250  17.852  0.00  0.00    +0.000 C 
ATOM      5  O   UNL     1       2.269   9.145  17.022  0.00  0.00    +0.000 OA
ATOM      6  N   UNL     1       2.037   6.949  17.488  0.00  0.00    +0.000 N 
ATOM      7  C   UNL     1       2.364   5.856  18.385  0.00  0.00    +0.000 C 
ATOM      8  H   UNL     1       2.427   9.462  19.445  0.00  0.00    +0.000 HD
ATOM      9  H   UNL     1       2.088   6.786  16.487  0.00  0.00    +0.000 HD
ENDROOT
BRANCH   7  10
ATOM     10  C   UNL     1       3.835   5.454  18.273  0.00  0.00    +0.000 A 
ATOM     11  C   UNL     1       4.741   5.646  19.330  0.00  0.00    +0.000 A 
ATOM     12  C   UNL     1       6.078   5.279  19.210  0.00  0.00    +0.000 A 
ATOM     13  C   UNL     1       6.527   4.683  18.038  0.00  0.00    +0.000 A 
ATOM     14  C   UNL     1       5.655   4.458  16.968  0.00  0.00    +0.000 A 
ATOM     15  C   UNL     1       4.313   4.845  17.095  0.00  0.00    +0.000 A 
BRANCH  13  16
ATOM     16  O   UNL     1       7.838   4.301  17.935  0.00  0.00    +0.000 OA
ATOM     17  H   UNL     1       8.157   4.054  18.816  0.00  0.00    +0.000 HD
ENDBRANCH  13  16
BRANCH  14  18
ATOM     18  O   UNL     1       6.205   3.866  15.863  0.00  0.00    +0.000 OA
ATOM     19  C   UNL     1       6.439   4.687  14.729  0.00  0.00    +0.000 C 
ENDBRANCH  14  18
ENDBRANCH   7  10
BRANCH   1  20
ATOM     20  C   UNL     1       1.398   5.123  20.583  0.00  0.00    +0.000 C 
ATOM     21  O   UNL     1       0.228   4.783  20.524  0.00  0.00    +0.000 OA
BRANCH  20  23
ATOM     22  C   UNL     1       2.400   3.228  21.609  0.00  0.00    +0.000 C 
ATOM     23  O   UNL     1       2.311   4.650  21.464  0.00  0.00    +0.000 OA
ENDBRANCH  20  23
ENDBRANCH   1  20
BRANCH   2  24
ATOM     24  C   UNL     1       1.868   8.054  21.596  0.00  0.00    +0.000 C 
BRANCH  24  25
ATOM     25  S   UNL     1       0.311   8.884  21.831  0.00  0.00    +0.000 S 
ATOM     26  O   UNL     1      -0.732   7.878  21.689  0.00  0.00    +0.000 OA
ATOM     27  O   UNL     1       0.379   9.602  23.089  0.00  0.00    +0.000 OA
BRANCH  25  28
ATOM     28  C   UNL     1       0.124  10.072  20.509  0.00  0.00    +0.000 A 
ATOM     29  C   UNL     1      -0.860   9.711  19.553  0.00  0.00    +0.000 A 
ATOM     30  C   UNL     1      -1.219  10.544  18.490  0.00  0.00    +0.000 A 
ATOM     31  C   UNL     1      -0.602  11.776  18.374  0.00  0.00    +0.000 A 
ATOM     32  C   UNL     1       0.358  12.148  19.310  0.00  0.00    +0.000 A 
ATOM     33  C   UNL     1       0.744  11.324  20.392  0.00  0.00    +0.000 A 
BRANCH  30  34
ATOM     34  O   UNL     1      -2.182  10.057  17.654  0.00  0.00    +0.000 OA
ATOM     35  C   UNL     1      -2.365  10.756  16.428  0.00  0.00    +0.000 C 
ENDBRANCH  30  34
BRANCH  33  36
ATOM     36  O   UNL     1       1.693  12.004  21.085  0.00  0.00    +0.000 OA
ATOM     37  C   UNL     1       2.165  13.295  20.797  0.00  0.00    +0.000 C 
ENDBRANCH  33  36
ENDBRANCH  25  28
ENDBRANCH  24  25
ENDBRANCH   2  24
TORSDOF 10
ENDMDL
MODEL 4
REMARK VINA RESULT:      -6.8      2.478      4.640
REMARK  Name = 
REMARK  14 active torsions:
REMARK  status: ('A' for Active; 'I' for Inactive)
REMARK    1  A    between atoms: C_1  and  O_2
REMARK    2  A    between atoms: O_2  and  C_3
REMARK    3  A    between atoms: C_3  and  C_5
REMARK    4  A    between atoms: C_6  and  C_7
REMARK    5  A    between atoms: C_7  and  S_8
REMARK    6  A    between atoms: S_8  and  C_11
REMARK    7  A    between atoms: C_13  and  O_14
REMARK    8  A    between atoms: O_14  and  C_15
REMARK    9  A    between atoms: C_18  and  O_19
REMARK   10  A    between atoms: O_19  and  C_20
REMARK   11  A    between atoms: C_25  and  C_26
REMARK   12  A    between atoms: C_29  and  O_30
REMARK   13  A    between atoms: C_31  and  O_32
REMARK   14  A    between atoms: O_32  and  C_33
REMARK                            x       y       z     vdW  Elec       q    Type
REMARK                         _______ _______ _______ _____ _____    ______ ____
ROOT
ATOM      1  C   UNL     1      -0.145  11.798  19.898  0.00  0.00    +0.000 C 
ATOM      2  C   UNL     1      -0.166  10.515  19.463  0.00  0.00    +0.000 C 
ATOM      3  N   UNL     1      -1.292  10.112  18.761  0.00  0.00    +0.000 N 
ATOM      4  C   UNL     1      -2.282  10.942  18.307  0.00  0.00    +0.000 C 
ATOM      5  O   UNL     1      -3.187  10.559  17.581  0.00  0.00    +0.000 OA
ATOM      6  N   UNL     1      -2.201  12.236  18.725  0.00  0.00    +0.000 N 
ATOM      7  C   UNL     1      -1.411  12.618  19.881  0.00  0.00    +0.000 C 
ATOM      8  H   UNL     1      -1.378   9.147  18.437  0.00  0.00    +0.000 HD
ATOM      9  H   UNL     1      -3.005  12.805  18.478  0.00  0.00    +0.000 HD
ENDROOT
BRANCH   7  10
ATOM     10  C   UNL     1      -2.212  12.495  21.179  0.00  0.00    +0.000 A 
ATOM     11  C   UNL     1      -1.657  11.945  22.346  0.00  0.00    +0.000 A 
ATOM     12  C   UNL     1      -2.401  11.836  23.517  0.00  0.00    +0.000 A 
ATOM     13  C   UNL     1      -3.708  12.307  23.550  0.00  0.00    +0.000 A 
ATOM     14  C   UNL     1      -4.294  12.876  22.414  0.00  0.00    +0.000 A 
ATOM     15  C   UNL     1      -3.539  12.968  21.236  0.00  0.00    +0.000 A 
BRANCH  13  16
ATOM     16  O   UNL     1      -4.427  12.219  24.712  0.00  0.00    +0.000 OA
ATOM     17  H   UNL     1      -4.825  13.084  24.893  0.00  0.00    +0.000 HD
ENDBRANCH  13  16
BRANCH  14  18
ATOM     18  O   UNL     1      -5.586  13.304  22.560  0.00  0.00    +0.000 OA
ATOM     19  C   UNL     1      -5.817  14.705  22.537  0.00  0.00    +0.000 C 
ENDBRANCH  14  18
ENDBRANCH   7  10
BRANCH   1  20
ATOM     20  C   UNL     1       1.056  12.558  20.340  0.00  0.00    +0.000 C 
ATOM     21  O   UNL     1       1.620  12.369  21.405  0.00  0.00    +0.000 OA
BRANCH  20  23
ATOM     22  C   UNL     1       2.566  13.487  18.757  0.00  0.00    +0.000 C 
ATOM     23  O   UNL     1       1.328  13.563  19.473  0.00  0.00    +0.000 OA
ENDBRANCH  20  23
ENDBRANCH   1  20
BRANCH   2  24
ATOM     24  C   UNL     1       0.978   9.526  19.544  0.00  0.00    +0.000 C 
BRANCH  24  25
ATOM     25  S   UNL     1       1.664   9.073  17.964  0.00  0.00    +0.000 S 
ATOM     26  O   UNL     1       0.552   8.649  17.125  0.00  0.00    +0.000 OA
ATOM     27  O   UNL     1       2.469  10.185  17.498  0.00  0.00    +0.000 OA
BRANCH  25  28
ATOM     28  C   UNL     1       2.737   7.665  18.221  0.00  0.00    +0.000 A 
ATOM     29  C   UNL     1       3.842   7.622  17.333  0.00  0.00    +0.000 A 
ATOM     30  C   UNL     1       4.843   6.651  17.424  0.00  0.00    +0.000 A 
ATOM     31  C   UNL     1       4.762   5.705  18.429  0.00  0.00    +0.000 A 
ATOM     32  C   UNL     1       3.688   5.742  19.315  0.00  0.00    +0.000 A 
ATOM     33  C   UNL     1       2.659   6.709  19.243  0.00  0.00    +0.000 A 
BRANCH  30  34
ATOM     34  O   UNL     1       5.841   6.741  16.497  0.00  0.00    +0.000 OA
ATOM     35  C   UNL     1       6.953   5.871  16.683  0.00  0.00    +0.000 C 
ENDBRANCH  30  34
BRANCH  33  36
ATOM     36  O   UNL     1       1.793   6.435  20.251  0.00  0.00    +0.000 OA
ATOM     37  C   UNL     1       1.486   5.163  20.761  0.00  0.00    +0.000 C 
ENDBRANCH  33  36
ENDBRANCH  25  28
ENDBRANCH  24  25
ENDBRANCH   2  24
TORSDOF 10
ENDMDL
MODEL 5
REMARK VINA RESULT:      -6.8      3.381      9.263
REMARK  Name = 
REMARK  14 active torsions:
REMARK  status: ('A' for Active; 'I' for Inactive)
REMARK    1  A    between atoms: C_1  and  O_2
REMARK    2  A    between atoms: O_2  and  C_3
REMARK    3  A    between atoms: C_3  and  C_5
REMARK    4  A    between atoms: C_6  and  C_7
REMARK    5  A    between atoms: C_7  and  S_8
REMARK    6  A    between atoms: S_8  and  C_11
REMARK    7  A    between atoms: C_13  and  O_14
REMARK    8  A    between atoms: O_14  and  C_15
REMARK    9  A    between atoms: C_18  and  O_19
REMARK   10  A    between atoms: O_19  and  C_20
REMARK   11  A    between atoms: C_25  and  C_26
REMARK   12  A    between atoms: C_29  and  O_30
REMARK   13  A    between atoms: C_31  and  O_32
REMARK   14  A    between atoms: O_32  and  C_33
REMARK                            x       y       z     vdW  Elec       q    Type
REMARK                         _______ _______ _______ _____ _____    ______ ____
ROOT
ATOM      1  C   UNL     1      -0.686  11.131  18.776  0.00  0.00    +0.000 C 
ATOM      2  C   UNL     1      -0.797  11.907  19.880  0.00  0.00    +0.000 C 
ATOM      3  N   UNL     1       0.352  12.558  20.305  0.00  0.00    +0.000 N 
ATOM      4  C   UNL     1       1.524  12.635  19.601  0.00  0.00    +0.000 C 
ATOM      5  O   UNL     1       2.465  13.329  19.956  0.00  0.00    +0.000 OA
ATOM      6  N   UNL     1       1.582  11.879  18.470  0.00  0.00    +0.000 N 
ATOM      7  C   UNL     1       0.679  10.763  18.250  0.00  0.00    +0.000 C 
ATOM      8  H   UNL     1       0.336  13.131  21.150  0.00  0.00    +0.000 HD
ATOM      9  H   UNL     1       2.495  11.856  18.029  0.00  0.00    +0.000 HD
ENDROOT
BRANCH   7  10
ATOM     10  C   UNL     1       1.220   9.469  18.862  0.00  0.00    +0.000 A 
ATOM     11  C   UNL     1       0.977   9.122  20.201  0.00  0.00    +0.000 A 
ATOM     12  C   UNL     1       1.480   7.943  20.743  0.00  0.00    +0.000 A 
ATOM     13  C   UNL     1       2.212   7.074  19.944  0.00  0.00    +0.000 A 
ATOM     14  C   UNL     1       2.463   7.374  18.601  0.00  0.00    +0.000 A 
ATOM     15  C   UNL     1       1.963   8.571  18.069  0.00  0.00    +0.000 A 
BRANCH  13  16
ATOM     16  O   UNL     1       2.684   5.904  20.477  0.00  0.00    +0.000 OA
ATOM     17  H   UNL     1       2.852   5.282  19.753  0.00  0.00    +0.000 HD
ENDBRANCH  13  16
BRANCH  14  18
ATOM     18  O   UNL     1       3.195   6.447  17.909  0.00  0.00    +0.000 OA
ATOM     19  C   UNL     1       4.371   6.899  17.253  0.00  0.00    +0.000 C 
ENDBRANCH  14  18
ENDBRANCH   7  10
BRANCH   1  20
ATOM     20  C   UNL     1      -1.807  10.635  17.932  0.00  0.00    +0.000 C 
ATOM     21  O   UNL     1      -2.367   9.566  18.113  0.00  0.00    +0.000 OA
BRANCH  20  23
ATOM     22  C   UNL     1      -2.805  10.953  15.799  0.00  0.00    +0.000 C 
ATOM     23  O   UNL     1      -2.004  11.457  16.874  0.00  0.00    +0.000 OA
ENDBRANCH  20  23
ENDBRANCH   1  20
BRANCH   2  24
ATOM     24  C   UNL     1      -2.082  12.248  20.608  0.00  0.00    +0.000 C 
BRANCH  24  25
ATOM     25  S   UNL     1      -1.900  13.494  21.867  0.00  0.00    +0.000 S 
ATOM     26  O   UNL     1      -1.097  12.907  22.931  0.00  0.00    +0.000 OA
ATOM     27  O   UNL     1      -1.392  14.693  21.229  0.00  0.00    +0.000 OA
BRANCH  25  28
ATOM     28  C   UNL     1      -3.526  13.845  22.523  0.00  0.00    +0.000 A 
ATOM     29  C   UNL     1      -4.516  12.912  22.119  0.00  0.00    +0.000 A 
ATOM     30  C   UNL     1      -5.830  12.959  22.591  0.00  0.00    +0.000 A 
ATOM     31  C   UNL     1      -6.176  13.944  23.498  0.00  0.00    +0.000 A 
ATOM     32  C   UNL     1      -5.212  14.859  23.911  0.00  0.00    +0.000 A 
ATOM     33  C   UNL     1      -3.876  14.839  23.447  0.00  0.00    +0.000 A 
BRANCH  30  34
ATOM     34  O   UNL     1      -6.667  11.993  22.111  0.00  0.00    +0.000 OA
ATOM     35  C   UNL     1      -7.917  11.853  22.779  0.00  0.00    +0.000 C 
ENDBRANCH  30  34
BRANCH  33  36
ATOM     36  O   UNL     1      -3.234  15.868  24.054  0.00  0.00    +0.000 OA
ATOM     37  C   UNL     1      -3.791  16.762  24.984  0.00  0.00    +0.000 C 
ENDBRANCH  33  36
ENDBRANCH  25  28
ENDBRANCH  24  25
ENDBRANCH   2  24
TORSDOF 10
ENDMDL
MODEL 6
REMARK VINA RESULT:      -6.8      1.185      2.830
REMARK  Name = 
REMARK  14 active torsions:
REMARK  status: ('A' for Active; 'I' for Inactive)
REMARK    1  A    between atoms: C_1  and  O_2
REMARK    2  A    between atoms: O_2  and  C_3
REMARK    3  A    between atoms: C_3  and  C_5
REMARK    4  A    between atoms: C_6  and  C_7
REMARK    5  A    between atoms: C_7  and  S_8
REMARK    6  A    between atoms: S_8  and  C_11
REMARK    7  A    between atoms: C_13  and  O_14
REMARK    8  A    between atoms: O_14  and  C_15
REMARK    9  A    between atoms: C_18  and  O_19
REMARK   10  A    between atoms: O_19  and  C_20
REMARK   11  A    between atoms: C_25  and  C_26
REMARK   12  A    between atoms: C_29  and  O_30
REMARK   13  A    between atoms: C_31  and  O_32
REMARK   14  A    between atoms: O_32  and  C_33
REMARK                            x       y       z     vdW  Elec       q    Type
REMARK                         _______ _______ _______ _____ _____    ______ ____
ROOT
ATOM      1  C   UNL     1       0.406  10.021  20.506  0.00  0.00    +0.000 C 
ATOM      2  C   UNL     1       1.261   9.389  19.668  0.00  0.00    +0.000 C 
ATOM      3  N   UNL     1       1.812  10.149  18.648  0.00  0.00    +0.000 N 
ATOM      4  C   UNL     1       1.717  11.511  18.534  0.00  0.00    +0.000 C 
ATOM      5  O   UNL     1       2.328  12.149  17.690  0.00  0.00    +0.000 OA
ATOM      6  N   UNL     1       0.885  12.118  19.425  0.00  0.00    +0.000 N 
ATOM      7  C   UNL     1      -0.140  11.379  20.140  0.00  0.00    +0.000 C 
ATOM      8  H   UNL     1       2.438   9.718  17.965  0.00  0.00    +0.000 HD
ATOM      9  H   UNL     1       0.736  13.106  19.250  0.00  0.00    +0.000 HD
ENDROOT
BRANCH   7  10
ATOM     10  C   UNL     1      -1.440  11.298  19.339  0.00  0.00    +0.000 A 
ATOM     11  C   UNL     1      -2.564  12.077  19.663  0.00  0.00    +0.000 A 
ATOM     12  C   UNL     1      -3.740  11.987  18.925  0.00  0.00    +0.000 A 
ATOM     13  C   UNL     1      -3.804  11.137  17.829  0.00  0.00    +0.000 A 
ATOM     14  C   UNL     1      -2.704  10.355  17.462  0.00  0.00    +0.000 A 
ATOM     15  C   UNL     1      -1.528  10.444  18.221  0.00  0.00    +0.000 A 
BRANCH  13  16
ATOM     16  O   UNL     1      -4.957  11.071  17.093  0.00  0.00    +0.000 OA
ATOM     17  H   UNL     1      -4.727  10.836  16.181  0.00  0.00    +0.000 HD
ENDBRANCH  13  16
BRANCH  14  18
ATOM     18  O   UNL     1      -2.879   9.553  16.367  0.00  0.00    +0.000 OA
ATOM     19  C   UNL     1      -2.720  10.148  15.088  0.00  0.00    +0.000 C 
ENDBRANCH  14  18
ENDBRANCH   7  10
BRANCH   1  20
ATOM     20  C   UNL     1      -0.023   9.546  21.850  0.00  0.00    +0.000 C 
ATOM     21  O   UNL     1      -0.471   8.432  22.061  0.00  0.00    +0.000 OA
BRANCH  20  23
ATOM     22  C   UNL     1      -1.234  11.045  23.242  0.00  0.00    +0.000 C 
ATOM     23  O   UNL     1       0.020  10.560  22.748  0.00  0.00    +0.000 OA
ENDBRANCH  20  23
ENDBRANCH   1  20
BRANCH   2  24
ATOM     24  C   UNL     1       1.784   7.975  19.825  0.00  0.00    +0.000 C 
BRANCH  24  25
ATOM     25  S   UNL     1       2.522   7.303  18.350  0.00  0.00    +0.000 S 
ATOM     26  O   UNL     1       1.449   7.122  17.383  0.00  0.00    +0.000 OA
ATOM     27  O   UNL     1       3.622   8.169  17.974  0.00  0.00    +0.000 OA
BRANCH  25  28
ATOM     28  C   UNL     1       3.182   5.693  18.759  0.00  0.00    +0.000 A 
ATOM     29  C   UNL     1       4.580   5.579  18.546  0.00  0.00    +0.000 A 
ATOM     30  C   UNL     1       5.302   4.432  18.884  0.00  0.00    +0.000 A 
ATOM     31  C   UNL     1       4.631   3.371  19.464  0.00  0.00    +0.000 A 
ATOM     32  C   UNL     1       3.261   3.472  19.688  0.00  0.00    +0.000 A 
ATOM     33  C   UNL     1       2.505   4.618  19.352  0.00  0.00    +0.000 A 
BRANCH  30  34
ATOM     34  O   UNL     1       6.641   4.474  18.619  0.00  0.00    +0.000 OA
ATOM     35  C   UNL     1       7.008   4.774  17.276  0.00  0.00    +0.000 C 
ENDBRANCH  30  34
BRANCH  33  36
ATOM     36  O   UNL     1       1.221   4.359  19.707  0.00  0.00    +0.000 OA
ATOM     37  C   UNL     1       0.713   3.124  20.143  0.00  0.00    +0.000 C 
ENDBRANCH  33  36
ENDBRANCH  25  28
ENDBRANCH  24  25
ENDBRANCH   2  24
TORSDOF 10
ENDMDL
MODEL 7
REMARK VINA RESULT:      -6.7      3.317      9.011
REMARK  Name = 
REMARK  14 active torsions:
REMARK  status: ('A' for Active; 'I' for Inactive)
REMARK    1  A    between atoms: C_1  and  O_2
REMARK    2  A    between atoms: O_2  and  C_3
REMARK    3  A    between atoms: C_3  and  C_5
REMARK    4  A    between atoms: C_6  and  C_7
REMARK    5  A    between atoms: C_7  and  S_8
REMARK    6  A    between atoms: S_8  and  C_11
REMARK    7  A    between atoms: C_13  and  O_14
REMARK    8  A    between atoms: O_14  and  C_15
REMARK    9  A    between atoms: C_18  and  O_19
REMARK   10  A    between atoms: O_19  and  C_20
REMARK   11  A    between atoms: C_25  and  C_26
REMARK   12  A    between atoms: C_29  and  O_30
REMARK   13  A    between atoms: C_31  and  O_32
REMARK   14  A    between atoms: O_32  and  C_33
REMARK                            x       y       z     vdW  Elec       q    Type
REMARK                         _______ _______ _______ _____ _____    ______ ____
ROOT
ATOM      1  C   UNL     1      -0.504  11.168  18.763  0.00  0.00    +0.000 C 
ATOM      2  C   UNL     1      -0.363  12.052  19.779  0.00  0.00    +0.000 C 
ATOM      3  N   UNL     1       0.879  12.652  19.918  0.00  0.00    +0.000 N 
ATOM      4  C   UNL     1       1.902  12.575  19.011  0.00  0.00    +0.000 C 
ATOM      5  O   UNL     1       2.930  13.227  19.116  0.00  0.00    +0.000 OA
ATOM      6  N   UNL     1       1.706  11.713  17.976  0.00  0.00    +0.000 N 
ATOM      7  C   UNL     1       0.717  10.651  18.042  0.00  0.00    +0.000 C 
ATOM      8  H   UNL     1       1.054  13.302  20.687  0.00  0.00    +0.000 HD
ATOM      9  H   UNL     1       2.518  11.581  17.383  0.00  0.00    +0.000 HD
ENDROOT
BRANCH   7  10
ATOM     10  C   UNL     1       1.289   9.385  18.681  0.00  0.00    +0.000 A 
ATOM     11  C   UNL     1       1.046   9.055  20.025  0.00  0.00    +0.000 A 
ATOM     12  C   UNL     1       1.578   7.901  20.592  0.00  0.00    +0.000 A 
ATOM     13  C   UNL     1       2.339   7.038  19.814  0.00  0.00    +0.000 A 
ATOM     14  C   UNL     1       2.592   7.320  18.467  0.00  0.00    +0.000 A 
ATOM     15  C   UNL     1       2.062   8.493  17.910  0.00  0.00    +0.000 A 
BRANCH  13  16
ATOM     16  O   UNL     1       2.840   5.892  20.371  0.00  0.00    +0.000 OA
ATOM     17  H   UNL     1       3.744   6.066  20.674  0.00  0.00    +0.000 HD
ENDBRANCH  13  16
BRANCH  14  18
ATOM     18  O   UNL     1       3.354   6.402  17.797  0.00  0.00    +0.000 OA
ATOM     19  C   UNL     1       4.540   6.868  17.171  0.00  0.00    +0.000 C 
ENDBRANCH  14  18
ENDBRANCH   7  10
BRANCH   1  20
ATOM     20  C   UNL     1      -1.788  10.679  18.192  0.00  0.00    +0.000 C 
ATOM     21  O   UNL     1      -2.196   9.538  18.326  0.00  0.00    +0.000 OA
BRANCH  20  23
ATOM     22  C   UNL     1      -3.765  11.570  17.219  0.00  0.00    +0.000 C 
ATOM     23  O   UNL     1      -2.345  11.625  17.398  0.00  0.00    +0.000 OA
ENDBRANCH  20  23
ENDBRANCH   1  20
BRANCH   2  24
ATOM     24  C   UNL     1      -1.469  12.555  20.685  0.00  0.00    +0.000 C 
BRANCH  24  25
ATOM     25  S   UNL     1      -1.043  12.577  22.414  0.00  0.00    +0.000 S 
ATOM     26  O   UNL     1      -1.017  11.192  22.863  0.00  0.00    +0.000 OA
ATOM     27  O   UNL     1       0.176  13.349  22.557  0.00  0.00    +0.000 OA
BRANCH  25  28
ATOM     28  C   UNL     1      -2.355  13.423  23.286  0.00  0.00    +0.000 A 
ATOM     29  C   UNL     1      -1.898  14.477  24.118  0.00  0.00    +0.000 A 
ATOM     30  C   UNL     1      -2.771  15.315  24.817  0.00  0.00    +0.000 A 
ATOM     31  C   UNL     1      -4.133  15.120  24.681  0.00  0.00    +0.000 A 
ATOM     32  C   UNL     1      -4.595  14.095  23.859  0.00  0.00    +0.000 A 
ATOM     33  C   UNL     1      -3.736  13.230  23.144  0.00  0.00    +0.000 A 
BRANCH  30  34
ATOM     34  O   UNL     1      -2.181  16.284  25.577  0.00  0.00    +0.000 OA
ATOM     35  C   UNL     1      -0.916  15.958  26.144  0.00  0.00    +0.000 C 
ENDBRANCH  30  34
BRANCH  33  36
ATOM     36  O   UNL     1      -4.529  12.365  22.462  0.00  0.00    +0.000 OA
ATOM     37  C   UNL     1      -5.327  12.673  21.347  0.00  0.00    +0.000 C 
ENDBRANCH  33  36
ENDBRANCH  25  28
ENDBRANCH  24  25
ENDBRANCH   2  24
TORSDOF 10
ENDMDL
MODEL 8
REMARK VINA RESULT:      -6.7      0.909      1.663
REMARK  Name = 
REMARK  14 active torsions:
REMARK  status: ('A' for Active; 'I' for Inactive)
REMARK    1  A    between atoms: C_1  and  O_2
REMARK    2  A    between atoms: O_2  and  C_3
REMARK    3  A    between atoms: C_3  and  C_5
REMARK    4  A    between atoms: C_6  and  C_7
REMARK    5  A    between atoms: C_7  and  S_8
REMARK    6  A    between atoms: S_8  and  C_11
REMARK    7  A    between atoms: C_13  and  O_14
REMARK    8  A    between atoms: O_14  and  C_15
REMARK    9  A    between atoms: C_18  and  O_19
REMARK   10  A    between atoms: O_19  and  C_20
REMARK   11  A    between atoms: C_25  and  C_26
REMARK   12  A    between atoms: C_29  and  O_30
REMARK   13  A    between atoms: C_31  and  O_32
REMARK   14  A    between atoms: O_32  and  C_33
REMARK                            x       y       z     vdW  Elec       q    Type
REMARK                         _______ _______ _______ _____ _____    ______ ____
ROOT
ATOM      1  C   UNL     1       0.272   9.992  20.456  0.00  0.00    +0.000 C 
ATOM      2  C   UNL     1       1.174   9.394  19.642  0.00  0.00    +0.000 C 
ATOM      3  N   UNL     1       1.761  10.189  18.669  0.00  0.00    +0.000 N 
ATOM      4  C   UNL     1       1.653  11.551  18.588  0.00  0.00    +0.000 C 
ATOM      5  O   UNL     1       2.294  12.220  17.791  0.00  0.00    +0.000 OA
ATOM      6  N   UNL     1       0.773  12.123  19.455  0.00  0.00    +0.000 N 
ATOM      7  C   UNL     1      -0.275  11.353  20.101  0.00  0.00    +0.000 C 
ATOM      8  H   UNL     1       2.424   9.784  18.006  0.00  0.00    +0.000 HD
ATOM      9  H   UNL     1       0.619  13.115  19.300  0.00  0.00    +0.000 HD
ENDROOT
BRANCH   7  10
ATOM     10  C   UNL     1      -1.535  11.277  19.238  0.00  0.00    +0.000 A 
ATOM     11  C   UNL     1      -2.677  12.045  19.520  0.00  0.00    +0.000 A 
ATOM     12  C   UNL     1      -3.817  11.961  18.727  0.00  0.00    +0.000 A 
ATOM     13  C   UNL     1      -3.824  11.127  17.615  0.00  0.00    +0.000 A 
ATOM     14  C   UNL     1      -2.702  10.357  17.289  0.00  0.00    +0.000 A 
ATOM     15  C   UNL     1      -1.564  10.440  18.104  0.00  0.00    +0.000 A 
BRANCH  13  16
ATOM     16  O   UNL     1      -4.940  11.067  16.824  0.00  0.00    +0.000 OA
ATOM     17  H   UNL     1      -4.876  10.281  16.260  0.00  0.00    +0.000 HD
ENDBRANCH  13  16
BRANCH  14  18
ATOM     18  O   UNL     1      -2.821   9.571  16.175  0.00  0.00    +0.000 OA
ATOM     19  C   UNL     1      -2.805  10.220  14.912  0.00  0.00    +0.000 C 
ENDBRANCH  14  18
ENDBRANCH   7  10
BRANCH   1  20
ATOM     20  C   UNL     1      -0.212   9.475  21.765  0.00  0.00    +0.000 C 
ATOM     21  O   UNL     1      -0.748   8.388  21.906  0.00  0.00    +0.000 OA
BRANCH  20  23
ATOM     22  C   UNL     1      -1.326  10.958  23.251  0.00  0.00    +0.000 C 
ATOM     23  O   UNL     1      -0.106  10.429  22.721  0.00  0.00    +0.000 OA
ENDBRANCH  20  23
ENDBRANCH   1  20
BRANCH   2  24
ATOM     24  C   UNL     1       1.709   7.983  19.785  0.00  0.00    +0.000 C 
BRANCH  24  25
ATOM     25  S   UNL     1       2.461   7.335  18.307  0.00  0.00    +0.000 S 
ATOM     26  O   UNL     1       1.403   7.203  17.315  0.00  0.00    +0.000 OA
ATOM     27  O   UNL     1       3.587   8.186  17.976  0.00  0.00    +0.000 OA
BRANCH  25  28
ATOM     28  C   UNL     1       3.078   5.700  18.685  0.00  0.00    +0.000 A 
ATOM     29  C   UNL     1       2.646   5.204  19.942  0.00  0.00    +0.000 A 
ATOM     30  C   UNL     1       2.947   3.914  20.385  0.00  0.00    +0.000 A 
ATOM     31  C   UNL     1       3.681   3.082  19.561  0.00  0.00    +0.000 A 
ATOM     32  C   UNL     1       4.104   3.551  18.320  0.00  0.00    +0.000 A 
ATOM     33  C   UNL     1       3.819   4.853  17.848  0.00  0.00    +0.000 A 
BRANCH  30  34
ATOM     34  O   UNL     1       2.460   3.582  21.617  0.00  0.00    +0.000 OA
ATOM     35  C   UNL     1       1.397   2.634  21.640  0.00  0.00    +0.000 C 
ENDBRANCH  30  34
BRANCH  33  36
ATOM     36  O   UNL     1       4.385   4.957  16.619  0.00  0.00    +0.000 OA
ATOM     37  C   UNL     1       5.646   5.501  16.330  0.00  0.00    +0.000 C 
ENDBRANCH  33  36
ENDBRANCH  25  28
ENDBRANCH  24  25
ENDBRANCH   2  24
TORSDOF 10
ENDMDL
MODEL 9
REMARK VINA RESULT:      -6.7      2.288      4.046
REMARK  Name = 
REMARK  14 active torsions:
REMARK  status: ('A' for Active; 'I' for Inactive)
REMARK    1  A    between atoms: C_1  and  O_2
REMARK    2  A    between atoms: O_2  and  C_3
REMARK    3  A    between atoms: C_3  and  C_5
REMARK    4  A    between atoms: C_6  and  C_7
REMARK    5  A    between atoms: C_7  and  S_8
REMARK    6  A    between atoms: S_8  and  C_11
REMARK    7  A    between atoms: C_13  and  O_14
REMARK    8  A    between atoms: O_14  and  C_15
REMARK    9  A    between atoms: C_18  and  O_19
REMARK   10  A    between atoms: O_19  and  C_20
REMARK   11  A    between atoms: C_25  and  C_26
REMARK   12  A    between atoms: C_29  and  O_30
REMARK   13  A    between atoms: C_31  and  O_32
REMARK   14  A    between atoms: O_32  and  C_33
REMARK                            x       y       z     vdW  Elec       q    Type
REMARK                         _______ _______ _______ _____ _____    ______ ____
ROOT
ATOM      1  C   UNL     1      -0.032  11.912  19.723  0.00  0.00    +0.000 C 
ATOM      2  C   UNL     1       0.011  10.628  19.297  0.00  0.00    +0.000 C 
ATOM      3  N   UNL     1      -1.095  10.163  18.601  0.00  0.00    +0.000 N 
ATOM      4  C   UNL     1      -2.128  10.938  18.146  0.00  0.00    +0.000 C 
ATOM      5  O   UNL     1      -3.014  10.504  17.425  0.00  0.00    +0.000 OA
ATOM      6  N   UNL     1      -2.112  12.237  18.555  0.00  0.00    +0.000 N 
ATOM      7  C   UNL     1      -1.339  12.667  19.706  0.00  0.00    +0.000 C 
ATOM      8  H   UNL     1      -1.133   9.192  18.284  0.00  0.00    +0.000 HD
ATOM      9  H   UNL     1      -2.944  12.763  18.307  0.00  0.00    +0.000 HD
ENDROOT
BRANCH   7  10
ATOM     10  C   UNL     1      -2.128  12.511  21.007  0.00  0.00    +0.000 A 
ATOM     11  C   UNL     1      -1.561  11.938  22.157  0.00  0.00    +0.000 A 
ATOM     12  C   UNL     1      -2.295  11.801  23.331  0.00  0.00    +0.000 A 
ATOM     13  C   UNL     1      -3.604  12.263  23.385  0.00  0.00    +0.000 A 
ATOM     14  C   UNL     1      -4.202  12.855  22.267  0.00  0.00    +0.000 A 
ATOM     15  C   UNL     1      -3.457  12.976  21.085  0.00  0.00    +0.000 A 
BRANCH  13  16
ATOM     16  O   UNL     1      -4.313  12.147  24.551  0.00  0.00    +0.000 OA
ATOM     17  H   UNL     1      -3.694  11.945  25.269  0.00  0.00    +0.000 HD
ENDBRANCH  13  16
BRANCH  14  18
ATOM     18  O   UNL     1      -5.495  13.273  22.433  0.00  0.00    +0.000 OA
ATOM     19  C   UNL     1      -6.051  14.094  21.417  0.00  0.00    +0.000 C 
ENDBRANCH  14  18
ENDBRANCH   7  10
BRANCH   1  20
ATOM     20  C   UNL     1       1.129  12.736  20.156  0.00  0.00    +0.000 C 
ATOM     21  O   UNL     1       1.681  12.609  21.237  0.00  0.00    +0.000 OA
BRANCH  20  23
ATOM     22  C   UNL     1       2.729  14.177  19.150  0.00  0.00    +0.000 C 
ATOM     23  O   UNL     1       1.377  13.719  19.257  0.00  0.00    +0.000 OA
ENDBRANCH  20  23
ENDBRANCH   1  20
BRANCH   2  24
ATOM     24  C   UNL     1       1.205   9.698  19.380  0.00  0.00    +0.000 C 
BRANCH  24  25
ATOM     25  S   UNL     1       1.120   8.518  20.711  0.00  0.00    +0.000 S 
ATOM     26  O   UNL     1       1.978   9.018  21.777  0.00  0.00    +0.000 OA
ATOM     27  O   UNL     1      -0.280   8.306  21.024  0.00  0.00    +0.000 OA
BRANCH  25  28
ATOM     28  C   UNL     1       1.809   6.979  20.117  0.00  0.00    +0.000 A 
ATOM     29  C   UNL     1       1.356   5.840  20.831  0.00  0.00    +0.000 A 
ATOM     30  C   UNL     1       1.708   4.537  20.470  0.00  0.00    +0.000 A 
ATOM     31  C   UNL     1       2.516   4.349  19.363  0.00  0.00    +0.000 A 
ATOM     32  C   UNL     1       2.959   5.457  18.647  0.00  0.00    +0.000 A 
ATOM     33  C   UNL     1       2.623   6.786  18.993  0.00  0.00    +0.000 A 
BRANCH  30  34
ATOM     34  O   UNL     1       1.194   3.545  21.254  0.00  0.00    +0.000 OA
ATOM     35  C   UNL     1       2.117   2.565  21.718  0.00  0.00    +0.000 C 
ENDBRANCH  30  34
BRANCH  33  36
ATOM     36  O   UNL     1       3.229   7.593  18.084  0.00  0.00    +0.000 OA
ATOM     37  C   UNL     1       4.262   7.226  17.207  0.00  0.00    +0.000 C 
ENDBRANCH  33  36
ENDBRANCH  25  28
ENDBRANCH  24  25
ENDBRANCH   2  24
TORSDOF 10
ENDMDL
