MODEL 1
REMARK VINA RESULT:      -8.8      0.000      0.000
REMARK  Name = 
REMARK  7 active torsions:
REMARK  status: ('A' for Active; 'I' for Inactive)
REMARK    1  A    between atoms: C_1  and  C_2
REMARK    2  A    between atoms: C_5  and  C_6
REMARK    3  A    between atoms: C_10  and  N_11
REMARK    4  A    between atoms: C_12  and  C_14
REMARK    5  A    between atoms: N_19  and  C_20
REMARK    6  A    between atoms: C_20  and  C_21
REMARK    7  A    between atoms: C_25  and  C_26
REMARK                            x       y       z     vdW  Elec       q    Type
REMARK                         _______ _______ _______ _____ _____    ______ ____
ROOT
ATOM      1  N   UNL     1       2.382   6.424  19.633  0.00  0.00    +0.000 N 
ATOM      2  C   UNL     1       2.151   5.341  18.808  0.00  0.00    +0.000 C 
ATOM      3  O   UNL     1       1.648   5.393  17.683  0.00  0.00    +0.000 OA
ATOM      4  H   UNL     1       2.984   6.237  20.431  0.00  0.00    +0.000 HD
ENDROOT
BRANCH   1   9
ATOM      5  C   UNL     1       0.940   9.836  20.063  0.00  0.00    +0.000 A 
ATOM      6  C   UNL     1       1.270  10.428  18.834  0.00  0.00    +0.000 A 
ATOM      7  C   UNL     1       1.955   9.696  17.867  0.00  0.00    +0.000 A 
ATOM      8  C   UNL     1       2.321   8.374  18.120  0.00  0.00    +0.000 A 
ATOM      9  C   UNL     1       2.029   7.762  19.340  0.00  0.00    +0.000 A 
ATOM     10  C   UNL     1       1.334   8.502  20.304  0.00  0.00    +0.000 A 
BRANCH   5  15
ATOM     11  C   UNL     1      -2.457  12.625  22.950  0.00  0.00    +0.000 C 
ATOM     12  C   UNL     1      -1.354  11.782  22.426  0.00  0.00    +0.000 A 
ATOM     13  N   UNL     1      -0.552  11.050  23.167  0.00  0.00    +0.000 NA
ATOM     14  N   UNL     1       0.344  10.331  22.404  0.00  0.00    +0.000 NA
ATOM     15  C   UNL     1       0.203  10.549  21.110  0.00  0.00    +0.000 A 
ATOM     16  S   UNL     1      -1.043  11.681  20.741  0.00  0.00    +0.000 S 
ENDBRANCH   5  15
ENDBRANCH   1   9
BRANCH   2  17
ATOM     17  C   UNL     1       2.525   3.965  19.380  0.00  0.00    +0.000 C 
ATOM     18  C   UNL     1       1.736   3.773  20.683  0.00  0.00    +0.000 C 
ATOM     19  C   UNL     1       1.922   2.358  21.206  0.00  0.00    +0.000 C 
ATOM     20  C   UNL     1       3.403   2.089  21.406  0.00  0.00    +0.000 C 
ATOM     21  C   UNL     1       4.224   2.419  20.157  0.00  0.00    +0.000 C 
ATOM     22  N   UNL     1       3.998   3.779  19.587  0.00  0.00    +0.000 NA
BRANCH  22  23
ATOM     23  C   UNL     1       4.693   3.846  18.260  0.00  0.00    +0.000 C 
BRANCH  23  24
ATOM     24  C   UNL     1       5.756   4.912  18.221  0.00  0.00    +0.000 A 
ATOM     25  N   UNL     1       6.821   4.846  19.105  0.00  0.00    +0.000 NA
ATOM     26  C   UNL     1       7.571   5.889  18.842  0.00  0.00    +0.000 A 
ATOM     27  N   UNL     1       7.065   6.614  17.805  0.00  0.00    +0.000 N 
ATOM     28  C   UNL     1       5.896   6.019  17.400  0.00  0.00    +0.000 A 
ATOM     29  C   UNL     1       5.078   6.561  16.292  0.00  0.00    +0.000 C 
ATOM     30  H   UNL     1       7.482   7.445  17.410  0.00  0.00    +0.000 HD
ENDBRANCH  23  24
ENDBRANCH  22  23
ENDBRANCH   2  17
TORSDOF 5
ENDMDL
MODEL 2
REMARK VINA RESULT:      -8.7      0.973      1.059
REMARK  Name = 
REMARK  7 active torsions:
REMARK  status: ('A' for Active; 'I' for Inactive)
REMARK    1  A    between atoms: C_1  and  C_2
REMARK    2  A    between atoms: C_5  and  C_6
REMARK    3  A    between atoms: C_10  and  N_11
REMARK    4  A    between atoms: C_12  and  C_14
REMARK    5  A    between atoms: N_19  and  C_20
REMARK    6  A    between atoms: C_20  and  C_21
REMARK    7  A    between atoms: C_25  and  C_26
REMARK                            x       y       z     vdW  Elec       q    Type
REMARK                         _______ _______ _______ _____ _____    ______ ____
ROOT
ATOM      1  N   UNL     1       2.669   6.450  19.369  0.00  0.00    +0.000 N 
ATOM      2  C   UNL     1       2.189   5.335  18.709  0.00  0.00    +0.000 C 
ATOM      3  O   UNL     1       1.329   5.343  17.825  0.00  0.00    +0.000 OA
ATOM      4  H   UNL     1       3.512   6.296  19.917  0.00  0.00    +0.000 HD
ENDROOT
BRANCH   1   9
ATOM      5  C   UNL     1       1.023   9.722  20.067  0.00  0.00    +0.000 A 
ATOM      6  C   UNL     1       1.249  10.403  18.861  0.00  0.00    +0.000 A 
ATOM      7  C   UNL     1       1.932   9.776  17.821  0.00  0.00    +0.000 A 
ATOM      8  C   UNL     1       2.399   8.471  17.978  0.00  0.00    +0.000 A 
ATOM      9  C   UNL     1       2.212   7.773  19.173  0.00  0.00    +0.000 A 
ATOM     10  C   UNL     1       1.519   8.408  20.210  0.00  0.00    +0.000 A 
BRANCH   5  15
ATOM     11  C   UNL     1      -2.380  12.143  23.262  0.00  0.00    +0.000 C 
ATOM     12  C   UNL     1      -1.264  11.387  22.641  0.00  0.00    +0.000 A 
ATOM     13  N   UNL     1      -0.413  10.631  23.299  0.00  0.00    +0.000 NA
ATOM     14  N   UNL     1       0.484  10.009  22.456  0.00  0.00    +0.000 NA
ATOM     15  C   UNL     1       0.294  10.322  21.188  0.00  0.00    +0.000 A 
ATOM     16  S   UNL     1      -1.003  11.430  20.945  0.00  0.00    +0.000 S 
ENDBRANCH   5  15
ENDBRANCH   1   9
BRANCH   2  17
ATOM     17  C   UNL     1       2.763   3.984  19.161  0.00  0.00    +0.000 C 
ATOM     18  C   UNL     1       2.416   3.805  20.646  0.00  0.00    +0.000 C 
ATOM     19  C   UNL     1       2.797   2.408  21.110  0.00  0.00    +0.000 C 
ATOM     20  C   UNL     1       4.276   2.181  20.852  0.00  0.00    +0.000 C 
ATOM     21  C   UNL     1       4.665   2.501  19.406  0.00  0.00    +0.000 C 
ATOM     22  N   UNL     1       4.234   3.840  18.910  0.00  0.00    +0.000 NA
BRANCH  22  23
ATOM     23  C   UNL     1       4.488   3.891  17.433  0.00  0.00    +0.000 C 
BRANCH  23  24
ATOM     24  C   UNL     1       5.538   4.906  17.066  0.00  0.00    +0.000 A 
ATOM     25  N   UNL     1       5.784   5.971  17.916  0.00  0.00    +0.000 NA
ATOM     26  C   UNL     1       6.730   6.676  17.344  0.00  0.00    +0.000 A 
ATOM     27  N   UNL     1       7.140   6.101  16.178  0.00  0.00    +0.000 N 
ATOM     28  C   UNL     1       6.381   4.976  15.969  0.00  0.00    +0.000 A 
ATOM     29  C   UNL     1       6.559   4.116  14.778  0.00  0.00    +0.000 C 
ATOM     30  H   UNL     1       7.872   6.451  15.576  0.00  0.00    +0.000 HD
ENDBRANCH  23  24
ENDBRANCH  22  23
ENDBRANCH   2  17
TORSDOF 5
ENDMDL
MODEL 3
REMARK VINA RESULT:      -8.5      1.109      1.352
REMARK  Name = 
REMARK  7 active torsions:
REMARK  status: ('A' for Active; 'I' for Inactive)
REMARK    1  A    between atoms: C_1  and  C_2
REMARK    2  A    between atoms: C_5  and  C_6
REMARK    3  A    between atoms: C_10  and  N_11
REMARK    4  A    between atoms: C_12  and  C_14
REMARK    5  A    between atoms: N_19  and  C_20
REMARK    6  A    between atoms: C_20  and  C_21
REMARK    7  A    between atoms: C_25  and  C_26
REMARK                            x       y       z     vdW  Elec       q    Type
REMARK                         _______ _______ _______ _____ _____    ______ ____
ROOT
ATOM      1  N   UNL     1       2.588   6.324  19.438  0.00  0.00    +0.000 N 
ATOM      2  C   UNL     1       2.147   5.212  18.749  0.00  0.00    +0.000 C 
ATOM      3  O   UNL     1       1.350   5.223  17.808  0.00  0.00    +0.000 OA
ATOM      4  H   UNL     1       3.391   6.165  20.042  0.00  0.00    +0.000 HD
ENDROOT
BRANCH   1   9
ATOM      5  C   UNL     1       1.013   9.646  20.058  0.00  0.00    +0.000 A 
ATOM      6  C   UNL     1       1.242  10.289  18.832  0.00  0.00    +0.000 A 
ATOM      7  C   UNL     1       1.903   9.620  17.804  0.00  0.00    +0.000 A 
ATOM      8  C   UNL     1       2.346   8.311  17.993  0.00  0.00    +0.000 A 
ATOM      9  C   UNL     1       2.156   7.650  19.209  0.00  0.00    +0.000 A 
ATOM     10  C   UNL     1       1.484   8.327  20.234  0.00  0.00    +0.000 A 
BRANCH   5  15
ATOM     11  C   UNL     1      -2.299  12.243  23.209  0.00  0.00    +0.000 C 
ATOM     12  C   UNL     1      -1.212  11.437  22.602  0.00  0.00    +0.000 A 
ATOM     13  N   UNL     1      -0.389  10.662  23.274  0.00  0.00    +0.000 NA
ATOM     14  N   UNL     1       0.485   9.993  22.442  0.00  0.00    +0.000 NA
ATOM     15  C   UNL     1       0.307  10.291  21.169  0.00  0.00    +0.000 A 
ATOM     16  S   UNL     1      -0.949  11.441  20.906  0.00  0.00    +0.000 S 
ENDBRANCH   5  15
ENDBRANCH   1   9
BRANCH   2  17
ATOM     17  C   UNL     1       2.679   3.857  19.241  0.00  0.00    +0.000 C 
ATOM     18  C   UNL     1       2.459   3.796  20.759  0.00  0.00    +0.000 C 
ATOM     19  C   UNL     1       2.798   2.410  21.283  0.00  0.00    +0.000 C 
ATOM     20  C   UNL     1       4.231   2.070  20.913  0.00  0.00    +0.000 C 
ATOM     21  C   UNL     1       4.504   2.271  19.420  0.00  0.00    +0.000 C 
ATOM     22  N   UNL     1       4.109   3.601  18.872  0.00  0.00    +0.000 NA
BRANCH  22  23
ATOM     23  C   UNL     1       4.229   3.542  17.379  0.00  0.00    +0.000 C 
BRANCH  23  24
ATOM     24  C   UNL     1       5.514   4.149  16.881  0.00  0.00    +0.000 A 
ATOM     25  N   UNL     1       5.907   3.936  15.570  0.00  0.00    +0.000 NA
ATOM     26  C   UNL     1       7.043   4.573  15.427  0.00  0.00    +0.000 A 
ATOM     27  N   UNL     1       7.395   5.222  16.573  0.00  0.00    +0.000 N 
ATOM     28  C   UNL     1       6.441   4.954  17.524  0.00  0.00    +0.000 A 
ATOM     29  C   UNL     1       6.522   5.498  18.898  0.00  0.00    +0.000 C 
ATOM     30  H   UNL     1       8.217   5.797  16.695  0.00  0.00    +0.000 HD
ENDBRANCH  23  24
ENDBRANCH  22  23
ENDBRANCH   2  17
TORSDOF 5
ENDMDL
MODEL 4
REMARK VINA RESULT:      -8.3      1.447      1.601
REMARK  Name = 
REMARK  7 active torsions:
REMARK  status: ('A' for Active; 'I' for Inactive)
REMARK    1  A    between atoms: C_1  and  C_2
REMARK    2  A    between atoms: C_5  and  C_6
REMARK    3  A    between atoms: C_10  and  N_11
REMARK    4  A    between atoms: C_12  and  C_14
REMARK    5  A    between atoms: N_19  and  C_20
REMARK    6  A    between atoms: C_20  and  C_21
REMARK    7  A    between atoms: C_25  and  C_26
REMARK                            x       y       z     vdW  Elec       q    Type
REMARK                         _______ _______ _______ _____ _____    ______ ____
ROOT
ATOM      1  N   UNL     1       1.668   7.209  18.239  0.00  0.00    +0.000 N 
ATOM      2  C   UNL     1       2.218   6.245  19.060  0.00  0.00    +0.000 C 
ATOM      3  O   UNL     1       2.732   6.453  20.162  0.00  0.00    +0.000 OA
ATOM      4  H   UNL     1       1.109   6.849  17.468  0.00  0.00    +0.000 HD
ENDROOT
BRANCH   1   9
ATOM      5  C   UNL     1       0.896  10.436  19.939  0.00  0.00    +0.000 A 
ATOM      6  C   UNL     1       1.557  11.349  19.102  0.00  0.00    +0.000 A 
ATOM      7  C   UNL     1       2.242  10.897  17.977  0.00  0.00    +0.000 A 
ATOM      8  C   UNL     1       2.280   9.534  17.682  0.00  0.00    +0.000 A 
ATOM      9  C   UNL     1       1.653   8.597  18.506  0.00  0.00    +0.000 A 
ATOM     10  C   UNL     1       0.960   9.060  19.630  0.00  0.00    +0.000 A 
BRANCH   5  15
ATOM     11  C   UNL     1      -2.624  12.239  23.405  0.00  0.00    +0.000 C 
ATOM     12  C   UNL     1      -1.467  11.637  22.696  0.00  0.00    +0.000 A 
ATOM     13  N   UNL     1      -0.558  10.873  23.260  0.00  0.00    +0.000 NA
ATOM     14  N   UNL     1       0.368  10.413  22.348  0.00  0.00    +0.000 NA
ATOM     15  C   UNL     1       0.142  10.853  21.124  0.00  0.00    +0.000 A 
ATOM     16  S   UNL     1      -1.231  11.889  21.015  0.00  0.00    +0.000 S 
ENDBRANCH   5  15
ENDBRANCH   1   9
BRANCH   2  17
ATOM     17  C   UNL     1       2.211   4.808  18.515  0.00  0.00    +0.000 C 
ATOM     18  C   UNL     1       1.418   3.942  19.504  0.00  0.00    +0.000 C 
ATOM     19  C   UNL     1       1.217   2.546  18.935  0.00  0.00    +0.000 C 
ATOM     20  C   UNL     1       2.571   1.935  18.618  0.00  0.00    +0.000 C 
ATOM     21  C   UNL     1       3.433   2.859  17.753  0.00  0.00    +0.000 C 
ATOM     22  N   UNL     1       3.579   4.254  18.259  0.00  0.00    +0.000 NA
BRANCH  22  23
ATOM     23  C   UNL     1       4.247   5.067  17.190  0.00  0.00    +0.000 C 
BRANCH  23  24
ATOM     24  C   UNL     1       5.742   4.893  17.187  0.00  0.00    +0.000 A 
ATOM     25  N   UNL     1       6.446   5.009  18.374  0.00  0.00    +0.000 NA
ATOM     26  C   UNL     1       7.705   4.813  18.066  0.00  0.00    +0.000 A 
ATOM     27  N   UNL     1       7.854   4.539  16.739  0.00  0.00    +0.000 N 
ATOM     28  C   UNL     1       6.615   4.600  16.151  0.00  0.00    +0.000 A 
ATOM     29  C   UNL     1       6.417   4.363  14.703  0.00  0.00    +0.000 C 
ATOM     30  H   UNL     1       8.728   4.331  16.276  0.00  0.00    +0.000 HD
ENDBRANCH  23  24
ENDBRANCH  22  23
ENDBRANCH   2  17
TORSDOF 5
ENDMDL
MODEL 5
REMARK VINA RESULT:      -8.2      1.818      2.361
REMARK  Name = 
REMARK  7 active torsions:
REMARK  status: ('A' for Active; 'I' for Inactive)
REMARK    1  A    between atoms: C_1  and  C_2
REMARK    2  A    between atoms: C_5  and  C_6
REMARK    3  A    between atoms: C_10  and  N_11
REMARK    4  A    between atoms: C_12  and  C_14
REMARK    5  A    between atoms: N_19  and  C_20
REMARK    6  A    between atoms: C_20  and  C_21
REMARK    7  A    between atoms: C_25  and  C_26
REMARK                            x       y       z     vdW  Elec       q    Type
REMARK                         _______ _______ _______ _____ _____    ______ ____
ROOT
ATOM      1  N   UNL     1       1.793   7.964  18.028  0.00  0.00    +0.000 N 
ATOM      2  C   UNL     1       2.320   6.928  18.774  0.00  0.00    +0.000 C 
ATOM      3  O   UNL     1       2.729   7.019  19.934  0.00  0.00    +0.000 OA
ATOM      4  H   UNL     1       1.318   7.681  17.174  0.00  0.00    +0.000 HD
ENDROOT
BRANCH   1   9
ATOM      5  C   UNL     1       0.762  10.916  20.059  0.00  0.00    +0.000 A 
ATOM      6  C   UNL     1       1.406  11.957  19.373  0.00  0.00    +0.000 A 
ATOM      7  C   UNL     1       2.166  11.682  18.238  0.00  0.00    +0.000 A 
ATOM      8  C   UNL     1       2.295  10.369  17.785  0.00  0.00    +0.000 A 
ATOM      9  C   UNL     1       1.687   9.307  18.458  0.00  0.00    +0.000 A 
ATOM     10  C   UNL     1       0.919   9.593  19.593  0.00  0.00    +0.000 A 
BRANCH   5  15
ATOM     11  C   UNL     1      -2.993  12.133  23.534  0.00  0.00    +0.000 C 
ATOM     12  C   UNL     1      -1.781  11.665  22.817  0.00  0.00    +0.000 A 
ATOM     13  N   UNL     1      -0.878  10.854  23.322  0.00  0.00    +0.000 NA
ATOM     14  N   UNL     1       0.110  10.549  22.410  0.00  0.00    +0.000 NA
ATOM     15  C   UNL     1      -0.066  11.147  21.246  0.00  0.00    +0.000 A 
ATOM     16  S   UNL     1      -1.465  12.152  21.202  0.00  0.00    +0.000 S 
ENDBRANCH   5  15
ENDBRANCH   1   9
BRANCH   2  17
ATOM     17  C   UNL     1       2.429   5.571  18.062  0.00  0.00    +0.000 C 
ATOM     18  C   UNL     1       1.625   4.552  18.881  0.00  0.00    +0.000 C 
ATOM     19  C   UNL     1       1.542   3.229  18.136  0.00  0.00    +0.000 C 
ATOM     20  C   UNL     1       2.945   2.728  17.845  0.00  0.00    +0.000 C 
ATOM     21  C   UNL     1       3.807   3.792  17.160  0.00  0.00    +0.000 C 
ATOM     22  N   UNL     1       3.841   5.120  17.838  0.00  0.00    +0.000 NA
BRANCH  22  23
ATOM     23  C   UNL     1       4.529   6.090  16.925  0.00  0.00    +0.000 C 
BRANCH  23  24
ATOM     24  C   UNL     1       5.748   5.497  16.269  0.00  0.00    +0.000 A 
ATOM     25  N   UNL     1       5.746   5.273  14.902  0.00  0.00    +0.000 NA
ATOM     26  C   UNL     1       6.919   4.759  14.622  0.00  0.00    +0.000 A 
ATOM     27  N   UNL     1       7.700   4.669  15.735  0.00  0.00    +0.000 N 
ATOM     28  C   UNL     1       6.968   5.120  16.806  0.00  0.00    +0.000 A 
ATOM     29  C   UNL     1       7.517   5.147  18.180  0.00  0.00    +0.000 C 
ATOM     30  H   UNL     1       8.651   4.326  15.760  0.00  0.00    +0.000 HD
ENDBRANCH  23  24
ENDBRANCH  22  23
ENDBRANCH   2  17
TORSDOF 5
ENDMDL
MODEL 6
REMARK VINA RESULT:      -8.1      3.067      8.359
REMARK  Name = 
REMARK  7 active torsions:
REMARK  status: ('A' for Active; 'I' for Inactive)
REMARK    1  A    between atoms: C_1  and  C_2
REMARK    2  A    between atoms: C_5  and  C_6
REMARK    3  A    between atoms: C_10  and  N_11
REMARK    4  A    between atoms: C_12  and  C_14
REMARK    5  A    between atoms: N_19  and  C_20
REMARK    6  A    between atoms: C_20  and  C_21
REMARK    7  A    between atoms: C_25  and  C_26
REMARK                            x       y       z     vdW  Elec       q    Type
REMARK                         _______ _______ _______ _____ _____    ______ ____
ROOT
ATOM      1  N   UNL     1       1.444   6.565  21.029  0.00  0.00    +0.000 N 
ATOM      2  C   UNL     1       1.539   7.780  20.378  0.00  0.00    +0.000 C 
ATOM      3  O   UNL     1       2.038   7.957  19.265  0.00  0.00    +0.000 OA
ATOM      4  H   UNL     1       0.828   6.558  21.838  0.00  0.00    +0.000 HD
ENDROOT
BRANCH   1   9
ATOM      5  C   UNL     1       3.675   4.156  19.262  0.00  0.00    +0.000 A 
ATOM      6  C   UNL     1       3.024   2.941  19.523  0.00  0.00    +0.000 A 
ATOM      7  C   UNL     1       1.847   2.924  20.269  0.00  0.00    +0.000 A 
ATOM      8  C   UNL     1       1.317   4.114  20.765  0.00  0.00    +0.000 A 
ATOM      9  C   UNL     1       1.951   5.339  20.544  0.00  0.00    +0.000 A 
ATOM     10  C   UNL     1       3.129   5.348  19.788  0.00  0.00    +0.000 A 
BRANCH   5  15
ATOM     11  C   UNL     1       7.352   4.789  15.557  0.00  0.00    +0.000 C 
ATOM     12  C   UNL     1       6.573   4.561  16.799  0.00  0.00    +0.000 A 
ATOM     13  N   UNL     1       7.085   4.535  18.010  0.00  0.00    +0.000 NA
ATOM     14  N   UNL     1       6.117   4.356  18.976  0.00  0.00    +0.000 NA
ATOM     15  C   UNL     1       4.904   4.240  18.468  0.00  0.00    +0.000 A 
ATOM     16  S   UNL     1       4.874   4.323  16.747  0.00  0.00    +0.000 S 
ENDBRANCH   5  15
ENDBRANCH   1   9
BRANCH   2  17
ATOM     17  C   UNL     1       1.006   9.000  21.144  0.00  0.00    +0.000 C 
ATOM     18  C   UNL     1       0.544   8.515  22.526  0.00  0.00    +0.000 C 
ATOM     19  C   UNL     1       0.173   9.701  23.401  0.00  0.00    +0.000 C 
ATOM     20  C   UNL     1      -0.903  10.519  22.708  0.00  0.00    +0.000 C 
ATOM     21  C   UNL     1      -0.515  10.883  21.273  0.00  0.00    +0.000 C 
ATOM     22  N   UNL     1      -0.077   9.740  20.420  0.00  0.00    +0.000 NA
BRANCH  22  23
ATOM     23  C   UNL     1       0.477  10.299  19.144  0.00  0.00    +0.000 C 
BRANCH  23  24
ATOM     24  C   UNL     1      -0.596  10.854  18.245  0.00  0.00    +0.000 A 
ATOM     25  N   UNL     1      -1.421   9.984  17.552  0.00  0.00    +0.000 NA
ATOM     26  C   UNL     1      -2.242  10.740  16.864  0.00  0.00    +0.000 A 
ATOM     27  N   UNL     1      -2.016  12.063  17.103  0.00  0.00    +0.000 N 
ATOM     28  C   UNL     1      -0.957  12.163  17.972  0.00  0.00    +0.000 A 
ATOM     29  C   UNL     1      -0.439  13.469  18.435  0.00  0.00    +0.000 C 
ATOM     30  H   UNL     1      -2.539  12.831  16.705  0.00  0.00    +0.000 HD
ENDBRANCH  23  24
ENDBRANCH  22  23
ENDBRANCH   2  17
TORSDOF 5
ENDMDL
MODEL 7
REMARK VINA RESULT:      -8.1      1.139      1.160
REMARK  Name = 
REMARK  7 active torsions:
REMARK  status: ('A' for Active; 'I' for Inactive)
REMARK    1  A    between atoms: C_1  and  C_2
REMARK    2  A    between atoms: C_5  and  C_6
REMARK    3  A    between atoms: C_10  and  N_11
REMARK    4  A    between atoms: C_12  and  C_14
REMARK    5  A    between atoms: N_19  and  C_20
REMARK    6  A    between atoms: C_20  and  C_21
REMARK    7  A    between atoms: C_25  and  C_26
REMARK                            x       y       z     vdW  Elec       q    Type
REMARK                         _______ _______ _______ _____ _____    ______ ____
ROOT
ATOM      1  N   UNL     1       2.242   6.576  19.611  0.00  0.00    +0.000 N 
ATOM      2  C   UNL     1       2.122   5.468  18.797  0.00  0.00    +0.000 C 
ATOM      3  O   UNL     1       1.823   5.489  17.601  0.00  0.00    +0.000 OA
ATOM      4  H   UNL     1       2.691   6.404  20.508  0.00  0.00    +0.000 HD
ENDROOT
BRANCH   1   9
ATOM      5  C   UNL     1       0.771  10.002  19.602  0.00  0.00    +0.000 A 
ATOM      6  C   UNL     1       1.410  10.570  18.490  0.00  0.00    +0.000 A 
ATOM      7  C   UNL     1       2.314   9.817  17.743  0.00  0.00    +0.000 A 
ATOM      8  C   UNL     1       2.590   8.499  18.102  0.00  0.00    +0.000 A 
ATOM      9  C   UNL     1       1.989   7.909  19.217  0.00  0.00    +0.000 A 
ATOM     10  C   UNL     1       1.077   8.670  19.958  0.00  0.00    +0.000 A 
BRANCH   5  15
ATOM     11  C   UNL     1      -2.027  12.318  23.404  0.00  0.00    +0.000 C 
ATOM     12  C   UNL     1      -1.451  11.817  22.133  0.00  0.00    +0.000 A 
ATOM     13  N   UNL     1      -1.751  12.280  20.940  0.00  0.00    +0.000 NA
ATOM     14  N   UNL     1      -1.023  11.659  19.946  0.00  0.00    +0.000 NA
ATOM     15  C   UNL     1      -0.203  10.737  20.414  0.00  0.00    +0.000 A 
ATOM     16  S   UNL     1      -0.287  10.555  22.126  0.00  0.00    +0.000 S 
ENDBRANCH   5  15
ENDBRANCH   1   9
BRANCH   2  17
ATOM     17  C   UNL     1       2.348   4.106  19.471  0.00  0.00    +0.000 C 
ATOM     18  C   UNL     1       1.602   4.124  20.813  0.00  0.00    +0.000 C 
ATOM     19  C   UNL     1       1.634   2.743  21.450  0.00  0.00    +0.000 C 
ATOM     20  C   UNL     1       3.077   2.303  21.619  0.00  0.00    +0.000 C 
ATOM     21  C   UNL     1       3.874   2.422  20.317  0.00  0.00    +0.000 C 
ATOM     22  N   UNL     1       3.793   3.749  19.640  0.00  0.00    +0.000 NA
BRANCH  22  23
ATOM     23  C   UNL     1       4.429   3.619  18.288  0.00  0.00    +0.000 C 
BRANCH  23  24
ATOM     24  C   UNL     1       5.712   4.399  18.178  0.00  0.00    +0.000 A 
ATOM     25  N   UNL     1       6.235   5.013  19.304  0.00  0.00    +0.000 NA
ATOM     26  C   UNL     1       7.335   5.607  18.910  0.00  0.00    +0.000 A 
ATOM     27  N   UNL     1       7.575   5.380  17.587  0.00  0.00    +0.000 N 
ATOM     28  C   UNL     1       6.542   4.623  17.092  0.00  0.00    +0.000 A 
ATOM     29  C   UNL     1       6.482   4.203  15.674  0.00  0.00    +0.000 C 
ATOM     30  H   UNL     1       8.374   5.717  17.068  0.00  0.00    +0.000 HD
ENDBRANCH  23  24
ENDBRANCH  22  23
ENDBRANCH   2  17
TORSDOF 5
ENDMDL
MODEL 8
REMARK VINA RESULT:      -7.8      1.298      1.299
REMARK  Name = 
REMARK  7 active torsions:
REMARK  status: ('A' for Active; 'I' for Inactive)
REMARK    1  A    between atoms: C_1  and  C_2
REMARK    2  A    between atoms: C_5  and  C_6
REMARK    3  A    between atoms: C_10  and  N_11
REMARK    4  A    between atoms: C_12  and  C_14
REMARK    5  A    between atoms: N_19  and  C_20
REMARK    6  A    between atoms: C_20  and  C_21
REMARK    7  A    between atoms: C_25  and  C_26
REMARK                            x       y       z     vdW  Elec       q    Type
REMARK                         _______ _______ _______ _____ _____    ______ ____
ROOT
ATOM      1  N   UNL     1       1.731   6.956  19.501  0.00  0.00    +0.000 N 
ATOM      2  C   UNL     1       2.904   6.235  19.392  0.00  0.00    +0.000 C 
ATOM      3  O   UNL     1       4.007   6.705  19.106  0.00  0.00    +0.000 OA
ATOM      4  H   UNL     1       0.959   6.459  19.939  0.00  0.00    +0.000 HD
ENDROOT
BRANCH   1   9
ATOM      5  C   UNL     1       0.774  10.526  19.998  0.00  0.00    +0.000 A 
ATOM      6  C   UNL     1       1.273  11.107  18.822  0.00  0.00    +0.000 A 
ATOM      7  C   UNL     1       1.911  10.318  17.868  0.00  0.00    +0.000 A 
ATOM      8  C   UNL     1       2.062   8.948  18.081  0.00  0.00    +0.000 A 
ATOM      9  C   UNL     1       1.598   8.341  19.250  0.00  0.00    +0.000 A 
ATOM     10  C   UNL     1       0.952   9.140  20.200  0.00  0.00    +0.000 A 
BRANCH   5  15
ATOM     11  C   UNL     1      -2.433  13.605  22.805  0.00  0.00    +0.000 C 
ATOM     12  C   UNL     1      -1.397  12.667  22.306  0.00  0.00    +0.000 A 
ATOM     13  N   UNL     1      -0.685  11.864  23.066  0.00  0.00    +0.000 NA
ATOM     14  N   UNL     1       0.163  11.069  22.325  0.00  0.00    +0.000 NA
ATOM     15  C   UNL     1       0.077  11.300  21.028  0.00  0.00    +0.000 A 
ATOM     16  S   UNL     1      -1.051  12.541  20.630  0.00  0.00    +0.000 S 
ENDBRANCH   5  15
ENDBRANCH   1   9
BRANCH   2  17
ATOM     17  C   UNL     1       2.788   4.719  19.612  0.00  0.00    +0.000 C 
ATOM     18  C   UNL     1       2.401   4.492  21.081  0.00  0.00    +0.000 C 
ATOM     19  C   UNL     1       2.093   3.023  21.321  0.00  0.00    +0.000 C 
ATOM     20  C   UNL     1       3.298   2.187  20.925  0.00  0.00    +0.000 C 
ATOM     21  C   UNL     1       3.786   2.513  19.511  0.00  0.00    +0.000 C 
ATOM     22  N   UNL     1       4.023   3.959  19.235  0.00  0.00    +0.000 NA
BRANCH  22  23
ATOM     23  C   UNL     1       4.267   4.116  17.764  0.00  0.00    +0.000 C 
BRANCH  23  24
ATOM     24  C   UNL     1       5.726   4.305  17.441  0.00  0.00    +0.000 A 
ATOM     25  N   UNL     1       6.627   4.542  18.466  0.00  0.00    +0.000 NA
ATOM     26  C   UNL     1       7.799   4.664  17.892  0.00  0.00    +0.000 A 
ATOM     27  N   UNL     1       7.713   4.482  16.545  0.00  0.00    +0.000 N 
ATOM     28  C   UNL     1       6.394   4.267  16.228  0.00  0.00    +0.000 A 
ATOM     29  C   UNL     1       5.944   4.043  14.836  0.00  0.00    +0.000 C 
ATOM     30  H   UNL     1       8.488   4.507  15.896  0.00  0.00    +0.000 HD
ENDBRANCH  23  24
ENDBRANCH  22  23
ENDBRANCH   2  17
TORSDOF 5
ENDMDL
MODEL 9
REMARK VINA RESULT:      -7.7      1.616      1.944
REMARK  Name = 
REMARK  7 active torsions:
REMARK  status: ('A' for Active; 'I' for Inactive)
REMARK    1  A    between atoms: C_1  and  C_2
REMARK    2  A    between atoms: C_5  and  C_6
REMARK    3  A    between atoms: C_10  and  N_11
REMARK    4  A    between atoms: C_12  and  C_14
REMARK    5  A    between atoms: N_19  and  C_20
REMARK    6  A    between atoms: C_20  and  C_21
REMARK    7  A    between atoms: C_25  and  C_26
REMARK                            x       y       z     vdW  Elec       q    Type
REMARK                         _______ _______ _______ _____ _____    ______ ____
ROOT
ATOM      1  N   UNL     1       1.908   6.731  18.781  0.00  0.00    +0.000 N 
ATOM      2  C   UNL     1       3.083   6.034  18.986  0.00  0.00    +0.000 C 
ATOM      3  O   UNL     1       4.169   6.536  19.283  0.00  0.00    +0.000 OA
ATOM      4  H   UNL     1       1.068   6.159  18.746  0.00  0.00    +0.000 HD
ENDROOT
BRANCH   1   9
ATOM      5  C   UNL     1       0.921  10.113  20.002  0.00  0.00    +0.000 A 
ATOM      6  C   UNL     1       1.450  10.932  18.993  0.00  0.00    +0.000 A 
ATOM      7  C   UNL     1       2.119  10.365  17.910  0.00  0.00    +0.000 A 
ATOM      8  C   UNL     1       2.270   8.980  17.830  0.00  0.00    +0.000 A 
ATOM      9  C   UNL     1       1.776   8.138  18.828  0.00  0.00    +0.000 A 
ATOM     10  C   UNL     1       1.099   8.716  19.909  0.00  0.00    +0.000 A 
BRANCH   5  15
ATOM     11  C   UNL     1      -2.493  12.341  23.323  0.00  0.00    +0.000 C 
ATOM     12  C   UNL     1      -1.373  11.629  22.662  0.00  0.00    +0.000 A 
ATOM     13  N   UNL     1      -0.510  10.852  23.280  0.00  0.00    +0.000 NA
ATOM     14  N   UNL     1       0.390  10.281  22.405  0.00  0.00    +0.000 NA
ATOM     15  C   UNL     1       0.191  10.651  21.154  0.00  0.00    +0.000 A 
ATOM     16  S   UNL     1      -1.120  11.755  20.969  0.00  0.00    +0.000 S 
ENDBRANCH   5  15
ENDBRANCH   1   9
BRANCH   2  17
ATOM     17  C   UNL     1       3.009   4.513  18.781  0.00  0.00    +0.000 C 
ATOM     18  C   UNL     1       2.905   3.863  20.169  0.00  0.00    +0.000 C 
ATOM     19  C   UNL     1       2.647   2.371  20.032  0.00  0.00    +0.000 C 
ATOM     20  C   UNL     1       3.755   1.745  19.204  0.00  0.00    +0.000 C 
ATOM     21  C   UNL     1       3.970   2.479  17.877  0.00  0.00    +0.000 C 
ATOM     22  N   UNL     1       4.151   3.956  17.987  0.00  0.00    +0.000 NA
BRANCH  22  23
ATOM     23  C   UNL     1       4.116   4.532  16.603  0.00  0.00    +0.000 C 
BRANCH  23  24
ATOM     24  C   UNL     1       5.486   4.635  15.989  0.00  0.00    +0.000 A 
ATOM     25  N   UNL     1       5.624   4.556  14.613  0.00  0.00    +0.000 NA
ATOM     26  C   UNL     1       6.908   4.675  14.374  0.00  0.00    +0.000 A 
ATOM     27  N   UNL     1       7.611   4.865  15.525  0.00  0.00    +0.000 N 
ATOM     28  C   UNL     1       6.726   4.827  16.575  0.00  0.00    +0.000 A 
ATOM     29  C   UNL     1       7.163   4.989  17.980  0.00  0.00    +0.000 C 
ATOM     30  H   UNL     1       8.610   5.005  15.589  0.00  0.00    +0.000 HD
ENDBRANCH  23  24
ENDBRANCH  22  23
ENDBRANCH   2  17
TORSDOF 5
ENDMDL
