MODEL 1
REMARK VINA RESULT:      -9.3      0.000      0.000
REMARK  Name = 
REMARK  7 active torsions:
REMARK  status: ('A' for Active; 'I' for Inactive)
REMARK    1  A    between atoms: N_1  and  C_2
REMARK    2  A    between atoms: C_2  and  C_3
REMARK    3  A    between atoms: C_3  and  S_4
REMARK    4  A    between atoms: S_4  and  N_7
REMARK    5  A    between atoms: N_7  and  C_8
REMARK    6  A    between atoms: C_11  and  N_12
REMARK    7  A    between atoms: N_12  and  C_13
REMARK                            x       y       z     vdW  Elec       q    Type
REMARK                         _______ _______ _______ _____ _____    ______ ____
ROOT
ATOM      1  C   UNL     1       1.120   9.830  19.094  0.00  0.00    +0.000 A 
ATOM      2  C   UNL     1       1.700   9.155  18.029  0.00  0.00    +0.000 A 
ATOM      3  C   UNL     1       2.329   7.932  18.265  0.00  0.00    +0.000 A 
ATOM      4  C   UNL     1       2.365   7.382  19.559  0.00  0.00    +0.000 A 
ATOM      5  C   UNL     1       1.602   7.983  20.556  0.00  0.00    +0.000 A 
ATOM      6  C   UNL     1       1.039   9.239  20.349  0.00  0.00    +0.000 A 
ENDROOT
BRANCH   1   7
ATOM      7  N   UNL     1       0.668  11.153  18.918  0.00  0.00    +0.000 N 
ATOM      8  H   UNL     1       1.317  11.844  18.557  0.00  0.00    +0.000 HD
BRANCH   7   9
ATOM      9  S   UNL     1      -0.969  11.477  18.957  0.00  0.00    +0.000 S 
ATOM     10  O   UNL     1      -1.177  12.698  18.183  0.00  0.00    +0.000 OA
ATOM     11  O   UNL     1      -1.465  11.357  20.307  0.00  0.00    +0.000 OA
BRANCH   9  12
ATOM     12  C   UNL     1      -1.639  10.125  18.006  0.00  0.00    +0.000 C 
BRANCH  12  13
ATOM     13  C   UNL     1      -2.832  10.554  17.164  0.00  0.00    +0.000 C 
BRANCH  13  14
ATOM     14  N   UNL     1      -2.414  11.320  15.990  0.00  0.00    +0.000 NA
ATOM     15  H   UNL     1      -1.455  11.068  15.745  0.00  0.00    +0.000 HD
ATOM     16  H   UNL     1      -2.380  12.316  16.219  0.00  0.00    +0.000 HD
ENDBRANCH  13  14
ENDBRANCH  12  13
ENDBRANCH   9  12
ENDBRANCH   7   9
ENDBRANCH   1   7
BRANCH   4  17
ATOM     17  N   UNL     1       3.231   6.306  19.825  0.00  0.00    +0.000 N 
ATOM     18  H   UNL     1       3.213   6.071  20.815  0.00  0.00    +0.000 HD
BRANCH  17  19
ATOM     19  C   UNL     1       3.596   5.145  19.064  0.00  0.00    +0.000 A 
ATOM     20  C   UNL     1       4.263   5.135  17.782  0.00  0.00    +0.000 A 
ATOM     21  C   UNL     1       4.464   6.193  16.857  0.00  0.00    +0.000 A 
ATOM     22  C   UNL     1       5.273   6.063  15.727  0.00  0.00    +0.000 A 
ATOM     23  C   UNL     1       5.885   4.849  15.468  0.00  0.00    +0.000 A 
ATOM     24  C   UNL     1       5.527   3.750  16.238  0.00  0.00    +0.000 A 
ATOM     25  C   UNL     1       4.629   3.877  17.287  0.00  0.00    +0.000 A 
ATOM     26  N   UNL     1       3.973   2.788  17.668  0.00  0.00    +0.000 NA
ATOM     27  C   UNL     1       2.990   2.981  18.546  0.00  0.00    +0.000 A 
ATOM     28  C   UNL     1       1.674   2.659  18.244  0.00  0.00    +0.000 A 
ATOM     29  C   UNL     1       0.643   2.945  19.142  0.00  0.00    +0.000 A 
ATOM     30  C   UNL     1       0.975   3.342  20.433  0.00  0.00    +0.000 A 
ATOM     31  C   UNL     1       2.276   3.755  20.676  0.00  0.00    +0.000 A 
ATOM     32  C   UNL     1       3.107   3.903  19.552  0.00  0.00    +0.000 A 
ENDBRANCH  17  19
ENDBRANCH   4  17
TORSDOF 7
ENDMDL
MODEL 2
REMARK VINA RESULT:      -9.2      2.225      2.627
REMARK  Name = 
REMARK  7 active torsions:
REMARK  status: ('A' for Active; 'I' for Inactive)
REMARK    1  A    between atoms: N_1  and  C_2
REMARK    2  A    between atoms: C_2  and  C_3
REMARK    3  A    between atoms: C_3  and  S_4
REMARK    4  A    between atoms: S_4  and  N_7
REMARK    5  A    between atoms: N_7  and  C_8
REMARK    6  A    between atoms: C_11  and  N_12
REMARK    7  A    between atoms: N_12  and  C_13
REMARK                            x       y       z     vdW  Elec       q    Type
REMARK                         _______ _______ _______ _____ _____    ______ ____
ROOT
ATOM      1  C   UNL     1       0.399   9.865  19.887  0.00  0.00    +0.000 A 
ATOM      2  C   UNL     1       1.002   8.900  20.681  0.00  0.00    +0.000 A 
ATOM      3  C   UNL     1       1.822   7.944  20.079  0.00  0.00    +0.000 A 
ATOM      4  C   UNL     1       2.047   7.965  18.692  0.00  0.00    +0.000 A 
ATOM      5  C   UNL     1       1.595   9.060  17.962  0.00  0.00    +0.000 A 
ATOM      6  C   UNL     1       0.714   9.972  18.537  0.00  0.00    +0.000 A 
ENDROOT
BRANCH   1   7
ATOM      7  N   UNL     1      -0.590  10.704  20.438  0.00  0.00    +0.000 N 
ATOM      8  H   UNL     1      -1.563  10.511  20.225  0.00  0.00    +0.000 HD
BRANCH   7   9
ATOM      9  S   UNL     1      -0.192  11.743  21.681  0.00  0.00    +0.000 S 
ATOM     10  O   UNL     1       1.077  12.370  21.318  0.00  0.00    +0.000 OA
ATOM     11  O   UNL     1      -0.358  11.081  22.952  0.00  0.00    +0.000 OA
BRANCH   9  12
ATOM     12  C   UNL     1      -1.458  12.991  21.543  0.00  0.00    +0.000 C 
BRANCH  12  13
ATOM     13  C   UNL     1      -1.488  13.625  20.160  0.00  0.00    +0.000 C 
BRANCH  13  14
ATOM     14  N   UNL     1      -2.296  12.841  19.226  0.00  0.00    +0.000 NA
ATOM     15  H   UNL     1      -1.739  12.065  18.864  0.00  0.00    +0.000 HD
ATOM     16  H   UNL     1      -2.531  13.408  18.409  0.00  0.00    +0.000 HD
ENDBRANCH  13  14
ENDBRANCH  12  13
ENDBRANCH   9  12
ENDBRANCH   7   9
ENDBRANCH   1   7
BRANCH   4  17
ATOM     17  N   UNL     1       2.639   6.848  18.075  0.00  0.00    +0.000 N 
ATOM     18  H   UNL     1       2.691   6.983  17.067  0.00  0.00    +0.000 HD
BRANCH  17  19
ATOM     19  C   UNL     1       3.678   5.947  18.490  0.00  0.00    +0.000 A 
ATOM     20  C   UNL     1       5.096   6.118  18.277  0.00  0.00    +0.000 A 
ATOM     21  C   UNL     1       5.781   7.009  17.408  0.00  0.00    +0.000 A 
ATOM     22  C   UNL     1       7.168   7.168  17.432  0.00  0.00    +0.000 A 
ATOM     23  C   UNL     1       7.921   6.410  18.311  0.00  0.00    +0.000 A 
ATOM     24  C   UNL     1       7.294   5.386  19.008  0.00  0.00    +0.000 A 
ATOM     25  C   UNL     1       5.930   5.169  18.881  0.00  0.00    +0.000 A 
ATOM     26  N   UNL     1       5.473   3.955  19.160  0.00  0.00    +0.000 NA
ATOM     27  C   UNL     1       4.197   3.730  18.851  0.00  0.00    +0.000 A 
ATOM     28  C   UNL     1       3.835   2.751  17.936  0.00  0.00    +0.000 A 
ATOM     29  C   UNL     1       2.499   2.584  17.560  0.00  0.00    +0.000 A 
ATOM     30  C   UNL     1       1.514   3.250  18.280  0.00  0.00    +0.000 A 
ATOM     31  C   UNL     1       1.903   4.291  19.110  0.00  0.00    +0.000 A 
ATOM     32  C   UNL     1       3.245   4.700  19.016  0.00  0.00    +0.000 A 
ENDBRANCH  17  19
ENDBRANCH   4  17
TORSDOF 7
ENDMDL
MODEL 3
REMARK VINA RESULT:      -9.1      1.137      1.298
REMARK  Name = 
REMARK  7 active torsions:
REMARK  status: ('A' for Active; 'I' for Inactive)
REMARK    1  A    between atoms: N_1  and  C_2
REMARK    2  A    between atoms: C_2  and  C_3
REMARK    3  A    between atoms: C_3  and  S_4
REMARK    4  A    between atoms: S_4  and  N_7
REMARK    5  A    between atoms: N_7  and  C_8
REMARK    6  A    between atoms: C_11  and  N_12
REMARK    7  A    between atoms: N_12  and  C_13
REMARK                            x       y       z     vdW  Elec       q    Type
REMARK                         _______ _______ _______ _____ _____    ______ ____
ROOT
ATOM      1  C   UNL     1       0.849   9.911  19.203  0.00  0.00    +0.000 A 
ATOM      2  C   UNL     1       1.457   9.294  18.119  0.00  0.00    +0.000 A 
ATOM      3  C   UNL     1       2.165   8.109  18.324  0.00  0.00    +0.000 A 
ATOM      4  C   UNL     1       2.251   7.539  19.606  0.00  0.00    +0.000 A 
ATOM      5  C   UNL     1       1.463   8.071  20.624  0.00  0.00    +0.000 A 
ATOM      6  C   UNL     1       0.820   9.293  20.447  0.00  0.00    +0.000 A 
ENDROOT
BRANCH   1   7
ATOM      7  N   UNL     1       0.312  11.205  19.058  0.00  0.00    +0.000 N 
ATOM      8  H   UNL     1       0.948  11.995  19.034  0.00  0.00    +0.000 HD
BRANCH   7   9
ATOM      9  S   UNL     1      -1.276  11.391  18.577  0.00  0.00    +0.000 S 
ATOM     10  O   UNL     1      -1.869  10.056  18.552  0.00  0.00    +0.000 OA
ATOM     11  O   UNL     1      -1.346  12.259  17.427  0.00  0.00    +0.000 OA
BRANCH   9  12
ATOM     12  C   UNL     1      -1.985  12.260  19.963  0.00  0.00    +0.000 C 
BRANCH  12  13
ATOM     13  C   UNL     1      -3.502  12.344  19.869  0.00  0.00    +0.000 C 
BRANCH  13  14
ATOM     14  N   UNL     1      -3.957  12.323  18.479  0.00  0.00    +0.000 NA
ATOM     15  H   UNL     1      -4.758  12.949  18.375  0.00  0.00    +0.000 HD
ATOM     16  H   UNL     1      -4.309  11.393  18.243  0.00  0.00    +0.000 HD
ENDBRANCH  13  14
ENDBRANCH  12  13
ENDBRANCH   9  12
ENDBRANCH   7   9
ENDBRANCH   1   7
BRANCH   4  17
ATOM     17  N   UNL     1       3.186   6.515  19.843  0.00  0.00    +0.000 N 
ATOM     18  H   UNL     1       3.239   6.303  20.837  0.00  0.00    +0.000 HD
BRANCH  17  19
ATOM     19  C   UNL     1       3.566   5.355  19.086  0.00  0.00    +0.000 A 
ATOM     20  C   UNL     1       4.227   5.349  17.801  0.00  0.00    +0.000 A 
ATOM     21  C   UNL     1       4.408   6.406  16.870  0.00  0.00    +0.000 A 
ATOM     22  C   UNL     1       5.215   6.282  15.737  0.00  0.00    +0.000 A 
ATOM     23  C   UNL     1       5.843   5.077  15.482  0.00  0.00    +0.000 A 
ATOM     24  C   UNL     1       5.505   3.976  16.258  0.00  0.00    +0.000 A 
ATOM     25  C   UNL     1       4.610   4.095  17.310  0.00  0.00    +0.000 A 
ATOM     26  N   UNL     1       3.972   2.998  17.700  0.00  0.00    +0.000 NA
ATOM     27  C   UNL     1       2.990   3.180  18.581  0.00  0.00    +0.000 A 
ATOM     28  C   UNL     1       1.678   2.837  18.286  0.00  0.00    +0.000 A 
ATOM     29  C   UNL     1       0.646   3.112  19.187  0.00  0.00    +0.000 A 
ATOM     30  C   UNL     1       0.977   3.520  20.475  0.00  0.00    +0.000 A 
ATOM     31  C   UNL     1       2.273   3.953  20.710  0.00  0.00    +0.000 A 
ATOM     32  C   UNL     1       3.097   4.109  19.582  0.00  0.00    +0.000 A 
ENDBRANCH  17  19
ENDBRANCH   4  17
TORSDOF 7
ENDMDL
MODEL 4
REMARK VINA RESULT:      -9.1      1.268      1.798
REMARK  Name = 
REMARK  7 active torsions:
REMARK  status: ('A' for Active; 'I' for Inactive)
REMARK    1  A    between atoms: N_1  and  C_2
REMARK    2  A    between atoms: C_2  and  C_3
REMARK    3  A    between atoms: C_3  and  S_4
REMARK    4  A    between atoms: S_4  and  N_7
REMARK    5  A    between atoms: N_7  and  C_8
REMARK    6  A    between atoms: C_11  and  N_12
REMARK    7  A    between atoms: N_12  and  C_13
REMARK                            x       y       z     vdW  Elec       q    Type
REMARK                         _______ _______ _______ _____ _____    ______ ____
ROOT
ATOM      1  C   UNL     1       0.992   9.799  19.196  0.00  0.00    +0.000 A 
ATOM      2  C   UNL     1       1.567   9.152  18.111  0.00  0.00    +0.000 A 
ATOM      3  C   UNL     1       2.244   7.950  18.320  0.00  0.00    +0.000 A 
ATOM      4  C   UNL     1       2.333   7.393  19.607  0.00  0.00    +0.000 A 
ATOM      5  C   UNL     1       1.576   7.958  20.629  0.00  0.00    +0.000 A 
ATOM      6  C   UNL     1       0.965   9.195  20.448  0.00  0.00    +0.000 A 
ENDROOT
BRANCH   1   7
ATOM      7  N   UNL     1       0.489  11.106  19.043  0.00  0.00    +0.000 N 
ATOM      8  H   UNL     1       1.146  11.862  18.881  0.00  0.00    +0.000 HD
BRANCH   7   9
ATOM      9  S   UNL     1      -1.142  11.336  18.775  0.00  0.00    +0.000 S 
ATOM     10  O   UNL     1      -1.726  10.015  18.559  0.00  0.00    +0.000 OA
ATOM     11  O   UNL     1      -1.341  12.403  17.825  0.00  0.00    +0.000 OA
BRANCH   9  12
ATOM     12  C   UNL     1      -1.703  11.909  20.368  0.00  0.00    +0.000 C 
BRANCH  12  13
ATOM     13  C   UNL     1      -0.813  13.011  20.926  0.00  0.00    +0.000 C 
BRANCH  13  14
ATOM     14  N   UNL     1       0.204  12.475  21.830  0.00  0.00    +0.000 NA
ATOM     15  H   UNL     1       0.051  11.473  21.956  0.00  0.00    +0.000 HD
ATOM     16  H   UNL     1       0.091  12.883  22.761  0.00  0.00    +0.000 HD
ENDBRANCH  13  14
ENDBRANCH  12  13
ENDBRANCH   9  12
ENDBRANCH   7   9
ENDBRANCH   1   7
BRANCH   4  17
ATOM     17  N   UNL     1       3.243   6.346  19.842  0.00  0.00    +0.000 N 
ATOM     18  H   UNL     1       3.287   6.129  20.836  0.00  0.00    +0.000 HD
BRANCH  17  19
ATOM     19  C   UNL     1       3.597   5.180  19.081  0.00  0.00    +0.000 A 
ATOM     20  C   UNL     1       4.255   5.163  17.796  0.00  0.00    +0.000 A 
ATOM     21  C   UNL     1       4.456   6.218  16.866  0.00  0.00    +0.000 A 
ATOM     22  C   UNL     1       5.257   6.080  15.731  0.00  0.00    +0.000 A 
ATOM     23  C   UNL     1       5.860   4.863  15.472  0.00  0.00    +0.000 A 
ATOM     24  C   UNL     1       5.501   3.767  16.246  0.00  0.00    +0.000 A 
ATOM     25  C   UNL     1       4.610   3.902  17.301  0.00  0.00    +0.000 A 
ATOM     26  N   UNL     1       3.951   2.818  17.689  0.00  0.00    +0.000 NA
ATOM     27  C   UNL     1       2.974   3.018  18.573  0.00  0.00    +0.000 A 
ATOM     28  C   UNL     1       1.655   2.703  18.279  0.00  0.00    +0.000 A 
ATOM     29  C   UNL     1       0.631   2.997  19.184  0.00  0.00    +0.000 A 
ATOM     30  C   UNL     1       0.973   3.396  20.472  0.00  0.00    +0.000 A 
ATOM     31  C   UNL     1       2.278   3.801  20.705  0.00  0.00    +0.000 A 
ATOM     32  C   UNL     1       3.103   3.942  19.576  0.00  0.00    +0.000 A 
ENDBRANCH  17  19
ENDBRANCH   4  17
TORSDOF 7
ENDMDL
MODEL 5
REMARK VINA RESULT:      -9.1      1.236      1.506
REMARK  Name = 
REMARK  7 active torsions:
REMARK  status: ('A' for Active; 'I' for Inactive)
REMARK    1  A    between atoms: N_1  and  C_2
REMARK    2  A    between atoms: C_2  and  C_3
REMARK    3  A    between atoms: C_3  and  S_4
REMARK    4  A    between atoms: S_4  and  N_7
REMARK    5  A    between atoms: N_7  and  C_8
REMARK    6  A    between atoms: C_11  and  N_12
REMARK    7  A    between atoms: N_12  and  C_13
REMARK                            x       y       z     vdW  Elec       q    Type
REMARK                         _______ _______ _______ _____ _____    ______ ____
ROOT
ATOM      1  C   UNL     1       0.959   9.651  19.546  0.00  0.00    +0.000 A 
ATOM      2  C   UNL     1       1.607   9.157  18.422  0.00  0.00    +0.000 A 
ATOM      3  C   UNL     1       2.322   7.963  18.524  0.00  0.00    +0.000 A 
ATOM      4  C   UNL     1       2.375   7.261  19.741  0.00  0.00    +0.000 A 
ATOM      5  C   UNL     1       1.552   7.677  20.784  0.00  0.00    +0.000 A 
ATOM      6  C   UNL     1       0.900   8.905  20.717  0.00  0.00    +0.000 A 
ENDROOT
BRANCH   1   7
ATOM      7  N   UNL     1       0.412  10.949  19.521  0.00  0.00    +0.000 N 
ATOM      8  H   UNL     1       1.042  11.740  19.443  0.00  0.00    +0.000 HD
BRANCH   7   9
ATOM      9  S   UNL     1      -1.225  11.150  19.261  0.00  0.00    +0.000 S 
ATOM     10  O   UNL     1      -1.798  11.621  20.520  0.00  0.00    +0.000 OA
ATOM     11  O   UNL     1      -1.763   9.995  18.584  0.00  0.00    +0.000 OA
BRANCH   9  12
ATOM     12  C   UNL     1      -1.255  12.519  18.120  0.00  0.00    +0.000 C 
BRANCH  12  13
ATOM     13  C   UNL     1      -0.130  13.509  18.385  0.00  0.00    +0.000 C 
BRANCH  13  14
ATOM     14  N   UNL     1      -0.231  14.094  19.722  0.00  0.00    +0.000 NA
ATOM     15  H   UNL     1      -1.205  14.336  19.912  0.00  0.00    +0.000 HD
ATOM     16  H   UNL     1       0.278  14.979  19.753  0.00  0.00    +0.000 HD
ENDBRANCH  13  14
ENDBRANCH  12  13
ENDBRANCH   9  12
ENDBRANCH   7   9
ENDBRANCH   1   7
BRANCH   4  17
ATOM     17  N   UNL     1       3.315   6.226  19.897  0.00  0.00    +0.000 N 
ATOM     18  H   UNL     1       3.423   5.989  20.881  0.00  0.00    +0.000 HD
BRANCH  17  19
ATOM     19  C   UNL     1       3.641   5.083  19.091  0.00  0.00    +0.000 A 
ATOM     20  C   UNL     1       4.270   5.103  17.790  0.00  0.00    +0.000 A 
ATOM     21  C   UNL     1       4.459   6.187  16.892  0.00  0.00    +0.000 A 
ATOM     22  C   UNL     1       5.233   6.080  15.734  0.00  0.00    +0.000 A 
ATOM     23  C   UNL     1       5.819   4.867  15.421  0.00  0.00    +0.000 A 
ATOM     24  C   UNL     1       5.468   3.749  16.168  0.00  0.00    +0.000 A 
ATOM     25  C   UNL     1       4.603   3.857  17.247  0.00  0.00    +0.000 A 
ATOM     26  N   UNL     1       3.943   2.766  17.614  0.00  0.00    +0.000 NA
ATOM     27  C   UNL     1       2.988   2.945  18.526  0.00  0.00    +0.000 A 
ATOM     28  C   UNL     1       1.660   2.650  18.253  0.00  0.00    +0.000 A 
ATOM     29  C   UNL     1       0.660   2.922  19.190  0.00  0.00    +0.000 A 
ATOM     30  C   UNL     1       1.034   3.276  20.482  0.00  0.00    +0.000 A 
ATOM     31  C   UNL     1       2.348   3.662  20.698  0.00  0.00    +0.000 A 
ATOM     32  C   UNL     1       3.148   3.834  19.555  0.00  0.00    +0.000 A 
ENDBRANCH  17  19
ENDBRANCH   4  17
TORSDOF 7
ENDMDL
MODEL 6
REMARK VINA RESULT:      -9.1      2.430      3.050
REMARK  Name = 
REMARK  7 active torsions:
REMARK  status: ('A' for Active; 'I' for Inactive)
REMARK    1  A    between atoms: N_1  and  C_2
REMARK    2  A    between atoms: C_2  and  C_3
REMARK    3  A    between atoms: C_3  and  S_4
REMARK    4  A    between atoms: S_4  and  N_7
REMARK    5  A    between atoms: N_7  and  C_8
REMARK    6  A    between atoms: C_11  and  N_12
REMARK    7  A    between atoms: N_12  and  C_13
REMARK                            x       y       z     vdW  Elec       q    Type
REMARK                         _______ _______ _______ _____ _____    ______ ____
ROOT
ATOM      1  C   UNL     1       0.546  10.087  19.740  0.00  0.00    +0.000 A 
ATOM      2  C   UNL     1       0.969   9.083  20.599  0.00  0.00    +0.000 A 
ATOM      3  C   UNL     1       1.703   8.014  20.083  0.00  0.00    +0.000 A 
ATOM      4  C   UNL     1       2.023   7.960  18.715  0.00  0.00    +0.000 A 
ATOM      5  C   UNL     1       1.761   9.077  17.927  0.00  0.00    +0.000 A 
ATOM      6  C   UNL     1       0.963  10.108  18.414  0.00  0.00    +0.000 A 
ENDROOT
BRANCH   1   7
ATOM      7  N   UNL     1      -0.366  11.058  20.196  0.00  0.00    +0.000 N 
ATOM      8  H   UNL     1      -1.348  10.951  19.961  0.00  0.00    +0.000 HD
BRANCH   7   9
ATOM      9  S   UNL     1       0.101  12.136  21.382  0.00  0.00    +0.000 S 
ATOM     10  O   UNL     1       1.493  12.485  21.111  0.00  0.00    +0.000 OA
ATOM     11  O   UNL     1      -0.307  11.653  22.679  0.00  0.00    +0.000 OA
BRANCH   9  12
ATOM     12  C   UNL     1      -0.889  13.568  20.993  0.00  0.00    +0.000 C 
BRANCH  12  13
ATOM     13  C   UNL     1      -0.226  14.861  21.446  0.00  0.00    +0.000 C 
BRANCH  13  14
ATOM     14  N   UNL     1       0.263  14.762  22.821  0.00  0.00    +0.000 NA
ATOM     15  H   UNL     1      -0.094  13.905  23.247  0.00  0.00    +0.000 HD
ATOM     16  H   UNL     1      -0.124  15.523  23.383  0.00  0.00    +0.000 HD
ENDBRANCH  13  14
ENDBRANCH  12  13
ENDBRANCH   9  12
ENDBRANCH   7   9
ENDBRANCH   1   7
BRANCH   4  17
ATOM     17  N   UNL     1       2.512   6.758  18.170  0.00  0.00    +0.000 N 
ATOM     18  H   UNL     1       2.449   6.776  17.155  0.00  0.00    +0.000 HD
BRANCH  17  19
ATOM     19  C   UNL     1       3.571   5.873  18.569  0.00  0.00    +0.000 A 
ATOM     20  C   UNL     1       4.980   6.051  18.307  0.00  0.00    +0.000 A 
ATOM     21  C   UNL     1       5.630   6.932  17.401  0.00  0.00    +0.000 A 
ATOM     22  C   UNL     1       7.015   7.102  17.378  0.00  0.00    +0.000 A 
ATOM     23  C   UNL     1       7.802   6.366  18.246  0.00  0.00    +0.000 A 
ATOM     24  C   UNL     1       7.206   5.349  18.981  0.00  0.00    +0.000 A 
ATOM     25  C   UNL     1       5.841   5.120  18.901  0.00  0.00    +0.000 A 
ATOM     26  N   UNL     1       5.403   3.907  19.216  0.00  0.00    +0.000 NA
ATOM     27  C   UNL     1       4.120   3.667  18.952  0.00  0.00    +0.000 A 
ATOM     28  C   UNL     1       3.736   2.669  18.067  0.00  0.00    +0.000 A 
ATOM     29  C   UNL     1       2.391   2.485  17.736  0.00  0.00    +0.000 A 
ATOM     30  C   UNL     1       1.424   3.157  18.476  0.00  0.00    +0.000 A 
ATOM     31  C   UNL     1       1.831   4.215  19.274  0.00  0.00    +0.000 A 
ATOM     32  C   UNL     1       3.165   4.633  19.130  0.00  0.00    +0.000 A 
ENDBRANCH  17  19
ENDBRANCH   4  17
TORSDOF 7
ENDMDL
MODEL 7
REMARK VINA RESULT:      -9.0      2.016      4.020
REMARK  Name = 
REMARK  7 active torsions:
REMARK  status: ('A' for Active; 'I' for Inactive)
REMARK    1  A    between atoms: N_1  and  C_2
REMARK    2  A    between atoms: C_2  and  C_3
REMARK    3  A    between atoms: C_3  and  S_4
REMARK    4  A    between atoms: S_4  and  N_7
REMARK    5  A    between atoms: N_7  and  C_8
REMARK    6  A    between atoms: C_11  and  N_12
REMARK    7  A    between atoms: N_12  and  C_13
REMARK                            x       y       z     vdW  Elec       q    Type
REMARK                         _______ _______ _______ _____ _____    ______ ____
ROOT
ATOM      1  C   UNL     1       0.258   9.948  19.736  0.00  0.00    +0.000 A 
ATOM      2  C   UNL     1       0.566   9.882  18.384  0.00  0.00    +0.000 A 
ATOM      3  C   UNL     1       1.514   8.955  17.950  0.00  0.00    +0.000 A 
ATOM      4  C   UNL     1       2.140   8.090  18.864  0.00  0.00    +0.000 A 
ATOM      5  C   UNL     1       1.662   8.044  20.170  0.00  0.00    +0.000 A 
ATOM      6  C   UNL     1       0.775   9.015  20.627  0.00  0.00    +0.000 A 
ENDROOT
BRANCH   1   7
ATOM      7  N   UNL     1      -0.534  11.008  20.220  0.00  0.00    +0.000 N 
ATOM      8  H   UNL     1      -1.505  10.822  20.449  0.00  0.00    +0.000 HD
BRANCH   7   9
ATOM      9  S   UNL     1       0.199  12.414  20.740  0.00  0.00    +0.000 S 
ATOM     10  O   UNL     1       0.023  13.401  19.677  0.00  0.00    +0.000 OA
ATOM     11  O   UNL     1       1.506  12.122  21.277  0.00  0.00    +0.000 OA
BRANCH   9  12
ATOM     12  C   UNL     1      -0.853  12.902  22.095  0.00  0.00    +0.000 C 
BRANCH  12  13
ATOM     13  C   UNL     1      -1.477  11.704  22.796  0.00  0.00    +0.000 C 
BRANCH  13  14
ATOM     14  N   UNL     1      -0.457  10.772  23.279  0.00  0.00    +0.000 NA
ATOM     15  H   UNL     1      -0.754   9.815  23.084  0.00  0.00    +0.000 HD
ATOM     16  H   UNL     1      -0.388  10.831  24.297  0.00  0.00    +0.000 HD
ENDBRANCH  13  14
ENDBRANCH  12  13
ENDBRANCH   9  12
ENDBRANCH   7   9
ENDBRANCH   1   7
BRANCH   4  17
ATOM     17  N   UNL     1       3.278   7.368  18.459  0.00  0.00    +0.000 N 
ATOM     18  H   UNL     1       4.081   7.618  19.032  0.00  0.00    +0.000 HD
BRANCH  17  19
ATOM     19  C   UNL     1       3.450   6.037  17.949  0.00  0.00    +0.000 A 
ATOM     20  C   UNL     1       2.728   4.858  18.368  0.00  0.00    +0.000 A 
ATOM     21  C   UNL     1       1.916   4.653  19.516  0.00  0.00    +0.000 A 
ATOM     22  C   UNL     1       1.149   3.501  19.700  0.00  0.00    +0.000 A 
ATOM     23  C   UNL     1       1.197   2.497  18.751  0.00  0.00    +0.000 A 
ATOM     24  C   UNL     1       2.144   2.585  17.739  0.00  0.00    +0.000 A 
ATOM     25  C   UNL     1       2.979   3.689  17.641  0.00  0.00    +0.000 A 
ATOM     26  N   UNL     1       4.130   3.531  17.000  0.00  0.00    +0.000 NA
ATOM     27  C   UNL     1       4.986   4.549  17.084  0.00  0.00    +0.000 A 
ATOM     28  C   UNL     1       6.239   4.398  17.660  0.00  0.00    +0.000 A 
ATOM     29  C   UNL     1       7.091   5.494  17.816  0.00  0.00    +0.000 A 
ATOM     30  C   UNL     1       6.765   6.689  17.183  0.00  0.00    +0.000 A 
ATOM     31  C   UNL     1       5.472   6.844  16.709  0.00  0.00    +0.000 A 
ATOM     32  C   UNL     1       4.547   5.847  17.066  0.00  0.00    +0.000 A 
ENDBRANCH  17  19
ENDBRANCH   4  17
TORSDOF 7
ENDMDL
MODEL 8
REMARK VINA RESULT:      -9.0      1.840      2.366
REMARK  Name = 
REMARK  7 active torsions:
REMARK  status: ('A' for Active; 'I' for Inactive)
REMARK    1  A    between atoms: N_1  and  C_2
REMARK    2  A    between atoms: C_2  and  C_3
REMARK    3  A    between atoms: C_3  and  S_4
REMARK    4  A    between atoms: S_4  and  N_7
REMARK    5  A    between atoms: N_7  and  C_8
REMARK    6  A    between atoms: C_11  and  N_12
REMARK    7  A    between atoms: N_12  and  C_13
REMARK                            x       y       z     vdW  Elec       q    Type
REMARK                         _______ _______ _______ _____ _____    ______ ____
ROOT
ATOM      1  C   UNL     1       0.517   9.742  19.734  0.00  0.00    +0.000 A 
ATOM      2  C   UNL     1       1.224   9.386  18.594  0.00  0.00    +0.000 A 
ATOM      3  C   UNL     1       2.072   8.278  18.641  0.00  0.00    +0.000 A 
ATOM      4  C   UNL     1       2.199   7.524  19.820  0.00  0.00    +0.000 A 
ATOM      5  C   UNL     1       1.328   7.786  20.874  0.00  0.00    +0.000 A 
ATOM      6  C   UNL     1       0.538   8.932  20.863  0.00  0.00    +0.000 A 
ENDROOT
BRANCH   1   7
ATOM      7  N   UNL     1      -0.177  10.967  19.771  0.00  0.00    +0.000 N 
ATOM      8  H   UNL     1      -1.156  10.978  19.506  0.00  0.00    +0.000 HD
BRANCH   7   9
ATOM      9  S   UNL     1       0.493  12.271  20.569  0.00  0.00    +0.000 S 
ATOM     10  O   UNL     1       0.207  13.454  19.761  0.00  0.00    +0.000 OA
ATOM     11  O   UNL     1       1.840  11.959  20.982  0.00  0.00    +0.000 OA
BRANCH   9  12
ATOM     12  C   UNL     1      -0.520  12.371  22.033  0.00  0.00    +0.000 C 
BRANCH  12  13
ATOM     13  C   UNL     1      -0.603  13.792  22.575  0.00  0.00    +0.000 C 
BRANCH  13  14
ATOM     14  N   UNL     1       0.687  14.476  22.488  0.00  0.00    +0.000 NA
ATOM     15  H   UNL     1       1.176  14.391  23.382  0.00  0.00    +0.000 HD
ATOM     16  H   UNL     1       0.540  15.479  22.356  0.00  0.00    +0.000 HD
ENDBRANCH  13  14
ENDBRANCH  12  13
ENDBRANCH   9  12
ENDBRANCH   7   9
ENDBRANCH   1   7
BRANCH   4  17
ATOM     17  N   UNL     1       3.252   6.597  19.933  0.00  0.00    +0.000 N 
ATOM     18  H   UNL     1       3.489   6.445  20.911  0.00  0.00    +0.000 HD
BRANCH  17  19
ATOM     19  C   UNL     1       3.604   5.433  19.169  0.00  0.00    +0.000 A 
ATOM     20  C   UNL     1       4.241   5.420  17.872  0.00  0.00    +0.000 A 
ATOM     21  C   UNL     1       4.416   6.475  16.938  0.00  0.00    +0.000 A 
ATOM     22  C   UNL     1       5.200   6.343  15.790  0.00  0.00    +0.000 A 
ATOM     23  C   UNL     1       5.810   5.131  15.523  0.00  0.00    +0.000 A 
ATOM     24  C   UNL     1       5.475   4.033  16.305  0.00  0.00    +0.000 A 
ATOM     25  C   UNL     1       4.601   4.162  17.374  0.00  0.00    +0.000 A 
ATOM     26  N   UNL     1       3.959   3.072  17.776  0.00  0.00    +0.000 NA
ATOM     27  C   UNL     1       2.995   3.264  18.675  0.00  0.00    +0.000 A 
ATOM     28  C   UNL     1       1.674   2.935  18.405  0.00  0.00    +0.000 A 
ATOM     29  C   UNL     1       0.663   3.221  19.326  0.00  0.00    +0.000 A 
ATOM     30  C   UNL     1       1.023   3.626  20.607  0.00  0.00    +0.000 A 
ATOM     31  C   UNL     1       2.327   4.045  20.817  0.00  0.00    +0.000 A 
ATOM     32  C   UNL     1       3.132   4.192  19.674  0.00  0.00    +0.000 A 
ENDBRANCH  17  19
ENDBRANCH   4  17
TORSDOF 7
ENDMDL
MODEL 9
REMARK VINA RESULT:      -9.0      1.797      2.228
REMARK  Name = 
REMARK  7 active torsions:
REMARK  status: ('A' for Active; 'I' for Inactive)
REMARK    1  A    between atoms: N_1  and  C_2
REMARK    2  A    between atoms: C_2  and  C_3
REMARK    3  A    between atoms: C_3  and  S_4
REMARK    4  A    between atoms: S_4  and  N_7
REMARK    5  A    between atoms: N_7  and  C_8
REMARK    6  A    between atoms: C_11  and  N_12
REMARK    7  A    between atoms: N_12  and  C_13
REMARK                            x       y       z     vdW  Elec       q    Type
REMARK                         _______ _______ _______ _____ _____    ______ ____
ROOT
ATOM      1  C   UNL     1       1.020  10.301  19.370  0.00  0.00    +0.000 A 
ATOM      2  C   UNL     1       1.084   9.321  20.351  0.00  0.00    +0.000 A 
ATOM      3  C   UNL     1       1.636   8.080  20.032  0.00  0.00    +0.000 A 
ATOM      4  C   UNL     1       2.133   7.827  18.742  0.00  0.00    +0.000 A 
ATOM      5  C   UNL     1       2.239   8.890  17.851  0.00  0.00    +0.000 A 
ATOM      6  C   UNL     1       1.622  10.106  18.132  0.00  0.00    +0.000 A 
ENDROOT
BRANCH   1   7
ATOM      7  N   UNL     1       0.284  11.479  19.606  0.00  0.00    +0.000 N 
ATOM      8  H   UNL     1       0.775  12.296  19.954  0.00  0.00    +0.000 HD
BRANCH   7   9
ATOM      9  S   UNL     1      -1.260  11.624  18.990  0.00  0.00    +0.000 S 
ATOM     10  O   UNL     1      -1.734  10.271  18.713  0.00  0.00    +0.000 OA
ATOM     11  O   UNL     1      -1.293  12.648  17.974  0.00  0.00    +0.000 OA
BRANCH   9  12
ATOM     12  C   UNL     1      -2.169  12.225  20.402  0.00  0.00    +0.000 C 
BRANCH  12  13
ATOM     13  C   UNL     1      -3.492  12.863  20.002  0.00  0.00    +0.000 C 
BRANCH  13  14
ATOM     14  N   UNL     1      -4.058  12.225  18.813  0.00  0.00    +0.000 NA
ATOM     15  H   UNL     1      -3.337  12.147  18.094  0.00  0.00    +0.000 HD
ATOM     16  H   UNL     1      -4.779  12.826  18.408  0.00  0.00    +0.000 HD
ENDBRANCH  13  14
ENDBRANCH  12  13
ENDBRANCH   9  12
ENDBRANCH   7   9
ENDBRANCH   1   7
BRANCH   4  17
ATOM     17  N   UNL     1       2.424   6.503  18.365  0.00  0.00    +0.000 N 
ATOM     18  H   UNL     1       2.080   6.317  17.425  0.00  0.00    +0.000 HD
BRANCH  17  19
ATOM     19  C   UNL     1       3.532   5.635  18.649  0.00  0.00    +0.000 A 
ATOM     20  C   UNL     1       4.915   5.870  18.305  0.00  0.00    +0.000 A 
ATOM     21  C   UNL     1       5.477   6.813  17.404  0.00  0.00    +0.000 A 
ATOM     22  C   UNL     1       6.853   7.028  17.300  0.00  0.00    +0.000 A 
ATOM     23  C   UNL     1       7.717   6.278  18.077  0.00  0.00    +0.000 A 
ATOM     24  C   UNL     1       7.200   5.208  18.797  0.00  0.00    +0.000 A 
ATOM     25  C   UNL     1       5.839   4.939  18.795  0.00  0.00    +0.000 A 
ATOM     26  N   UNL     1       5.459   3.700  19.077  0.00  0.00    +0.000 NA
ATOM     27  C   UNL     1       4.169   3.431  18.885  0.00  0.00    +0.000 A 
ATOM     28  C   UNL     1       3.756   2.465  17.978  0.00  0.00    +0.000 A 
ATOM     29  C   UNL     1       2.398   2.254  17.726  0.00  0.00    +0.000 A 
ATOM     30  C   UNL     1       1.463   2.858  18.560  0.00  0.00    +0.000 A 
ATOM     31  C   UNL     1       1.891   3.889  19.382  0.00  0.00    +0.000 A 
ATOM     32  C   UNL     1       3.201   4.356  19.173  0.00  0.00    +0.000 A 
ENDBRANCH  17  19
ENDBRANCH   4  17
TORSDOF 7
ENDMDL
