MODEL 1
REMARK VINA RESULT:      -7.4      0.000      0.000
REMARK  Name = 
REMARK  5 active torsions:
REMARK  status: ('A' for Active; 'I' for Inactive)
REMARK    1  A    between atoms: N_6  and  C_7
REMARK    2  A    between atoms: C_10  and  N_11
REMARK    3  A    between atoms: N_11  and  C_12
REMARK    4  A    between atoms: N_15  and  C_16
REMARK    5  A    between atoms: C_16  and  C_17
REMARK                            x       y       z     vdW  Elec       q    Type
REMARK                         _______ _______ _______ _____ _____    ______ ____
ROOT
ATOM      1  C   UNL     1       5.861   4.823  15.083  0.00  0.00    +0.000 A 
ATOM      2  C   UNL     1       5.489   6.149  15.317  0.00  0.00    +0.000 A 
ATOM      3  C   UNL     1       4.877   6.534  16.525  0.00  0.00    +0.000 A 
ATOM      4  C   UNL     1       4.613   5.614  17.547  0.00  0.00    +0.000 A 
ATOM      5  C   UNL     1       5.078   4.312  17.348  0.00  0.00    +0.000 A 
ATOM      6  C   UNL     1       5.670   3.918  16.137  0.00  0.00    +0.000 A 
ENDROOT
BRANCH   1  12
ATOM      7  O   UNL     1       8.292   5.746  13.539  0.00  0.00    +0.000 OA
ATOM      8  C   UNL     1       7.477   4.923  13.152  0.00  0.00    +0.000 C 
ATOM      9  C   UNL     1       7.489   4.338  11.759  0.00  0.00    +0.000 C 
ATOM     10  C   UNL     1       6.596   3.119  11.874  0.00  0.00    +0.000 C 
ATOM     11  C   UNL     1       5.626   3.496  12.971  0.00  0.00    +0.000 C 
ATOM     12  N   UNL     1       6.373   4.378  13.836  0.00  0.00    +0.000 N 
ENDBRANCH   1  12
BRANCH   4  13
ATOM     13  N   UNL     1       4.014   6.046  18.735  0.00  0.00    +0.000 N 
ATOM     14  H   UNL     1       4.639   6.609  19.305  0.00  0.00    +0.000 HD
BRANCH  13  15
ATOM     15  C   UNL     1       2.607   6.484  18.774  0.00  0.00    +0.000 C 
ATOM     16  C   UNL     1       2.068   6.614  20.197  0.00  0.00    +0.000 C 
ATOM     17  C   UNL     1       1.861   5.261  20.870  0.00  0.00    +0.000 C 
ATOM     18  N   UNL     1       1.031   4.316  20.099  0.00  0.00    +0.000 NA
ATOM     19  C   UNL     1       1.452   4.201  18.695  0.00  0.00    +0.000 C 
ATOM     20  C   UNL     1       1.710   5.529  17.986  0.00  0.00    +0.000 C 
BRANCH  18  21
ATOM     21  C   UNL     1       1.097   2.984  20.777  0.00  0.00    +0.000 C 
BRANCH  21  22
ATOM     22  C   UNL     1       2.339   2.636  21.615  0.00  0.00    +0.000 C 
ATOM     23  F   UNL     1       2.132   1.507  22.339  0.00  0.00    +0.000 F 
ATOM     24  F   UNL     1       3.368   2.352  20.772  0.00  0.00    +0.000 F 
ENDBRANCH  21  22
ENDBRANCH  18  21
ENDBRANCH  13  15
ENDBRANCH   4  13
TORSDOF 5
ENDMDL
MODEL 2
REMARK VINA RESULT:      -7.3      1.185      1.427
REMARK  Name = 
REMARK  5 active torsions:
REMARK  status: ('A' for Active; 'I' for Inactive)
REMARK    1  A    between atoms: N_6  and  C_7
REMARK    2  A    between atoms: C_10  and  N_11
REMARK    3  A    between atoms: N_11  and  C_12
REMARK    4  A    between atoms: N_15  and  C_16
REMARK    5  A    between atoms: C_16  and  C_17
REMARK                            x       y       z     vdW  Elec       q    Type
REMARK                         _______ _______ _______ _____ _____    ______ ____
ROOT
ATOM      1  C   UNL     1       5.897   4.881  15.243  0.00  0.00    +0.000 A 
ATOM      2  C   UNL     1       5.333   6.142  15.454  0.00  0.00    +0.000 A 
ATOM      3  C   UNL     1       4.768   6.489  16.696  0.00  0.00    +0.000 A 
ATOM      4  C   UNL     1       4.745   5.597  17.775  0.00  0.00    +0.000 A 
ATOM      5  C   UNL     1       5.401   4.378  17.588  0.00  0.00    +0.000 A 
ATOM      6  C   UNL     1       5.947   4.017  16.346  0.00  0.00    +0.000 A 
ENDROOT
BRANCH   1  12
ATOM      7  O   UNL     1       8.332   5.763  13.679  0.00  0.00    +0.000 OA
ATOM      8  C   UNL     1       7.480   4.982  13.284  0.00  0.00    +0.000 C 
ATOM      9  C   UNL     1       7.446   4.439  11.875  0.00  0.00    +0.000 C 
ATOM     10  C   UNL     1       6.512   3.249  11.972  0.00  0.00    +0.000 C 
ATOM     11  C   UNL     1       5.577   3.627  13.097  0.00  0.00    +0.000 C 
ATOM     12  N   UNL     1       6.370   4.456  13.974  0.00  0.00    +0.000 N 
ENDBRANCH   1  12
BRANCH   4  13
ATOM     13  N   UNL     1       4.184   5.993  18.993  0.00  0.00    +0.000 N 
ATOM     14  H   UNL     1       4.746   6.691  19.474  0.00  0.00    +0.000 HD
BRANCH  13  15
ATOM     15  C   UNL     1       2.730   6.181  19.148  0.00  0.00    +0.000 C 
ATOM     16  C   UNL     1       2.195   5.600  20.454  0.00  0.00    +0.000 C 
ATOM     17  C   UNL     1       2.186   4.074  20.455  0.00  0.00    +0.000 C 
ATOM     18  N   UNL     1       1.487   3.467  19.306  0.00  0.00    +0.000 NA
ATOM     19  C   UNL     1       1.904   4.038  18.018  0.00  0.00    +0.000 C 
ATOM     20  C   UNL     1       1.967   5.564  17.976  0.00  0.00    +0.000 C 
BRANCH  18  21
ATOM     21  C   UNL     1       1.746   1.994  19.334  0.00  0.00    +0.000 C 
BRANCH  21  22
ATOM     22  C   UNL     1       3.079   1.461  18.782  0.00  0.00    +0.000 C 
ATOM     23  F   UNL     1       3.238   1.811  17.481  0.00  0.00    +0.000 F 
ATOM     24  F   UNL     1       4.099   2.061  19.454  0.00  0.00    +0.000 F 
ENDBRANCH  21  22
ENDBRANCH  18  21
ENDBRANCH  13  15
ENDBRANCH   4  13
TORSDOF 5
ENDMDL
MODEL 3
REMARK VINA RESULT:      -7.2      1.140      1.717
REMARK  Name = 
REMARK  5 active torsions:
REMARK  status: ('A' for Active; 'I' for Inactive)
REMARK    1  A    between atoms: N_6  and  C_7
REMARK    2  A    between atoms: C_10  and  N_11
REMARK    3  A    between atoms: N_11  and  C_12
REMARK    4  A    between atoms: N_15  and  C_16
REMARK    5  A    between atoms: C_16  and  C_17
REMARK                            x       y       z     vdW  Elec       q    Type
REMARK                         _______ _______ _______ _____ _____    ______ ____
ROOT
ATOM      1  C   UNL     1       5.652   4.703  15.286  0.00  0.00    +0.000 A 
ATOM      2  C   UNL     1       5.469   3.760  16.301  0.00  0.00    +0.000 A 
ATOM      3  C   UNL     1       5.005   4.141  17.575  0.00  0.00    +0.000 A 
ATOM      4  C   UNL     1       4.704   5.472  17.886  0.00  0.00    +0.000 A 
ATOM      5  C   UNL     1       4.792   6.391  16.838  0.00  0.00    +0.000 A 
ATOM      6  C   UNL     1       5.275   6.022  15.572  0.00  0.00    +0.000 A 
ENDROOT
BRANCH   1  12
ATOM      7  O   UNL     1       8.206   5.687  13.998  0.00  0.00    +0.000 OA
ATOM      8  C   UNL     1       7.389   4.945  13.476  0.00  0.00    +0.000 C 
ATOM      9  C   UNL     1       7.469   4.513  12.030  0.00  0.00    +0.000 C 
ATOM     10  C   UNL     1       6.530   3.326  11.958  0.00  0.00    +0.000 C 
ATOM     11  C   UNL     1       5.506   3.622  13.030  0.00  0.00    +0.000 C 
ATOM     12  N   UNL     1       6.226   4.375  14.030  0.00  0.00    +0.000 N 
ENDBRANCH   1  12
BRANCH   4  13
ATOM     13  N   UNL     1       4.233   5.799  19.162  0.00  0.00    +0.000 N 
ATOM     14  H   UNL     1       4.926   6.289  19.721  0.00  0.00    +0.000 HD
BRANCH  13  15
ATOM     15  C   UNL     1       2.850   6.263  19.377  0.00  0.00    +0.000 C 
ATOM     16  C   UNL     1       2.218   5.670  20.634  0.00  0.00    +0.000 C 
ATOM     17  C   UNL     1       1.895   4.186  20.482  0.00  0.00    +0.000 C 
ATOM     18  N   UNL     1       1.076   3.857  19.300  0.00  0.00    +0.000 NA
ATOM     19  C   UNL     1       1.591   4.463  18.063  0.00  0.00    +0.000 C 
ATOM     20  C   UNL     1       1.966   5.940  18.173  0.00  0.00    +0.000 C 
BRANCH  18  21
ATOM     21  C   UNL     1       1.027   2.368  19.172  0.00  0.00    +0.000 C 
BRANCH  21  22
ATOM     22  C   UNL     1       2.287   1.618  18.708  0.00  0.00    +0.000 C 
ATOM     23  F   UNL     1       2.540   1.863  17.398  0.00  0.00    +0.000 F 
ATOM     24  F   UNL     1       3.359   2.104  19.391  0.00  0.00    +0.000 F 
ENDBRANCH  21  22
ENDBRANCH  18  21
ENDBRANCH  13  15
ENDBRANCH   4  13
TORSDOF 5
ENDMDL
MODEL 4
REMARK VINA RESULT:      -7.1      4.806      8.652
REMARK  Name = 
REMARK  5 active torsions:
REMARK  status: ('A' for Active; 'I' for Inactive)
REMARK    1  A    between atoms: N_6  and  C_7
REMARK    2  A    between atoms: C_10  and  N_11
REMARK    3  A    between atoms: N_11  and  C_12
REMARK    4  A    between atoms: N_15  and  C_16
REMARK    5  A    between atoms: C_16  and  C_17
REMARK                            x       y       z     vdW  Elec       q    Type
REMARK                         _______ _______ _______ _____ _____    ______ ____
ROOT
ATOM      1  C   UNL     1       0.790   9.415  20.140  0.00  0.00    +0.000 A 
ATOM      2  C   UNL     1       1.125   9.589  18.795  0.00  0.00    +0.000 A 
ATOM      3  C   UNL     1       1.959   8.672  18.126  0.00  0.00    +0.000 A 
ATOM      4  C   UNL     1       2.489   7.547  18.769  0.00  0.00    +0.000 A 
ATOM      5  C   UNL     1       2.068   7.326  20.083  0.00  0.00    +0.000 A 
ATOM      6  C   UNL     1       1.254   8.248  20.762  0.00  0.00    +0.000 A 
ENDROOT
BRANCH   1  12
ATOM      7  O   UNL     1       0.632   9.881  23.124  0.00  0.00    +0.000 OA
ATOM      8  C   UNL     1      -0.023  10.471  22.279  0.00  0.00    +0.000 C 
ATOM      9  C   UNL     1      -1.129  11.441  22.619  0.00  0.00    +0.000 C 
ATOM     10  C   UNL     1      -1.353  12.198  21.325  0.00  0.00    +0.000 C 
ATOM     11  C   UNL     1      -0.969  11.196  20.260  0.00  0.00    +0.000 C 
ATOM     12  N   UNL     1       0.049  10.377  20.875  0.00  0.00    +0.000 N 
ENDBRANCH   1  12
BRANCH   4  13
ATOM     13  N   UNL     1       3.302   6.658  18.060  0.00  0.00    +0.000 N 
ATOM     14  H   UNL     1       4.085   7.120  17.606  0.00  0.00    +0.000 HD
BRANCH  13  15
ATOM     15  C   UNL     1       3.617   5.316  18.584  0.00  0.00    +0.000 C 
ATOM     16  C   UNL     1       5.015   5.234  19.193  0.00  0.00    +0.000 C 
ATOM     17  C   UNL     1       6.117   5.285  18.139  0.00  0.00    +0.000 C 
ATOM     18  N   UNL     1       5.976   4.290  17.059  0.00  0.00    +0.000 NA
ATOM     19  C   UNL     1       4.625   4.266  16.479  0.00  0.00    +0.000 C 
ATOM     20  C   UNL     1       3.485   4.253  17.494  0.00  0.00    +0.000 C 
BRANCH  18  21
ATOM     21  C   UNL     1       6.993   4.602  16.008  0.00  0.00    +0.000 C 
BRANCH  21  22
ATOM     22  C   UNL     1       6.544   4.684  14.539  0.00  0.00    +0.000 C 
ATOM     23  F   UNL     1       7.486   5.299  13.780  0.00  0.00    +0.000 F 
ATOM     24  F   UNL     1       6.436   3.421  14.045  0.00  0.00    +0.000 F 
ENDBRANCH  21  22
ENDBRANCH  18  21
ENDBRANCH  13  15
ENDBRANCH   4  13
TORSDOF 5
ENDMDL
MODEL 5
REMARK VINA RESULT:      -7.1      4.567      8.543
REMARK  Name = 
REMARK  5 active torsions:
REMARK  status: ('A' for Active; 'I' for Inactive)
REMARK    1  A    between atoms: N_6  and  C_7
REMARK    2  A    between atoms: C_10  and  N_11
REMARK    3  A    between atoms: N_11  and  C_12
REMARK    4  A    between atoms: N_15  and  C_16
REMARK    5  A    between atoms: C_16  and  C_17
REMARK                            x       y       z     vdW  Elec       q    Type
REMARK                         _______ _______ _______ _____ _____    ______ ____
ROOT
ATOM      1  C   UNL     1       1.171   9.073  19.828  0.00  0.00    +0.000 A 
ATOM      2  C   UNL     1       1.522   9.387  18.512  0.00  0.00    +0.000 A 
ATOM      3  C   UNL     1       2.361   8.544  17.759  0.00  0.00    +0.000 A 
ATOM      4  C   UNL     1       2.883   7.356  18.285  0.00  0.00    +0.000 A 
ATOM      5  C   UNL     1       2.446   6.998  19.564  0.00  0.00    +0.000 A 
ATOM      6  C   UNL     1       1.627   7.845  20.327  0.00  0.00    +0.000 A 
ENDROOT
BRANCH   1  12
ATOM      7  O   UNL     1       1.330   9.545  22.811  0.00  0.00    +0.000 OA
ATOM      8  C   UNL     1       0.515  10.051  22.056  0.00  0.00    +0.000 C 
ATOM      9  C   UNL     1      -0.643  10.895  22.533  0.00  0.00    +0.000 C 
ATOM     10  C   UNL     1      -1.106  11.611  21.280  0.00  0.00    +0.000 C 
ATOM     11  C   UNL     1      -0.747  10.648  20.172  0.00  0.00    +0.000 C 
ATOM     12  N   UNL     1       0.424   9.953  20.653  0.00  0.00    +0.000 N 
ENDBRANCH   1  12
BRANCH   4  13
ATOM     13  N   UNL     1       3.702   6.545  17.494  0.00  0.00    +0.000 N 
ATOM     14  H   UNL     1       4.081   7.037  16.690  0.00  0.00    +0.000 HD
BRANCH  13  15
ATOM     15  C   UNL     1       4.630   5.569  18.094  0.00  0.00    +0.000 C 
ATOM     16  C   UNL     1       6.093   5.983  17.957  0.00  0.00    +0.000 C 
ATOM     17  C   UNL     1       6.602   5.868  16.523  0.00  0.00    +0.000 C 
ATOM     18  N   UNL     1       6.392   4.545  15.905  0.00  0.00    +0.000 NA
ATOM     19  C   UNL     1       5.016   4.052  16.068  0.00  0.00    +0.000 C 
ATOM     20  C   UNL     1       4.445   4.182  17.479  0.00  0.00    +0.000 C 
BRANCH  18  21
ATOM     21  C   UNL     1       6.741   4.652  14.455  0.00  0.00    +0.000 C 
BRANCH  21  22
ATOM     22  C   UNL     1       6.162   3.621  13.471  0.00  0.00    +0.000 C 
ATOM     23  F   UNL     1       4.932   3.999  13.043  0.00  0.00    +0.000 F 
ATOM     24  F   UNL     1       6.948   3.590  12.360  0.00  0.00    +0.000 F 
ENDBRANCH  21  22
ENDBRANCH  18  21
ENDBRANCH  13  15
ENDBRANCH   4  13
TORSDOF 5
ENDMDL
MODEL 6
REMARK VINA RESULT:      -7.1      4.100      7.123
REMARK  Name = 
REMARK  5 active torsions:
REMARK  status: ('A' for Active; 'I' for Inactive)
REMARK    1  A    between atoms: N_6  and  C_7
REMARK    2  A    between atoms: C_10  and  N_11
REMARK    3  A    between atoms: N_11  and  C_12
REMARK    4  A    between atoms: N_15  and  C_16
REMARK    5  A    between atoms: C_16  and  C_17
REMARK                            x       y       z     vdW  Elec       q    Type
REMARK                         _______ _______ _______ _____ _____    ______ ____
ROOT
ATOM      1  C   UNL     1       1.055   9.641  18.963  0.00  0.00    +0.000 A 
ATOM      2  C   UNL     1       1.179   8.772  20.050  0.00  0.00    +0.000 A 
ATOM      3  C   UNL     1       1.996   7.627  19.980  0.00  0.00    +0.000 A 
ATOM      4  C   UNL     1       2.722   7.304  18.827  0.00  0.00    +0.000 A 
ATOM      5  C   UNL     1       2.673   8.231  17.782  0.00  0.00    +0.000 A 
ATOM      6  C   UNL     1       1.843   9.362  17.838  0.00  0.00    +0.000 A 
ENDROOT
BRANCH   1  12
ATOM      7  O   UNL     1       1.552  12.569  19.536  0.00  0.00    +0.000 OA
ATOM      8  C   UNL     1       0.462  12.065  19.314  0.00  0.00    +0.000 C 
ATOM      9  C   UNL     1      -0.840  12.823  19.433  0.00  0.00    +0.000 C 
ATOM     10  C   UNL     1      -1.832  11.950  18.691  0.00  0.00    +0.000 C 
ATOM     11  C   UNL     1      -1.276  10.556  18.870  0.00  0.00    +0.000 C 
ATOM     12  N   UNL     1       0.154  10.738  18.957  0.00  0.00    +0.000 N 
ENDBRANCH   1  12
BRANCH   4  13
ATOM     13  N   UNL     1       3.530   6.164  18.810  0.00  0.00    +0.000 N 
ATOM     14  H   UNL     1       3.689   5.783  19.739  0.00  0.00    +0.000 HD
BRANCH  13  15
ATOM     15  C   UNL     1       3.398   5.141  17.756  0.00  0.00    +0.000 C 
ATOM     16  C   UNL     1       1.950   4.718  17.522  0.00  0.00    +0.000 C 
ATOM     17  C   UNL     1       1.393   3.877  18.667  0.00  0.00    +0.000 C 
ATOM     18  N   UNL     1       2.214   2.702  19.016  0.00  0.00    +0.000 NA
ATOM     19  C   UNL     1       3.637   3.029  19.182  0.00  0.00    +0.000 C 
ATOM     20  C   UNL     1       4.233   3.903  18.080  0.00  0.00    +0.000 C 
BRANCH  18  21
ATOM     21  C   UNL     1       1.662   2.111  20.274  0.00  0.00    +0.000 C 
BRANCH  21  22
ATOM     22  C   UNL     1       1.938   2.817  21.613  0.00  0.00    +0.000 C 
ATOM     23  F   UNL     1       1.814   4.162  21.483  0.00  0.00    +0.000 F 
ATOM     24  F   UNL     1       0.984   2.442  22.508  0.00  0.00    +0.000 F 
ENDBRANCH  21  22
ENDBRANCH  18  21
ENDBRANCH  13  15
ENDBRANCH   4  13
TORSDOF 5
ENDMDL
MODEL 7
REMARK VINA RESULT:      -7.1      4.038      7.161
REMARK  Name = 
REMARK  5 active torsions:
REMARK  status: ('A' for Active; 'I' for Inactive)
REMARK    1  A    between atoms: N_6  and  C_7
REMARK    2  A    between atoms: C_10  and  N_11
REMARK    3  A    between atoms: N_11  and  C_12
REMARK    4  A    between atoms: N_15  and  C_16
REMARK    5  A    between atoms: C_16  and  C_17
REMARK                            x       y       z     vdW  Elec       q    Type
REMARK                         _______ _______ _______ _____ _____    ______ ____
ROOT
ATOM      1  C   UNL     1       1.040   9.684  19.090  0.00  0.00    +0.000 A 
ATOM      2  C   UNL     1       1.714   9.436  17.892  0.00  0.00    +0.000 A 
ATOM      3  C   UNL     1       2.539   8.305  17.740  0.00  0.00    +0.000 A 
ATOM      4  C   UNL     1       2.723   7.378  18.773  0.00  0.00    +0.000 A 
ATOM      5  C   UNL     1       1.967   7.579  19.931  0.00  0.00    +0.000 A 
ATOM      6  C   UNL     1       1.160   8.715  20.096  0.00  0.00    +0.000 A 
ENDROOT
BRANCH   1  12
ATOM      7  O   UNL     1       1.966  12.423  19.978  0.00  0.00    +0.000 OA
ATOM      8  C   UNL     1       0.804  12.088  19.809  0.00  0.00    +0.000 C 
ATOM      9  C   UNL     1      -0.371  12.971  20.158  0.00  0.00    +0.000 C 
ATOM     10  C   UNL     1      -1.531  12.335  19.419  0.00  0.00    +0.000 C 
ATOM     11  C   UNL     1      -1.150  10.873  19.358  0.00  0.00    +0.000 C 
ATOM     12  N   UNL     1       0.294  10.870  19.319  0.00  0.00    +0.000 N 
ENDBRANCH   1  12
BRANCH   4  13
ATOM     13  N   UNL     1       3.543   6.263  18.570  0.00  0.00    +0.000 N 
ATOM     14  H   UNL     1       3.939   5.906  19.435  0.00  0.00    +0.000 HD
BRANCH  13  15
ATOM     15  C   UNL     1       3.191   5.217  17.592  0.00  0.00    +0.000 C 
ATOM     16  C   UNL     1       1.746   4.744  17.727  0.00  0.00    +0.000 C 
ATOM     17  C   UNL     1       1.519   3.909  18.984  0.00  0.00    +0.000 C 
ATOM     18  N   UNL     1       2.441   2.767  19.134  0.00  0.00    +0.000 NA
ATOM     19  C   UNL     1       3.849   3.142  18.939  0.00  0.00    +0.000 C 
ATOM     20  C   UNL     1       4.124   4.012  17.715  0.00  0.00    +0.000 C 
BRANCH  18  21
ATOM     21  C   UNL     1       2.237   2.184  20.496  0.00  0.00    +0.000 C 
BRANCH  21  22
ATOM     22  C   UNL     1       1.488   3.010  21.556  0.00  0.00    +0.000 C 
ATOM     23  F   UNL     1       1.001   2.209  22.536  0.00  0.00    +0.000 F 
ATOM     24  F   UNL     1       2.374   3.844  22.164  0.00  0.00    +0.000 F 
ENDBRANCH  21  22
ENDBRANCH  18  21
ENDBRANCH  13  15
ENDBRANCH   4  13
TORSDOF 5
ENDMDL
MODEL 8
REMARK VINA RESULT:      -7.0      4.594      7.770
REMARK  Name = 
REMARK  5 active torsions:
REMARK  status: ('A' for Active; 'I' for Inactive)
REMARK    1  A    between atoms: N_6  and  C_7
REMARK    2  A    between atoms: C_10  and  N_11
REMARK    3  A    between atoms: N_11  and  C_12
REMARK    4  A    between atoms: N_15  and  C_16
REMARK    5  A    between atoms: C_16  and  C_17
REMARK                            x       y       z     vdW  Elec       q    Type
REMARK                         _______ _______ _______ _____ _____    ______ ____
ROOT
ATOM      1  C   UNL     1       0.806   9.643  19.130  0.00  0.00    +0.000 A 
ATOM      2  C   UNL     1       0.814   9.028  20.385  0.00  0.00    +0.000 A 
ATOM      3  C   UNL     1       1.578   7.870  20.625  0.00  0.00    +0.000 A 
ATOM      4  C   UNL     1       2.364   7.280  19.628  0.00  0.00    +0.000 A 
ATOM      5  C   UNL     1       2.430   7.958  18.407  0.00  0.00    +0.000 A 
ATOM      6  C   UNL     1       1.654   9.100  18.154  0.00  0.00    +0.000 A 
ENDROOT
BRANCH   1  12
ATOM      7  O   UNL     1       1.087  12.572  19.827  0.00  0.00    +0.000 OA
ATOM      8  C   UNL     1       0.134  12.068  19.254  0.00  0.00    +0.000 C 
ATOM      9  C   UNL     1      -1.131  12.827  18.928  0.00  0.00    +0.000 C 
ATOM     10  C   UNL     1      -1.819  11.952  17.900  0.00  0.00    +0.000 C 
ATOM     11  C   UNL     1      -1.357  10.558  18.258  0.00  0.00    +0.000 C 
ATOM     12  N   UNL     1      -0.039  10.740  18.819  0.00  0.00    +0.000 N 
ENDBRANCH   1  12
BRANCH   4  13
ATOM     13  N   UNL     1       3.116   6.138  19.918  0.00  0.00    +0.000 N 
ATOM     14  H   UNL     1       3.467   6.133  20.872  0.00  0.00    +0.000 HD
BRANCH  13  15
ATOM     15  C   UNL     1       2.723   4.809  19.415  0.00  0.00    +0.000 C 
ATOM     16  C   UNL     1       3.733   3.720  19.773  0.00  0.00    +0.000 C 
ATOM     17  C   UNL     1       5.031   3.843  18.981  0.00  0.00    +0.000 C 
ATOM     18  N   UNL     1       4.851   3.904  17.518  0.00  0.00    +0.000 NA
ATOM     19  C   UNL     1       3.833   4.884  17.110  0.00  0.00    +0.000 C 
ATOM     20  C   UNL     1       2.527   4.828  17.900  0.00  0.00    +0.000 C 
BRANCH  18  21
ATOM     21  C   UNL     1       6.173   4.236  16.903  0.00  0.00    +0.000 C 
BRANCH  21  22
ATOM     22  C   UNL     1       7.256   4.896  17.774  0.00  0.00    +0.000 C 
ATOM     23  F   UNL     1       8.383   4.140  17.798  0.00  0.00    +0.000 F 
ATOM     24  F   UNL     1       7.613   6.078  17.203  0.00  0.00    +0.000 F 
ENDBRANCH  21  22
ENDBRANCH  18  21
ENDBRANCH  13  15
ENDBRANCH   4  13
TORSDOF 5
ENDMDL
MODEL 9
REMARK VINA RESULT:      -6.9      4.546      8.447
REMARK  Name = 
REMARK  5 active torsions:
REMARK  status: ('A' for Active; 'I' for Inactive)
REMARK    1  A    between atoms: N_6  and  C_7
REMARK    2  A    between atoms: C_10  and  N_11
REMARK    3  A    between atoms: N_11  and  C_12
REMARK    4  A    between atoms: N_15  and  C_16
REMARK    5  A    between atoms: C_16  and  C_17
REMARK                            x       y       z     vdW  Elec       q    Type
REMARK                         _______ _______ _______ _____ _____    ______ ____
ROOT
ATOM      1  C   UNL     1       1.235   9.145  19.574  0.00  0.00    +0.000 A 
ATOM      2  C   UNL     1       1.637   8.001  20.268  0.00  0.00    +0.000 A 
ATOM      3  C   UNL     1       2.329   6.960  19.620  0.00  0.00    +0.000 A 
ATOM      4  C   UNL     1       2.648   7.017  18.258  0.00  0.00    +0.000 A 
ATOM      5  C   UNL     1       2.333   8.207  17.596  0.00  0.00    +0.000 A 
ATOM      6  C   UNL     1       1.624   9.239  18.231  0.00  0.00    +0.000 A 
ENDROOT
BRANCH   1  12
ATOM      7  O   UNL     1      -1.526  10.130  18.829  0.00  0.00    +0.000 OA
ATOM      8  C   UNL     1      -0.814  10.606  19.700  0.00  0.00    +0.000 C 
ATOM      9  C   UNL     1      -1.161  11.869  20.453  0.00  0.00    +0.000 C 
ATOM     10  C   UNL     1      -0.240  11.834  21.656  0.00  0.00    +0.000 C 
ATOM     11  C   UNL     1       0.964  11.070  21.154  0.00  0.00    +0.000 C 
ATOM     12  N   UNL     1       0.438  10.159  20.165  0.00  0.00    +0.000 N 
ENDBRANCH   1  12
BRANCH   4  13
ATOM     13  N   UNL     1       3.347   5.964  17.662  0.00  0.00    +0.000 N 
ATOM     14  H   UNL     1       3.363   6.029  16.648  0.00  0.00    +0.000 HD
BRANCH  13  15
ATOM     15  C   UNL     1       4.591   5.434  18.250  0.00  0.00    +0.000 C 
ATOM     16  C   UNL     1       5.810   6.298  17.932  0.00  0.00    +0.000 C 
ATOM     17  C   UNL     1       6.235   6.193  16.471  0.00  0.00    +0.000 C 
ATOM     18  N   UNL     1       6.456   4.814  15.996  0.00  0.00    +0.000 NA
ATOM     19  C   UNL     1       5.348   3.910  16.338  0.00  0.00    +0.000 C 
ATOM     20  C   UNL     1       4.858   4.004  17.781  0.00  0.00    +0.000 C 
BRANCH  18  21
ATOM     21  C   UNL     1       6.654   4.862  14.514  0.00  0.00    +0.000 C 
BRANCH  21  22
ATOM     22  C   UNL     1       6.086   3.725  13.649  0.00  0.00    +0.000 C 
ATOM     23  F   UNL     1       4.832   4.022  13.223  0.00  0.00    +0.000 F 
ATOM     24  F   UNL     1       6.843   3.613  12.524  0.00  0.00    +0.000 F 
ENDBRANCH  21  22
ENDBRANCH  18  21
ENDBRANCH  13  15
ENDBRANCH   4  13
TORSDOF 5
ENDMDL
