MODEL 1
REMARK VINA RESULT:      -6.5      0.000      0.000
REMARK  Name = 
REMARK  4 active torsions:
REMARK  status: ('A' for Active; 'I' for Inactive)
REMARK    1  A    between atoms: C_1  and  C_2
REMARK    2  A    between atoms: C_4  and  N_5
REMARK    3  A    between atoms: C_16  and  C_17
REMARK    4  A    between atoms: C_19  and  N_20
REMARK                            x       y       z     vdW  Elec       q    Type
REMARK                         _______ _______ _______ _____ _____    ______ ____
ROOT
ATOM      1  C   UNL     1       1.700   8.877  17.630  0.00  0.00    +0.000 C 
ATOM      2  C   UNL     1       2.301   7.529  17.873  0.00  0.00    +0.000 A 
ATOM      3  C   UNL     1       1.550   6.346  17.801  0.00  0.00    +0.000 A 
ATOM      4  C   UNL     1       2.134   5.081  18.034  0.00  0.00    +0.000 A 
ATOM      5  C   UNL     1       3.499   4.992  18.392  0.00  0.00    +0.000 A 
ATOM      6  C   UNL     1       4.248   6.198  18.427  0.00  0.00    +0.000 A 
ATOM      7  C   UNL     1       3.650   7.442  18.189  0.00  0.00    +0.000 A 
ATOM      8  C   UNL     1       5.734   6.168  18.670  0.00  0.00    +0.000 C 
ATOM      9  N   UNL     1       6.265   4.832  18.364  0.00  0.00    +0.000 N 
ATOM     10  C   UNL     1       5.495   3.892  19.189  0.00  0.00    +0.000 C 
ATOM     11  N   UNL     1       4.152   3.724  18.629  0.00  0.00    +0.000 N 
ATOM     12  C   UNL     1       4.315   2.913  17.412  0.00  0.00    +0.000 C 
ATOM     13  C   UNL     1       5.285   3.571  16.466  0.00  0.00    +0.000 A 
ATOM     14  C   UNL     1       5.177   3.285  15.099  0.00  0.00    +0.000 A 
ATOM     15  C   UNL     1       5.873   4.044  14.165  0.00  0.00    +0.000 A 
ATOM     16  C   UNL     1       5.660   3.832  12.697  0.00  0.00    +0.000 C 
ATOM     17  C   UNL     1       6.721   5.059  14.623  0.00  0.00    +0.000 A 
ATOM     18  C   UNL     1       6.949   5.270  15.996  0.00  0.00    +0.000 A 
ATOM     19  C   UNL     1       6.194   4.543  16.951  0.00  0.00    +0.000 A 
ENDROOT
BRANCH   4  20
ATOM     20  N   UNL     1       1.274   3.967  18.100  0.00  0.00    +0.000 N 
ATOM     21  H   UNL     1       1.676   3.177  18.598  0.00  0.00    +0.000 HD
ATOM     22  H   UNL     1       0.349   4.225  18.414  0.00  0.00    +0.000 HD
ENDBRANCH   4  20
BRANCH  18  23
ATOM     23  N   UNL     1       7.750   6.369  16.376  0.00  0.00    +0.000 N 
ATOM     24  H   UNL     1       8.744   6.183  16.339  0.00  0.00    +0.000 HD
ATOM     25  H   UNL     1       7.438   6.719  17.280  0.00  0.00    +0.000 HD
ENDBRANCH  18  23
TORSDOF 2
ENDMDL
MODEL 2
REMARK VINA RESULT:      -6.2      0.653      5.274
REMARK  Name = 
REMARK  4 active torsions:
REMARK  status: ('A' for Active; 'I' for Inactive)
REMARK    1  A    between atoms: C_1  and  C_2
REMARK    2  A    between atoms: C_4  and  N_5
REMARK    3  A    between atoms: C_16  and  C_17
REMARK    4  A    between atoms: C_19  and  N_20
REMARK                            x       y       z     vdW  Elec       q    Type
REMARK                         _______ _______ _______ _____ _____    ______ ____
ROOT
ATOM      1  C   UNL     1       6.164   3.946  13.167  0.00  0.00    +0.000 C 
ATOM      2  C   UNL     1       6.095   4.097  14.653  0.00  0.00    +0.000 A 
ATOM      3  C   UNL     1       6.992   4.902  15.371  0.00  0.00    +0.000 A 
ATOM      4  C   UNL     1       6.913   5.032  16.775  0.00  0.00    +0.000 A 
ATOM      5  C   UNL     1       5.935   4.306  17.494  0.00  0.00    +0.000 A 
ATOM      6  C   UNL     1       5.016   3.524  16.745  0.00  0.00    +0.000 A 
ATOM      7  C   UNL     1       5.111   3.411  15.353  0.00  0.00    +0.000 A 
ATOM      8  C   UNL     1       3.869   2.829  17.430  0.00  0.00    +0.000 C 
ATOM      9  N   UNL     1       3.603   3.463  18.729  0.00  0.00    +0.000 N 
ATOM     10  C   UNL     1       4.870   3.414  19.470  0.00  0.00    +0.000 C 
ATOM     11  N   UNL     1       5.798   4.411  18.930  0.00  0.00    +0.000 N 
ATOM     12  C   UNL     1       5.298   5.721  19.376  0.00  0.00    +0.000 C 
ATOM     13  C   UNL     1       3.873   5.920  18.930  0.00  0.00    +0.000 A 
ATOM     14  C   UNL     1       3.406   7.232  18.768  0.00  0.00    +0.000 A 
ATOM     15  C   UNL     1       2.196   7.471  18.126  0.00  0.00    +0.000 A 
ATOM     16  C   UNL     1       1.753   8.871  17.830  0.00  0.00    +0.000 C 
ATOM     17  C   UNL     1       1.434   6.378  17.699  0.00  0.00    +0.000 A 
ATOM     18  C   UNL     1       1.821   5.052  17.977  0.00  0.00    +0.000 A 
ATOM     19  C   UNL     1       3.083   4.801  18.571  0.00  0.00    +0.000 A 
ENDROOT
BRANCH   4  20
ATOM     20  N   UNL     1       7.950   5.728  17.427  0.00  0.00    +0.000 N 
ATOM     21  H   UNL     1       8.712   5.988  16.806  0.00  0.00    +0.000 HD
ATOM     22  H   UNL     1       7.595   6.492  17.986  0.00  0.00    +0.000 HD
ENDBRANCH   4  20
BRANCH  18  23
ATOM     23  N   UNL     1       1.043   4.005  17.436  0.00  0.00    +0.000 N 
ATOM     24  H   UNL     1       1.197   3.109  17.882  0.00  0.00    +0.000 HD
ATOM     25  H   UNL     1       1.164   3.980  16.425  0.00  0.00    +0.000 HD
ENDBRANCH  18  23
TORSDOF 2
ENDMDL
MODEL 3
REMARK VINA RESULT:      -5.9      8.396     10.189
REMARK  Name = 
REMARK  4 active torsions:
REMARK  status: ('A' for Active; 'I' for Inactive)
REMARK    1  A    between atoms: C_1  and  C_2
REMARK    2  A    between atoms: C_4  and  N_5
REMARK    3  A    between atoms: C_16  and  C_17
REMARK    4  A    between atoms: C_19  and  N_20
REMARK                            x       y       z     vdW  Elec       q    Type
REMARK                         _______ _______ _______ _____ _____    ______ ____
ROOT
ATOM      1  C   UNL     1       4.821  16.225  18.587  0.00  0.00    +0.000 C 
ATOM      2  C   UNL     1       5.979  15.753  19.407  0.00  0.00    +0.000 A 
ATOM      3  C   UNL     1       5.820  15.205  20.689  0.00  0.00    +0.000 A 
ATOM      4  C   UNL     1       6.926  14.766  21.450  0.00  0.00    +0.000 A 
ATOM      5  C   UNL     1       8.236  14.915  20.939  0.00  0.00    +0.000 A 
ATOM      6  C   UNL     1       8.372  15.442  19.627  0.00  0.00    +0.000 A 
ATOM      7  C   UNL     1       7.262  15.868  18.888  0.00  0.00    +0.000 A 
ATOM      8  C   UNL     1       9.723  15.507  18.966  0.00  0.00    +0.000 C 
ATOM      9  N   UNL     1      10.645  14.565  19.617  0.00  0.00    +0.000 N 
ATOM     10  C   UNL     1      10.648  14.921  21.042  0.00  0.00    +0.000 C 
ATOM     11  N   UNL     1       9.403  14.472  21.668  0.00  0.00    +0.000 N 
ATOM     12  C   UNL     1       9.503  13.007  21.777  0.00  0.00    +0.000 C 
ATOM     13  C   UNL     1       9.753  12.395  20.423  0.00  0.00    +0.000 A 
ATOM     14  C   UNL     1       9.354  11.069  20.211  0.00  0.00    +0.000 A 
ATOM     15  C   UNL     1       9.331  10.540  18.925  0.00  0.00    +0.000 A 
ATOM     16  C   UNL     1       8.781   9.169  18.673  0.00  0.00    +0.000 C 
ATOM     17  C   UNL     1       9.765  11.339  17.862  0.00  0.00    +0.000 A 
ATOM     18  C   UNL     1      10.299  12.625  18.073  0.00  0.00    +0.000 A 
ATOM     19  C   UNL     1      10.265  13.194  19.371  0.00  0.00    +0.000 A 
ENDROOT
BRANCH   4  20
ATOM     20  N   UNL     1       6.688  14.381  22.785  0.00  0.00    +0.000 N 
ATOM     21  H   UNL     1       5.845  13.823  22.899  0.00  0.00    +0.000 HD
ATOM     22  H   UNL     1       7.511  13.976  23.210  0.00  0.00    +0.000 HD
ENDBRANCH   4  20
BRANCH  18  23
ATOM     23  N   UNL     1      10.633  13.401  16.940  0.00  0.00    +0.000 N 
ATOM     24  H   UNL     1      11.269  12.939  16.302  0.00  0.00    +0.000 HD
ATOM     25  H   UNL     1      10.956  14.318  17.241  0.00  0.00    +0.000 HD
ENDBRANCH  18  23
TORSDOF 2
ENDMDL
MODEL 4
REMARK VINA RESULT:      -5.9      1.874      2.931
REMARK  Name = 
REMARK  4 active torsions:
REMARK  status: ('A' for Active; 'I' for Inactive)
REMARK    1  A    between atoms: C_1  and  C_2
REMARK    2  A    between atoms: C_4  and  N_5
REMARK    3  A    between atoms: C_16  and  C_17
REMARK    4  A    between atoms: C_19  and  N_20
REMARK                            x       y       z     vdW  Elec       q    Type
REMARK                         _______ _______ _______ _____ _____    ______ ____
ROOT
ATOM      1  C   UNL     1       0.473   2.900  18.744  0.00  0.00    +0.000 C 
ATOM      2  C   UNL     1       1.916   3.271  18.878  0.00  0.00    +0.000 A 
ATOM      3  C   UNL     1       2.904   2.338  19.227  0.00  0.00    +0.000 A 
ATOM      4  C   UNL     1       4.262   2.706  19.350  0.00  0.00    +0.000 A 
ATOM      5  C   UNL     1       4.645   4.054  19.162  0.00  0.00    +0.000 A 
ATOM      6  C   UNL     1       3.634   4.976  18.778  0.00  0.00    +0.000 A 
ATOM      7  C   UNL     1       2.294   4.588  18.658  0.00  0.00    +0.000 A 
ATOM      8  C   UNL     1       3.989   6.398  18.432  0.00  0.00    +0.000 C 
ATOM      9  N   UNL     1       5.415   6.489  18.089  0.00  0.00    +0.000 N 
ATOM     10  C   UNL     1       6.144   5.945  19.242  0.00  0.00    +0.000 C 
ATOM     11  N   UNL     1       6.021   4.486  19.263  0.00  0.00    +0.000 N 
ATOM     12  C   UNL     1       6.872   3.986  18.170  0.00  0.00    +0.000 C 
ATOM     13  C   UNL     1       6.464   4.608  16.860  0.00  0.00    +0.000 A 
ATOM     14  C   UNL     1       6.746   3.909  15.678  0.00  0.00    +0.000 A 
ATOM     15  C   UNL     1       6.179   4.309  14.474  0.00  0.00    +0.000 A 
ATOM     16  C   UNL     1       6.367   3.492  13.232  0.00  0.00    +0.000 C 
ATOM     17  C   UNL     1       5.369   5.450  14.459  0.00  0.00    +0.000 A 
ATOM     18  C   UNL     1       5.187   6.243  15.608  0.00  0.00    +0.000 A 
ATOM     19  C   UNL     1       5.709   5.806  16.851  0.00  0.00    +0.000 A 
ENDROOT
BRANCH   4  20
ATOM     20  N   UNL     1       5.156   1.744  19.860  0.00  0.00    +0.000 N 
ATOM     21  H   UNL     1       5.696   2.076  20.654  0.00  0.00    +0.000 HD
ATOM     22  H   UNL     1       4.701   0.854  20.014  0.00  0.00    +0.000 HD
ENDBRANCH   4  20
BRANCH  18  23
ATOM     23  N   UNL     1       4.285   7.328  15.532  0.00  0.00    +0.000 N 
ATOM     24  H   UNL     1       4.691   8.217  15.798  0.00  0.00    +0.000 HD
ATOM     25  H   UNL     1       3.437   7.101  16.046  0.00  0.00    +0.000 HD
ENDBRANCH  18  23
TORSDOF 2
ENDMDL
MODEL 5
REMARK VINA RESULT:      -5.8      7.737      9.523
REMARK  Name = 
REMARK  4 active torsions:
REMARK  status: ('A' for Active; 'I' for Inactive)
REMARK    1  A    between atoms: C_1  and  C_2
REMARK    2  A    between atoms: C_4  and  N_5
REMARK    3  A    between atoms: C_16  and  C_17
REMARK    4  A    between atoms: C_19  and  N_20
REMARK                            x       y       z     vdW  Elec       q    Type
REMARK                         _______ _______ _______ _____ _____    ______ ____
ROOT
ATOM      1  C   UNL     1       4.496  14.211  22.633  0.00  0.00    +0.000 C 
ATOM      2  C   UNL     1       5.945  13.934  22.386  0.00  0.00    +0.000 A 
ATOM      3  C   UNL     1       6.712  13.122  23.235  0.00  0.00    +0.000 A 
ATOM      4  C   UNL     1       8.080  12.872  22.987  0.00  0.00    +0.000 A 
ATOM      5  C   UNL     1       8.717  13.483  21.883  0.00  0.00    +0.000 A 
ATOM      6  C   UNL     1       7.916  14.275  21.018  0.00  0.00    +0.000 A 
ATOM      7  C   UNL     1       6.560  14.507  21.281  0.00  0.00    +0.000 A 
ATOM      8  C   UNL     1       8.494  14.848  19.752  0.00  0.00    +0.000 C 
ATOM      9  N   UNL     1       9.697  14.096  19.365  0.00  0.00    +0.000 N 
ATOM     10  C   UNL     1      10.598  14.151  20.523  0.00  0.00    +0.000 C 
ATOM     11  N   UNL     1      10.111  13.253  21.573  0.00  0.00    +0.000 N 
ATOM     12  C   UNL     1      10.388  11.886  21.105  0.00  0.00    +0.000 C 
ATOM     13  C   UNL     1       9.746  11.649  19.763  0.00  0.00    +0.000 A 
ATOM     14  C   UNL     1       9.426  10.333  19.404  0.00  0.00    +0.000 A 
ATOM     15  C   UNL     1       8.616  10.083  18.301  0.00  0.00    +0.000 A 
ATOM     16  C   UNL     1       8.160   8.691  17.988  0.00  0.00    +0.000 C 
ATOM     17  C   UNL     1       8.176  11.166  17.532  0.00  0.00    +0.000 A 
ATOM     18  C   UNL     1       8.601  12.483  17.796  0.00  0.00    +0.000 A 
ATOM     19  C   UNL     1       9.372  12.751  18.955  0.00  0.00    +0.000 A 
ENDROOT
BRANCH   4  20
ATOM     20  N   UNL     1       8.807  12.180  23.976  0.00  0.00    +0.000 N 
ATOM     21  H   UNL     1       8.535  12.429  24.924  0.00  0.00    +0.000 HD
ATOM     22  H   UNL     1       8.825  11.185  23.800  0.00  0.00    +0.000 HD
ENDBRANCH   4  20
BRANCH  18  23
ATOM     23  N   UNL     1       8.043  13.528  17.028  0.00  0.00    +0.000 N 
ATOM     24  H   UNL     1       7.198  13.267  16.534  0.00  0.00    +0.000 HD
ATOM     25  H   UNL     1       8.759  13.923  16.422  0.00  0.00    +0.000 HD
ENDBRANCH  18  23
TORSDOF 2
ENDMDL
MODEL 6
REMARK VINA RESULT:      -5.8      7.503     10.001
REMARK  Name = 
REMARK  4 active torsions:
REMARK  status: ('A' for Active; 'I' for Inactive)
REMARK    1  A    between atoms: C_1  and  C_2
REMARK    2  A    between atoms: C_4  and  N_5
REMARK    3  A    between atoms: C_16  and  C_17
REMARK    4  A    between atoms: C_19  and  N_20
REMARK                            x       y       z     vdW  Elec       q    Type
REMARK                         _______ _______ _______ _____ _____    ______ ____
ROOT
ATOM      1  C   UNL     1       3.046  15.745  17.821  0.00  0.00    +0.000 C 
ATOM      2  C   UNL     1       1.901  15.220  18.628  0.00  0.00    +0.000 A 
ATOM      3  C   UNL     1       0.667  15.883  18.703  0.00  0.00    +0.000 A 
ATOM      4  C   UNL     1      -0.403  15.373  19.472  0.00  0.00    +0.000 A 
ATOM      5  C   UNL     1      -0.228  14.188  20.223  0.00  0.00    +0.000 A 
ATOM      6  C   UNL     1       1.018  13.517  20.107  0.00  0.00    +0.000 A 
ATOM      7  C   UNL     1       2.065  14.038  19.336  0.00  0.00    +0.000 A 
ATOM      8  C   UNL     1       1.232  12.183  20.772  0.00  0.00    +0.000 C 
ATOM      9  N   UNL     1      -0.065  11.551  21.058  0.00  0.00    +0.000 N 
ATOM     10  C   UNL     1      -0.816  12.520  21.867  0.00  0.00    +0.000 C 
ATOM     11  N   UNL     1      -1.291  13.614  21.016  0.00  0.00    +0.000 N 
ATOM     12  C   UNL     1      -2.389  13.058  20.208  0.00  0.00    +0.000 C 
ATOM     13  C   UNL     1      -1.916  11.855  19.435  0.00  0.00    +0.000 A 
ATOM     14  C   UNL     1      -2.588  11.521  18.252  0.00  0.00    +0.000 A 
ATOM     15  C   UNL     1      -2.047  10.584  17.378  0.00  0.00    +0.000 A 
ATOM     16  C   UNL     1      -2.689  10.318  16.051  0.00  0.00    +0.000 C 
ATOM     17  C   UNL     1      -0.853   9.946  17.732  0.00  0.00    +0.000 A 
ATOM     18  C   UNL     1      -0.237  10.167  18.979  0.00  0.00    +0.000 A 
ATOM     19  C   UNL     1      -0.747  11.167  19.845  0.00  0.00    +0.000 A 
ENDROOT
BRANCH   4  20
ATOM     20  N   UNL     1      -1.546  16.184  19.618  0.00  0.00    +0.000 N 
ATOM     21  H   UNL     1      -1.556  16.984  18.991  0.00  0.00    +0.000 HD
ATOM     22  H   UNL     1      -2.397  15.639  19.604  0.00  0.00    +0.000 HD
ENDBRANCH   4  20
BRANCH  18  23
ATOM     23  N   UNL     1       1.011   9.552  19.223  0.00  0.00    +0.000 N 
ATOM     24  H   UNL     1       1.633   9.558  18.424  0.00  0.00    +0.000 HD
ATOM     25  H   UNL     1       0.860   8.623  19.611  0.00  0.00    +0.000 HD
ENDBRANCH  18  23
TORSDOF 2
ENDMDL
MODEL 7
REMARK VINA RESULT:      -5.8      8.782     10.890
REMARK  Name = 
REMARK  4 active torsions:
REMARK  status: ('A' for Active; 'I' for Inactive)
REMARK    1  A    between atoms: C_1  and  C_2
REMARK    2  A    between atoms: C_4  and  N_5
REMARK    3  A    between atoms: C_16  and  C_17
REMARK    4  A    between atoms: C_19  and  N_20
REMARK                            x       y       z     vdW  Elec       q    Type
REMARK                         _______ _______ _______ _____ _____    ______ ____
ROOT
ATOM      1  C   UNL     1       8.477  12.278  24.174  0.00  0.00    +0.000 C 
ATOM      2  C   UNL     1       8.896  12.455  22.749  0.00  0.00    +0.000 A 
ATOM      3  C   UNL     1       8.852  11.408  21.816  0.00  0.00    +0.000 A 
ATOM      4  C   UNL     1       9.252  11.592  20.474  0.00  0.00    +0.000 A 
ATOM      5  C   UNL     1       9.753  12.846  20.055  0.00  0.00    +0.000 A 
ATOM      6  C   UNL     1       9.759  13.901  21.007  0.00  0.00    +0.000 A 
ATOM      7  C   UNL     1       9.354  13.697  22.332  0.00  0.00    +0.000 A 
ATOM      8  C   UNL     1      10.153  15.295  20.599  0.00  0.00    +0.000 C 
ATOM      9  N   UNL     1      10.020  15.449  19.143  0.00  0.00    +0.000 N 
ATOM     10  C   UNL     1      10.842  14.387  18.548  0.00  0.00    +0.000 C 
ATOM     11  N   UNL     1      10.165  13.096  18.692  0.00  0.00    +0.000 N 
ATOM     12  C   UNL     1       9.046  13.111  17.736  0.00  0.00    +0.000 C 
ATOM     13  C   UNL     1       8.150  14.294  17.994  0.00  0.00    +0.000 A 
ATOM     14  C   UNL     1       6.808  14.209  17.596  0.00  0.00    +0.000 A 
ATOM     15  C   UNL     1       5.888  15.158  18.027  0.00  0.00    +0.000 A 
ATOM     16  C   UNL     1       4.430  15.002  17.718  0.00  0.00    +0.000 C 
ATOM     17  C   UNL     1       6.338  16.222  18.816  0.00  0.00    +0.000 A 
ATOM     18  C   UNL     1       7.705  16.399  19.109  0.00  0.00    +0.000 A 
ATOM     19  C   UNL     1       8.638  15.403  18.728  0.00  0.00    +0.000 A 
ENDROOT
BRANCH   4  20
ATOM     20  N   UNL     1       9.327  10.450  19.652  0.00  0.00    +0.000 N 
ATOM     21  H   UNL     1       8.454  10.238  19.176  0.00  0.00    +0.000 HD
ATOM     22  H   UNL     1      10.132  10.479  19.042  0.00  0.00    +0.000 HD
ENDBRANCH   4  20
BRANCH  18  23
ATOM     23  N   UNL     1       8.067  17.448  19.983  0.00  0.00    +0.000 N 
ATOM     24  H   UNL     1       7.278  17.890  20.439  0.00  0.00    +0.000 HD
ATOM     25  H   UNL     1       8.670  18.105  19.492  0.00  0.00    +0.000 HD
ENDBRANCH  18  23
TORSDOF 2
ENDMDL
MODEL 8
REMARK VINA RESULT:      -5.7      8.770     11.503
REMARK  Name = 
REMARK  4 active torsions:
REMARK  status: ('A' for Active; 'I' for Inactive)
REMARK    1  A    between atoms: C_1  and  C_2
REMARK    2  A    between atoms: C_4  and  N_5
REMARK    3  A    between atoms: C_16  and  C_17
REMARK    4  A    between atoms: C_19  and  N_20
REMARK                            x       y       z     vdW  Elec       q    Type
REMARK                         _______ _______ _______ _____ _____    ______ ____
ROOT
ATOM      1  C   UNL     1       8.954   9.440  18.854  0.00  0.00    +0.000 C 
ATOM      2  C   UNL     1       9.448  10.850  18.925  0.00  0.00    +0.000 A 
ATOM      3  C   UNL     1       9.899  11.547  17.794  0.00  0.00    +0.000 A 
ATOM      4  C   UNL     1      10.364  12.878  17.879  0.00  0.00    +0.000 A 
ATOM      5  C   UNL     1      10.421  13.524  19.136  0.00  0.00    +0.000 A 
ATOM      6  C   UNL     1       9.930  12.812  20.262  0.00  0.00    +0.000 A 
ATOM      7  C   UNL     1       9.471  11.493  20.155  0.00  0.00    +0.000 A 
ATOM      8  C   UNL     1       9.837  13.481  21.608  0.00  0.00    +0.000 C 
ATOM      9  N   UNL     1       9.833  14.942  21.443  0.00  0.00    +0.000 N 
ATOM     10  C   UNL     1      11.049  15.266  20.686  0.00  0.00    +0.000 C 
ATOM     11  N   UNL     1      10.875  14.889  19.281  0.00  0.00    +0.000 N 
ATOM     12  C   UNL     1       9.950  15.877  18.703  0.00  0.00    +0.000 C 
ATOM     13  C   UNL     1       8.662  15.911  19.483  0.00  0.00    +0.000 A 
ATOM     14  C   UNL     1       7.501  16.344  18.828  0.00  0.00    +0.000 A 
ATOM     15  C   UNL     1       6.254  16.161  19.416  0.00  0.00    +0.000 A 
ATOM     16  C   UNL     1       5.000  16.497  18.667  0.00  0.00    +0.000 C 
ATOM     17  C   UNL     1       6.190  15.589  20.691  0.00  0.00    +0.000 A 
ATOM     18  C   UNL     1       7.353  15.277  21.422  0.00  0.00    +0.000 A 
ATOM     19  C   UNL     1       8.622  15.400  20.804  0.00  0.00    +0.000 A 
ENDROOT
BRANCH   4  20
ATOM     20  N   UNL     1      10.945  13.442  16.727  0.00  0.00    +0.000 N 
ATOM     21  H   UNL     1      10.629  14.390  16.538  0.00  0.00    +0.000 HD
ATOM     22  H   UNL     1      11.951  13.335  16.723  0.00  0.00    +0.000 HD
ENDBRANCH   4  20
BRANCH  18  23
ATOM     23  N   UNL     1       7.202  14.624  22.665  0.00  0.00    +0.000 N 
ATOM     24  H   UNL     1       7.563  15.151  23.451  0.00  0.00    +0.000 HD
ATOM     25  H   UNL     1       7.583  13.682  22.601  0.00  0.00    +0.000 HD
ENDBRANCH  18  23
TORSDOF 2
ENDMDL
MODEL 9
REMARK VINA RESULT:      -5.7      7.988      9.745
REMARK  Name = 
REMARK  4 active torsions:
REMARK  status: ('A' for Active; 'I' for Inactive)
REMARK    1  A    between atoms: C_1  and  C_2
REMARK    2  A    between atoms: C_4  and  N_5
REMARK    3  A    between atoms: C_16  and  C_17
REMARK    4  A    between atoms: C_19  and  N_20
REMARK                            x       y       z     vdW  Elec       q    Type
REMARK                         _______ _______ _______ _____ _____    ______ ____
ROOT
ATOM      1  C   UNL     1       3.693  14.818  21.369  0.00  0.00    +0.000 C 
ATOM      2  C   UNL     1       5.129  14.493  21.633  0.00  0.00    +0.000 A 
ATOM      3  C   UNL     1       5.530  13.657  22.686  0.00  0.00    +0.000 A 
ATOM      4  C   UNL     1       6.891  13.362  22.921  0.00  0.00    +0.000 A 
ATOM      5  C   UNL     1       7.889  13.950  22.110  0.00  0.00    +0.000 A 
ATOM      6  C   UNL     1       7.459  14.767  21.030  0.00  0.00    +0.000 A 
ATOM      7  C   UNL     1       6.104  15.044  20.813  0.00  0.00    +0.000 A 
ATOM      8  C   UNL     1       8.456  15.319  20.046  0.00  0.00    +0.000 C 
ATOM      9  N   UNL     1       9.694  14.527  20.089  0.00  0.00    +0.000 N 
ATOM     10  C   UNL     1      10.143  14.553  21.487  0.00  0.00    +0.000 C 
ATOM     11  N   UNL     1       9.296  13.674  22.297  0.00  0.00    +0.000 N 
ATOM     12  C   UNL     1       9.674  12.297  21.938  0.00  0.00    +0.000 C 
ATOM     13  C   UNL     1       9.526  12.080  20.455  0.00  0.00    +0.000 A 
ATOM     14  C   UNL     1       9.308  10.774  19.994  0.00  0.00    +0.000 A 
ATOM     15  C   UNL     1       8.920  10.550  18.678  0.00  0.00    +0.000 A 
ATOM     16  C   UNL     1       8.556   9.173  18.214  0.00  0.00    +0.000 C 
ATOM     17  C   UNL     1       8.806  11.646  17.816  0.00  0.00    +0.000 A 
ATOM     18  C   UNL     1       9.155  12.948  18.223  0.00  0.00    +0.000 A 
ATOM     19  C   UNL     1       9.489  13.192  19.579  0.00  0.00    +0.000 A 
ENDROOT
BRANCH   4  20
ATOM     20  N   UNL     1       7.212  12.648  24.093  0.00  0.00    +0.000 N 
ATOM     21  H   UNL     1       7.424  11.668  23.922  0.00  0.00    +0.000 HD
ATOM     22  H   UNL     1       7.906  13.129  24.647  0.00  0.00    +0.000 HD
ENDBRANCH   4  20
BRANCH  18  23
ATOM     23  N   UNL     1       8.929  14.011  17.320  0.00  0.00    +0.000 N 
ATOM     24  H   UNL     1       9.607  14.760  17.392  0.00  0.00    +0.000 HD
ATOM     25  H   UNL     1       7.966  14.328  17.405  0.00  0.00    +0.000 HD
ENDBRANCH  18  23
TORSDOF 2
ENDMDL
