MODEL 1
REMARK VINA RESULT:      -8.0      0.000      0.000
REMARK  Name = 
REMARK  10 active torsions:
REMARK  status: ('A' for Active; 'I' for Inactive)
REMARK    1  A    between atoms: C_1  and  C_2
REMARK    2  A    between atoms: C_2  and  N_3
REMARK    3  A    between atoms: N_3  and  C_4
REMARK    4  A    between atoms: N_3  and  S_10
REMARK    5  A    between atoms: S_10  and  C_13
REMARK    6  A    between atoms: C_18  and  C_20
REMARK    7  A    between atoms: C_20  and  O_21
REMARK    8  A    between atoms: O_21  and  C_22
REMARK    9  A    between atoms: C_25  and  O_26
REMARK   10  A    between atoms: O_26  and  C_27
REMARK                            x       y       z     vdW  Elec       q    Type
REMARK                         _______ _______ _______ _____ _____    ______ ____
ROOT
ATOM      1  C   UNL     1       2.080   5.552  19.035  0.00  0.00    +0.000 A 
ATOM      2  N   UNL     1       2.332   6.632  18.319  0.00  0.00    +0.000 NA
ATOM      3  N   UNL     1       2.220   7.782  19.090  0.00  0.00    +0.000 NA
ATOM      4  C   UNL     1       1.949   7.490  20.339  0.00  0.00    +0.000 A 
ATOM      5  N   UNL     1       1.872   8.330  21.407  0.00  0.00    +0.000 N 
ATOM      6  C   UNL     1       0.961   9.338  21.515  0.00  0.00    +0.000 C 
ATOM      7  O   UNL     1       1.112  10.190  22.394  0.00  0.00    +0.000 OA
ATOM      8  S   UNL     1       1.711   5.842  20.681  0.00  0.00    +0.000 S 
ATOM      9  H   UNL     1       2.594   8.279  22.110  0.00  0.00    +0.000 HD
ENDROOT
BRANCH   1  10
ATOM     10  S   UNL     1       2.120   3.866  18.493  0.00  0.00    +0.000 S 
ATOM     11  O   UNL     1       1.654   3.916  17.117  0.00  0.00    +0.000 OA
ATOM     12  O   UNL     1       1.344   3.149  19.494  0.00  0.00    +0.000 OA
BRANCH  10  13
ATOM     13  N   UNL     1       3.697   3.278  18.507  0.00  0.00    +0.000 N 
BRANCH  13  14
ATOM     14  C   UNL     1       4.708   4.018  17.817  0.00  0.00    +0.000 A 
ATOM     15  C   UNL     1       5.575   4.833  18.550  0.00  0.00    +0.000 A 
ATOM     16  C   UNL     1       6.573   5.562  17.898  0.00  0.00    +0.000 A 
ATOM     17  C   UNL     1       6.711   5.470  16.514  0.00  0.00    +0.000 A 
ATOM     18  C   UNL     1       5.854   4.656  15.779  0.00  0.00    +0.000 A 
ATOM     19  C   UNL     1       4.848   3.933  16.432  0.00  0.00    +0.000 A 
ENDBRANCH  13  14
BRANCH  13  21
ATOM     20  C   UNL     1       4.555   1.878  20.383  0.00  0.00    +0.000 C 
ATOM     21  C   UNL     1       3.986   1.914  18.978  0.00  0.00    +0.000 C 
ENDBRANCH  13  21
ENDBRANCH  10  13
ENDBRANCH   1  10
BRANCH   6  22
ATOM     22  C   UNL     1      -0.285   9.316  20.634  0.00  0.00    +0.000 C 
BRANCH  22  23
ATOM     23  O   UNL     1      -0.312  10.576  19.963  0.00  0.00    +0.000 OA
BRANCH  23  24
ATOM     24  C   UNL     1      -1.258  10.739  18.992  0.00  0.00    +0.000 A 
ATOM     25  C   UNL     1      -1.114   9.902  17.885  0.00  0.00    +0.000 A 
ATOM     26  C   UNL     1      -2.014   9.976  16.820  0.00  0.00    +0.000 A 
ATOM     27  C   UNL     1      -3.091  10.860  16.867  0.00  0.00    +0.000 A 
ATOM     28  C   UNL     1      -3.246  11.689  17.979  0.00  0.00    +0.000 A 
ATOM     29  C   UNL     1      -2.331  11.628  19.041  0.00  0.00    +0.000 A 
BRANCH  27  30
ATOM     30  O   UNL     1      -3.893  10.858  15.760  0.00  0.00    +0.000 OA
ATOM     31  C   UNL     1      -3.349  10.241  14.599  0.00  0.00    +0.000 C 
ENDBRANCH  27  30
ENDBRANCH  23  24
ENDBRANCH  22  23
ENDBRANCH   6  22
TORSDOF 8
ENDMDL
MODEL 2
REMARK VINA RESULT:      -7.5      0.567      1.048
REMARK  Name = 
REMARK  10 active torsions:
REMARK  status: ('A' for Active; 'I' for Inactive)
REMARK    1  A    between atoms: C_1  and  C_2
REMARK    2  A    between atoms: C_2  and  N_3
REMARK    3  A    between atoms: N_3  and  C_4
REMARK    4  A    between atoms: N_3  and  S_10
REMARK    5  A    between atoms: S_10  and  C_13
REMARK    6  A    between atoms: C_18  and  C_20
REMARK    7  A    between atoms: C_20  and  O_21
REMARK    8  A    between atoms: O_21  and  C_22
REMARK    9  A    between atoms: C_25  and  O_26
REMARK   10  A    between atoms: O_26  and  C_27
REMARK                            x       y       z     vdW  Elec       q    Type
REMARK                         _______ _______ _______ _____ _____    ______ ____
ROOT
ATOM      1  C   UNL     1       2.061   5.507  19.002  0.00  0.00    +0.000 A 
ATOM      2  N   UNL     1       2.305   6.612  18.323  0.00  0.00    +0.000 NA
ATOM      3  N   UNL     1       2.216   7.732  19.139  0.00  0.00    +0.000 NA
ATOM      4  C   UNL     1       1.969   7.395  20.382  0.00  0.00    +0.000 A 
ATOM      5  N   UNL     1       1.919   8.193  21.482  0.00  0.00    +0.000 N 
ATOM      6  C   UNL     1       1.018   9.201  21.647  0.00  0.00    +0.000 C 
ATOM      7  O   UNL     1       1.192  10.018  22.555  0.00  0.00    +0.000 OA
ATOM      8  S   UNL     1       1.727   5.735  20.666  0.00  0.00    +0.000 S 
ATOM      9  H   UNL     1       2.655   8.111  22.167  0.00  0.00    +0.000 HD
ENDROOT
BRANCH   1  10
ATOM     10  S   UNL     1       2.079   3.842  18.396  0.00  0.00    +0.000 S 
ATOM     11  O   UNL     1       1.664   3.957  17.007  0.00  0.00    +0.000 OA
ATOM     12  O   UNL     1       1.248   3.107  19.339  0.00  0.00    +0.000 OA
BRANCH  10  13
ATOM     13  N   UNL     1       3.639   3.213  18.443  0.00  0.00    +0.000 N 
BRANCH  13  14
ATOM     14  C   UNL     1       4.696   3.963  17.839  0.00  0.00    +0.000 A 
ATOM     15  C   UNL     1       4.934   3.821  16.469  0.00  0.00    +0.000 A 
ATOM     16  C   UNL     1       5.958   4.548  15.855  0.00  0.00    +0.000 A 
ATOM     17  C   UNL     1       6.738   5.423  16.608  0.00  0.00    +0.000 A 
ATOM     18  C   UNL     1       6.503   5.573  17.972  0.00  0.00    +0.000 A 
ATOM     19  C   UNL     1       5.483   4.838  18.588  0.00  0.00    +0.000 A 
ENDBRANCH  13  14
BRANCH  13  21
ATOM     20  C   UNL     1       4.604   1.697  20.171  0.00  0.00    +0.000 C 
ATOM     21  C   UNL     1       3.874   1.818  18.848  0.00  0.00    +0.000 C 
ENDBRANCH  13  21
ENDBRANCH  10  13
ENDBRANCH   1  10
BRANCH   6  22
ATOM     22  C   UNL     1      -0.246   9.220  20.792  0.00  0.00    +0.000 C 
BRANCH  22  23
ATOM     23  O   UNL     1      -0.486  10.592  20.478  0.00  0.00    +0.000 OA
BRANCH  23  24
ATOM     24  C   UNL     1      -1.055  10.859  19.266  0.00  0.00    +0.000 A 
ATOM     25  C   UNL     1      -1.739   9.789  18.690  0.00  0.00    +0.000 A 
ATOM     26  C   UNL     1      -2.360   9.932  17.447  0.00  0.00    +0.000 A 
ATOM     27  C   UNL     1      -2.337  11.159  16.784  0.00  0.00    +0.000 A 
ATOM     28  C   UNL     1      -1.666  12.236  17.365  0.00  0.00    +0.000 A 
ATOM     29  C   UNL     1      -1.026  12.087  18.606  0.00  0.00    +0.000 A 
BRANCH  27  30
ATOM     30  O   UNL     1      -2.960  11.173  15.568  0.00  0.00    +0.000 OA
ATOM     31  C   UNL     1      -2.907   9.960  14.827  0.00  0.00    +0.000 C 
ENDBRANCH  27  30
ENDBRANCH  23  24
ENDBRANCH  22  23
ENDBRANCH   6  22
TORSDOF 8
ENDMDL
MODEL 3
REMARK VINA RESULT:      -7.4      0.888      1.697
REMARK  Name = 
REMARK  10 active torsions:
REMARK  status: ('A' for Active; 'I' for Inactive)
REMARK    1  A    between atoms: C_1  and  C_2
REMARK    2  A    between atoms: C_2  and  N_3
REMARK    3  A    between atoms: N_3  and  C_4
REMARK    4  A    between atoms: N_3  and  S_10
REMARK    5  A    between atoms: S_10  and  C_13
REMARK    6  A    between atoms: C_18  and  C_20
REMARK    7  A    between atoms: C_20  and  O_21
REMARK    8  A    between atoms: O_21  and  C_22
REMARK    9  A    between atoms: C_25  and  O_26
REMARK   10  A    between atoms: O_26  and  C_27
REMARK                            x       y       z     vdW  Elec       q    Type
REMARK                         _______ _______ _______ _____ _____    ______ ____
ROOT
ATOM      1  C   UNL     1       2.193   5.696  19.088  0.00  0.00    +0.000 A 
ATOM      2  N   UNL     1       2.365   6.735  18.291  0.00  0.00    +0.000 NA
ATOM      3  N   UNL     1       2.189   7.929  18.978  0.00  0.00    +0.000 NA
ATOM      4  C   UNL     1       1.954   7.713  20.250  0.00  0.00    +0.000 A 
ATOM      5  N   UNL     1       1.837   8.623  21.255  0.00  0.00    +0.000 N 
ATOM      6  C   UNL     1       0.865   9.576  21.306  0.00  0.00    +0.000 C 
ATOM      7  O   UNL     1       0.972  10.498  22.118  0.00  0.00    +0.000 OA
ATOM      8  S   UNL     1       1.828   6.083  20.716  0.00  0.00    +0.000 S 
ATOM      9  H   UNL     1       2.571   8.670  21.946  0.00  0.00    +0.000 HD
ENDROOT
BRANCH   1  10
ATOM     10  S   UNL     1       2.335   3.981  18.670  0.00  0.00    +0.000 S 
ATOM     11  O   UNL     1       2.024   3.926  17.250  0.00  0.00    +0.000 OA
ATOM     12  O   UNL     1       1.470   3.305  19.626  0.00  0.00    +0.000 OA
BRANCH  10  13
ATOM     13  N   UNL     1       3.915   3.446  18.897  0.00  0.00    +0.000 N 
BRANCH  13  14
ATOM     14  C   UNL     1       4.983   4.211  18.331  0.00  0.00    +0.000 A 
ATOM     15  C   UNL     1       5.227   4.126  16.957  0.00  0.00    +0.000 A 
ATOM     16  C   UNL     1       6.260   4.868  16.381  0.00  0.00    +0.000 A 
ATOM     17  C   UNL     1       7.046   5.702  17.175  0.00  0.00    +0.000 A 
ATOM     18  C   UNL     1       6.804   5.795  18.542  0.00  0.00    +0.000 A 
ATOM     19  C   UNL     1       5.774   5.044  19.121  0.00  0.00    +0.000 A 
ENDBRANCH  13  14
BRANCH  13  21
ATOM     20  C   UNL     1       3.870   0.998  18.430  0.00  0.00    +0.000 C 
ATOM     21  C   UNL     1       4.183   2.098  19.424  0.00  0.00    +0.000 C 
ENDBRANCH  13  21
ENDBRANCH  10  13
ENDBRANCH   1  10
BRANCH   6  22
ATOM     22  C   UNL     1      -0.389   9.409  20.452  0.00  0.00    +0.000 C 
BRANCH  22  23
ATOM     23  O   UNL     1      -0.408  10.527  19.563  0.00  0.00    +0.000 OA
BRANCH  23  24
ATOM     24  C   UNL     1      -1.575  10.767  18.896  0.00  0.00    +0.000 A 
ATOM     25  C   UNL     1      -2.344  11.810  19.414  0.00  0.00    +0.000 A 
ATOM     26  C   UNL     1      -3.564  12.150  18.825  0.00  0.00    +0.000 A 
ATOM     27  C   UNL     1      -4.010  11.477  17.688  0.00  0.00    +0.000 A 
ATOM     28  C   UNL     1      -3.238  10.443  17.160  0.00  0.00    +0.000 A 
ATOM     29  C   UNL     1      -2.020  10.088  17.763  0.00  0.00    +0.000 A 
BRANCH  27  30
ATOM     30  O   UNL     1      -5.226  11.884  17.214  0.00  0.00    +0.000 OA
ATOM     31  C   UNL     1      -6.362  11.421  17.933  0.00  0.00    +0.000 C 
ENDBRANCH  27  30
ENDBRANCH  23  24
ENDBRANCH  22  23
ENDBRANCH   6  22
TORSDOF 8
ENDMDL
MODEL 4
REMARK VINA RESULT:      -7.4      0.819      1.378
REMARK  Name = 
REMARK  10 active torsions:
REMARK  status: ('A' for Active; 'I' for Inactive)
REMARK    1  A    between atoms: C_1  and  C_2
REMARK    2  A    between atoms: C_2  and  N_3
REMARK    3  A    between atoms: N_3  and  C_4
REMARK    4  A    between atoms: N_3  and  S_10
REMARK    5  A    between atoms: S_10  and  C_13
REMARK    6  A    between atoms: C_18  and  C_20
REMARK    7  A    between atoms: C_20  and  O_21
REMARK    8  A    between atoms: O_21  and  C_22
REMARK    9  A    between atoms: C_25  and  O_26
REMARK   10  A    between atoms: O_26  and  C_27
REMARK                            x       y       z     vdW  Elec       q    Type
REMARK                         _______ _______ _______ _____ _____    ______ ____
ROOT
ATOM      1  C   UNL     1       2.167   5.540  18.989  0.00  0.00    +0.000 A 
ATOM      2  N   UNL     1       2.528   6.575  18.253  0.00  0.00    +0.000 NA
ATOM      3  N   UNL     1       2.381   7.765  18.953  0.00  0.00    +0.000 NA
ATOM      4  C   UNL     1       1.976   7.545  20.181  0.00  0.00    +0.000 A 
ATOM      5  N   UNL     1       1.823   8.440  21.194  0.00  0.00    +0.000 N 
ATOM      6  C   UNL     1       0.942   9.479  21.162  0.00  0.00    +0.000 C 
ATOM      7  O   UNL     1       1.035  10.370  22.011  0.00  0.00    +0.000 OA
ATOM      8  S   UNL     1       1.646   5.924  20.574  0.00  0.00    +0.000 S 
ATOM      9  H   UNL     1       2.468   8.402  21.969  0.00  0.00    +0.000 HD
ENDROOT
BRANCH   1  10
ATOM     10  S   UNL     1       2.201   3.829  18.535  0.00  0.00    +0.000 S 
ATOM     11  O   UNL     1       1.733   3.810  17.158  0.00  0.00    +0.000 OA
ATOM     12  O   UNL     1       1.424   3.166  19.572  0.00  0.00    +0.000 OA
BRANCH  10  13
ATOM     13  N   UNL     1       3.776   3.237  18.577  0.00  0.00    +0.000 N 
BRANCH  13  14
ATOM     14  C   UNL     1       4.801   3.976  17.906  0.00  0.00    +0.000 A 
ATOM     15  C   UNL     1       4.877   3.922  16.511  0.00  0.00    +0.000 A 
ATOM     16  C   UNL     1       5.866   4.640  15.834  0.00  0.00    +0.000 A 
ATOM     17  C   UNL     1       6.775   5.418  16.549  0.00  0.00    +0.000 A 
ATOM     18  C   UNL     1       6.701   5.480  17.938  0.00  0.00    +0.000 A 
ATOM     19  C   UNL     1       5.715   4.754  18.617  0.00  0.00    +0.000 A 
ENDBRANCH  13  14
BRANCH  13  21
ATOM     20  C   UNL     1       4.619   1.833  20.456  0.00  0.00    +0.000 C 
ATOM     21  C   UNL     1       4.053   1.872  19.050  0.00  0.00    +0.000 C 
ENDBRANCH  13  21
ENDBRANCH  10  13
ENDBRANCH   1  10
BRANCH   6  22
ATOM     22  C   UNL     1      -0.209   9.451  20.161  0.00  0.00    +0.000 C 
BRANCH  22  23
ATOM     23  O   UNL     1      -0.538  10.817  19.905  0.00  0.00    +0.000 OA
BRANCH  23  24
ATOM     24  C   UNL     1      -1.741  11.061  19.306  0.00  0.00    +0.000 A 
ATOM     25  C   UNL     1      -2.056  10.207  18.248  0.00  0.00    +0.000 A 
ATOM     26  C   UNL     1      -3.255  10.358  17.550  0.00  0.00    +0.000 A 
ATOM     27  C   UNL     1      -4.172  11.340  17.925  0.00  0.00    +0.000 A 
ATOM     28  C   UNL     1      -3.867  12.186  18.991  0.00  0.00    +0.000 A 
ATOM     29  C   UNL     1      -2.652  12.047  19.682  0.00  0.00    +0.000 A 
BRANCH  27  30
ATOM     30  O   UNL     1      -5.299  11.405  17.156  0.00  0.00    +0.000 OA
ATOM     31  C   UNL     1      -6.035  12.620  17.231  0.00  0.00    +0.000 C 
ENDBRANCH  27  30
ENDBRANCH  23  24
ENDBRANCH  22  23
ENDBRANCH   6  22
TORSDOF 8
ENDMDL
MODEL 5
REMARK VINA RESULT:      -7.2      1.427      2.146
REMARK  Name = 
REMARK  10 active torsions:
REMARK  status: ('A' for Active; 'I' for Inactive)
REMARK    1  A    between atoms: C_1  and  C_2
REMARK    2  A    between atoms: C_2  and  N_3
REMARK    3  A    between atoms: N_3  and  C_4
REMARK    4  A    between atoms: N_3  and  S_10
REMARK    5  A    between atoms: S_10  and  C_13
REMARK    6  A    between atoms: C_18  and  C_20
REMARK    7  A    between atoms: C_20  and  O_21
REMARK    8  A    between atoms: O_21  and  C_22
REMARK    9  A    between atoms: C_25  and  O_26
REMARK   10  A    between atoms: O_26  and  C_27
REMARK                            x       y       z     vdW  Elec       q    Type
REMARK                         _______ _______ _______ _____ _____    ______ ____
ROOT
ATOM      1  C   UNL     1       2.737   6.055  18.688  0.00  0.00    +0.000 A 
ATOM      2  N   UNL     1       2.814   7.221  18.074  0.00  0.00    +0.000 NA
ATOM      3  N   UNL     1       2.408   8.255  18.908  0.00  0.00    +0.000 NA
ATOM      4  C   UNL     1       2.109   7.809  20.105  0.00  0.00    +0.000 A 
ATOM      5  N   UNL     1       1.780   8.521  21.215  0.00  0.00    +0.000 N 
ATOM      6  C   UNL     1       0.675   9.313  21.309  0.00  0.00    +0.000 C 
ATOM      7  O   UNL     1       0.579  10.100  22.254  0.00  0.00    +0.000 OA
ATOM      8  S   UNL     1       2.192   6.123  20.310  0.00  0.00    +0.000 S 
ATOM      9  H   UNL     1       2.441   8.556  21.977  0.00  0.00    +0.000 HD
ENDROOT
BRANCH   1  10
ATOM     10  S   UNL     1       3.167   4.464  18.039  0.00  0.00    +0.000 S 
ATOM     11  O   UNL     1       2.037   4.097  17.200  0.00  0.00    +0.000 OA
ATOM     12  O   UNL     1       3.481   3.668  19.217  0.00  0.00    +0.000 OA
BRANCH  10  13
ATOM     13  N   UNL     1       4.542   4.570  17.075  0.00  0.00    +0.000 N 
BRANCH  13  14
ATOM     14  C   UNL     1       5.647   5.346  17.546  0.00  0.00    +0.000 A 
ATOM     15  C   UNL     1       6.381   4.888  18.645  0.00  0.00    +0.000 A 
ATOM     16  C   UNL     1       7.468   5.626  19.120  0.00  0.00    +0.000 A 
ATOM     17  C   UNL     1       7.828   6.818  18.493  0.00  0.00    +0.000 A 
ATOM     18  C   UNL     1       7.105   7.277  17.396  0.00  0.00    +0.000 A 
ATOM     19  C   UNL     1       6.010   6.541  16.926  0.00  0.00    +0.000 A 
ENDBRANCH  13  14
BRANCH  13  21
ATOM     20  C   UNL     1       5.887   3.732  15.151  0.00  0.00    +0.000 C 
ATOM     21  C   UNL     1       4.518   4.111  15.677  0.00  0.00    +0.000 C 
ENDBRANCH  13  21
ENDBRANCH  10  13
ENDBRANCH   1  10
BRANCH   6  22
ATOM     22  C   UNL     1      -0.470   9.117  20.318  0.00  0.00    +0.000 C 
BRANCH  22  23
ATOM     23  O   UNL     1      -0.324  10.150  19.342  0.00  0.00    +0.000 OA
BRANCH  23  24
ATOM     24  C   UNL     1      -1.399  10.397  18.538  0.00  0.00    +0.000 A 
ATOM     25  C   UNL     1      -2.321  11.309  19.053  0.00  0.00    +0.000 A 
ATOM     26  C   UNL     1      -3.467  11.642  18.328  0.00  0.00    +0.000 A 
ATOM     27  C   UNL     1      -3.687  11.096  17.064  0.00  0.00    +0.000 A 
ATOM     28  C   UNL     1      -2.760  10.194  16.540  0.00  0.00    +0.000 A 
ATOM     29  C   UNL     1      -1.616   9.845  17.276  0.00  0.00    +0.000 A 
BRANCH  27  30
ATOM     30  O   UNL     1      -4.851  11.479  16.460  0.00  0.00    +0.000 OA
ATOM     31  C   UNL     1      -5.693  12.337  17.220  0.00  0.00    +0.000 C 
ENDBRANCH  27  30
ENDBRANCH  23  24
ENDBRANCH  22  23
ENDBRANCH   6  22
TORSDOF 8
ENDMDL
MODEL 6
REMARK VINA RESULT:      -7.1      1.153      1.678
REMARK  Name = 
REMARK  10 active torsions:
REMARK  status: ('A' for Active; 'I' for Inactive)
REMARK    1  A    between atoms: C_1  and  C_2
REMARK    2  A    between atoms: C_2  and  N_3
REMARK    3  A    between atoms: N_3  and  C_4
REMARK    4  A    between atoms: N_3  and  S_10
REMARK    5  A    between atoms: S_10  and  C_13
REMARK    6  A    between atoms: C_18  and  C_20
REMARK    7  A    between atoms: C_20  and  O_21
REMARK    8  A    between atoms: O_21  and  C_22
REMARK    9  A    between atoms: C_25  and  O_26
REMARK   10  A    between atoms: O_26  and  C_27
REMARK                            x       y       z     vdW  Elec       q    Type
REMARK                         _______ _______ _______ _____ _____    ______ ____
ROOT
ATOM      1  C   UNL     1       2.109   5.988  19.027  0.00  0.00    +0.000 A 
ATOM      2  N   UNL     1       2.435   6.952  18.186  0.00  0.00    +0.000 NA
ATOM      3  N   UNL     1       2.245   8.203  18.759  0.00  0.00    +0.000 NA
ATOM      4  C   UNL     1       1.846   8.099  20.004  0.00  0.00    +0.000 A 
ATOM      5  N   UNL     1       1.660   9.088  20.919  0.00  0.00    +0.000 N 
ATOM      6  C   UNL     1       0.744  10.087  20.780  0.00  0.00    +0.000 C 
ATOM      7  O   UNL     1       0.804  11.064  21.531  0.00  0.00    +0.000 OA
ATOM      8  S   UNL     1       1.571   6.517  20.565  0.00  0.00    +0.000 S 
ATOM      9  H   UNL     1       2.305   9.153  21.692  0.00  0.00    +0.000 HD
ENDROOT
BRANCH   1  10
ATOM     10  S   UNL     1       2.203   4.241  18.753  0.00  0.00    +0.000 S 
ATOM     11  O   UNL     1       1.741   4.063  17.386  0.00  0.00    +0.000 OA
ATOM     12  O   UNL     1       1.444   3.663  19.853  0.00  0.00    +0.000 OA
BRANCH  10  13
ATOM     13  N   UNL     1       3.797   3.711  18.858  0.00  0.00    +0.000 N 
BRANCH  13  14
ATOM     14  C   UNL     1       4.816   4.480  18.214  0.00  0.00    +0.000 A 
ATOM     15  C   UNL     1       5.762   5.148  18.997  0.00  0.00    +0.000 A 
ATOM     16  C   UNL     1       6.770   5.902  18.389  0.00  0.00    +0.000 A 
ATOM     17  C   UNL     1       6.838   5.982  16.999  0.00  0.00    +0.000 A 
ATOM     18  C   UNL     1       5.902   5.315  16.214  0.00  0.00    +0.000 A 
ATOM     19  C   UNL     1       4.887   4.567  16.823  0.00  0.00    +0.000 A 
ENDBRANCH  13  14
BRANCH  13  21
ATOM     20  C   UNL     1       3.719   1.263  18.394  0.00  0.00    +0.000 C 
ATOM     21  C   UNL     1       4.109   2.363  19.360  0.00  0.00    +0.000 C 
ENDBRANCH  13  21
ENDBRANCH  10  13
ENDBRANCH   1  10
BRANCH   6  22
ATOM     22  C   UNL     1      -0.404   9.915  19.789  0.00  0.00    +0.000 C 
BRANCH  22  23
ATOM     23  O   UNL     1      -1.021  11.198  19.679  0.00  0.00    +0.000 OA
BRANCH  23  24
ATOM     24  C   UNL     1      -2.194  11.263  18.982  0.00  0.00    +0.000 A 
ATOM     25  C   UNL     1      -3.147  12.132  19.514  0.00  0.00    +0.000 A 
ATOM     26  C   UNL     1      -4.390  12.283  18.897  0.00  0.00    +0.000 A 
ATOM     27  C   UNL     1      -4.682  11.594  17.720  0.00  0.00    +0.000 A 
ATOM     28  C   UNL     1      -3.726  10.735  17.178  0.00  0.00    +0.000 A 
ATOM     29  C   UNL     1      -2.482  10.569  17.808  0.00  0.00    +0.000 A 
BRANCH  27  30
ATOM     30  O   UNL     1      -5.936  11.806  17.220  0.00  0.00    +0.000 OA
ATOM     31  C   UNL     1      -6.372  13.159  17.182  0.00  0.00    +0.000 C 
ENDBRANCH  27  30
ENDBRANCH  23  24
ENDBRANCH  22  23
ENDBRANCH   6  22
TORSDOF 8
ENDMDL
MODEL 7
REMARK VINA RESULT:      -7.0      1.937      2.490
REMARK  Name = 
REMARK  10 active torsions:
REMARK  status: ('A' for Active; 'I' for Inactive)
REMARK    1  A    between atoms: C_1  and  C_2
REMARK    2  A    between atoms: C_2  and  N_3
REMARK    3  A    between atoms: N_3  and  C_4
REMARK    4  A    between atoms: N_3  and  S_10
REMARK    5  A    between atoms: S_10  and  C_13
REMARK    6  A    between atoms: C_18  and  C_20
REMARK    7  A    between atoms: C_20  and  O_21
REMARK    8  A    between atoms: O_21  and  C_22
REMARK    9  A    between atoms: C_25  and  O_26
REMARK   10  A    between atoms: O_26  and  C_27
REMARK                            x       y       z     vdW  Elec       q    Type
REMARK                         _______ _______ _______ _____ _____    ______ ____
ROOT
ATOM      1  C   UNL     1       2.114   5.507  19.030  0.00  0.00    +0.000 A 
ATOM      2  N   UNL     1       2.423   6.591  18.342  0.00  0.00    +0.000 NA
ATOM      3  N   UNL     1       2.300   7.733  19.123  0.00  0.00    +0.000 NA
ATOM      4  C   UNL     1       1.965   7.430  20.355  0.00  0.00    +0.000 A 
ATOM      5  N   UNL     1       1.858   8.257  21.429  0.00  0.00    +0.000 N 
ATOM      6  C   UNL     1       0.965   9.284  21.510  0.00  0.00    +0.000 C 
ATOM      7  O   UNL     1       1.094  10.121  22.407  0.00  0.00    +0.000 OA
ATOM      8  S   UNL     1       1.676   5.783  20.662  0.00  0.00    +0.000 S 
ATOM      9  H   UNL     1       2.545   8.181  22.164  0.00  0.00    +0.000 HD
ENDROOT
BRANCH   1  10
ATOM     10  S   UNL     1       2.142   3.828  18.467  0.00  0.00    +0.000 S 
ATOM     11  O   UNL     1       1.690   3.900  17.087  0.00  0.00    +0.000 OA
ATOM     12  O   UNL     1       1.349   3.106  19.451  0.00  0.00    +0.000 OA
BRANCH  10  13
ATOM     13  N   UNL     1       3.713   3.223  18.489  0.00  0.00    +0.000 N 
BRANCH  13  14
ATOM     14  C   UNL     1       4.733   3.947  17.795  0.00  0.00    +0.000 A 
ATOM     15  C   UNL     1       5.615   4.749  18.525  0.00  0.00    +0.000 A 
ATOM     16  C   UNL     1       6.623   5.462  17.870  0.00  0.00    +0.000 A 
ATOM     17  C   UNL     1       6.755   5.367  16.485  0.00  0.00    +0.000 A 
ATOM     18  C   UNL     1       5.882   4.567  15.754  0.00  0.00    +0.000 A 
ATOM     19  C   UNL     1       4.867   3.860  16.409  0.00  0.00    +0.000 A 
ENDBRANCH  13  14
BRANCH  13  21
ATOM     20  C   UNL     1       4.571   1.829  20.369  0.00  0.00    +0.000 C 
ATOM     21  C   UNL     1       3.987   1.860  18.971  0.00  0.00    +0.000 C 
ENDBRANCH  13  21
ENDBRANCH  10  13
ENDBRANCH   1  10
BRANCH   6  22
ATOM     22  C   UNL     1      -0.239   9.301  20.573  0.00  0.00    +0.000 C 
BRANCH  22  23
ATOM     23  O   UNL     1       0.115  10.172  19.498  0.00  0.00    +0.000 OA
BRANCH  23  24
ATOM     24  C   UNL     1      -0.259  11.480  19.613  0.00  0.00    +0.000 A 
ATOM     25  C   UNL     1       0.685  12.404  19.164  0.00  0.00    +0.000 A 
ATOM     26  C   UNL     1       0.424  13.774  19.234  0.00  0.00    +0.000 A 
ATOM     27  C   UNL     1      -0.799  14.235  19.717  0.00  0.00    +0.000 A 
ATOM     28  C   UNL     1      -1.752  13.314  20.154  0.00  0.00    +0.000 A 
ATOM     29  C   UNL     1      -1.483  11.937  20.101  0.00  0.00    +0.000 A 
BRANCH  27  30
ATOM     30  O   UNL     1      -0.932  15.595  19.757  0.00  0.00    +0.000 OA
ATOM     31  C   UNL     1      -0.341  16.310  18.679  0.00  0.00    +0.000 C 
ENDBRANCH  27  30
ENDBRANCH  23  24
ENDBRANCH  22  23
ENDBRANCH   6  22
TORSDOF 8
ENDMDL
MODEL 8
REMARK VINA RESULT:      -7.0      1.443      2.111
REMARK  Name = 
REMARK  10 active torsions:
REMARK  status: ('A' for Active; 'I' for Inactive)
REMARK    1  A    between atoms: C_1  and  C_2
REMARK    2  A    between atoms: C_2  and  N_3
REMARK    3  A    between atoms: N_3  and  C_4
REMARK    4  A    between atoms: N_3  and  S_10
REMARK    5  A    between atoms: S_10  and  C_13
REMARK    6  A    between atoms: C_18  and  C_20
REMARK    7  A    between atoms: C_20  and  O_21
REMARK    8  A    between atoms: O_21  and  C_22
REMARK    9  A    between atoms: C_25  and  O_26
REMARK   10  A    between atoms: O_26  and  C_27
REMARK                            x       y       z     vdW  Elec       q    Type
REMARK                         _______ _______ _______ _____ _____    ______ ____
ROOT
ATOM      1  C   UNL     1       2.050   5.629  19.014  0.00  0.00    +0.000 A 
ATOM      2  N   UNL     1       2.432   6.669  18.296  0.00  0.00    +0.000 NA
ATOM      3  N   UNL     1       2.321   7.848  19.022  0.00  0.00    +0.000 NA
ATOM      4  C   UNL     1       1.920   7.613  20.248  0.00  0.00    +0.000 A 
ATOM      5  N   UNL     1       1.798   8.490  21.281  0.00  0.00    +0.000 N 
ATOM      6  C   UNL     1       0.945   9.553  21.277  0.00  0.00    +0.000 C 
ATOM      7  O   UNL     1       1.068  10.423  22.144  0.00  0.00    +0.000 OA
ATOM      8  S   UNL     1       1.551   5.994  20.611  0.00  0.00    +0.000 S 
ATOM      9  H   UNL     1       2.449   8.419  22.049  0.00  0.00    +0.000 HD
ENDROOT
BRANCH   1  10
ATOM     10  S   UNL     1       2.035   3.927  18.524  0.00  0.00    +0.000 S 
ATOM     11  O   UNL     1       1.554   3.949  17.152  0.00  0.00    +0.000 OA
ATOM     12  O   UNL     1       1.250   3.263  19.555  0.00  0.00    +0.000 OA
BRANCH  10  13
ATOM     13  N   UNL     1       3.595   3.294  18.539  0.00  0.00    +0.000 N 
BRANCH  13  14
ATOM     14  C   UNL     1       4.629   4.013  17.861  0.00  0.00    +0.000 A 
ATOM     15  C   UNL     1       5.504   4.811  18.605  0.00  0.00    +0.000 A 
ATOM     16  C   UNL     1       6.525   5.517  17.965  0.00  0.00    +0.000 A 
ATOM     17  C   UNL     1       6.679   5.421  16.583  0.00  0.00    +0.000 A 
ATOM     18  C   UNL     1       5.815   4.624  15.838  0.00  0.00    +0.000 A 
ATOM     19  C   UNL     1       4.786   3.923  16.478  0.00  0.00    +0.000 A 
ENDBRANCH  13  14
BRANCH  13  21
ATOM     20  C   UNL     1       4.591   1.854  20.313  0.00  0.00    +0.000 C 
ATOM     21  C   UNL     1       3.843   1.918  18.997  0.00  0.00    +0.000 C 
ENDBRANCH  13  21
ENDBRANCH  10  13
ENDBRANCH   1  10
BRANCH   6  22
ATOM     22  C   UNL     1      -0.214   9.575  20.286  0.00  0.00    +0.000 C 
BRANCH  22  23
ATOM     23  O   UNL     1      -0.328  10.930  19.847  0.00  0.00    +0.000 OA
BRANCH  23  24
ATOM     24  C   UNL     1      -1.587  11.454  19.780  0.00  0.00    +0.000 A 
ATOM     25  C   UNL     1      -1.957  12.236  20.875  0.00  0.00    +0.000 A 
ATOM     26  C   UNL     1      -3.223  12.824  20.929  0.00  0.00    +0.000 A 
ATOM     27  C   UNL     1      -4.118  12.669  19.872  0.00  0.00    +0.000 A 
ATOM     28  C   UNL     1      -3.746  11.900  18.769  0.00  0.00    +0.000 A 
ATOM     29  C   UNL     1      -2.481  11.294  18.723  0.00  0.00    +0.000 A 
BRANCH  27  30
ATOM     30  O   UNL     1      -5.332  13.273  20.047  0.00  0.00    +0.000 OA
ATOM     31  C   UNL     1      -6.378  12.441  20.533  0.00  0.00    +0.000 C 
ENDBRANCH  27  30
ENDBRANCH  23  24
ENDBRANCH  22  23
ENDBRANCH   6  22
TORSDOF 8
ENDMDL
MODEL 9
REMARK VINA RESULT:      -7.0      1.831      2.190
REMARK  Name = 
REMARK  10 active torsions:
REMARK  status: ('A' for Active; 'I' for Inactive)
REMARK    1  A    between atoms: C_1  and  C_2
REMARK    2  A    between atoms: C_2  and  N_3
REMARK    3  A    between atoms: N_3  and  C_4
REMARK    4  A    between atoms: N_3  and  S_10
REMARK    5  A    between atoms: S_10  and  C_13
REMARK    6  A    between atoms: C_18  and  C_20
REMARK    7  A    between atoms: C_20  and  O_21
REMARK    8  A    between atoms: O_21  and  C_22
REMARK    9  A    between atoms: C_25  and  O_26
REMARK   10  A    between atoms: O_26  and  C_27
REMARK                            x       y       z     vdW  Elec       q    Type
REMARK                         _______ _______ _______ _____ _____    ______ ____
ROOT
ATOM      1  C   UNL     1       2.400   7.056  19.635  0.00  0.00    +0.000 A 
ATOM      2  N   UNL     1       2.549   7.929  18.656  0.00  0.00    +0.000 NA
ATOM      3  N   UNL     1       1.945   9.141  18.968  0.00  0.00    +0.000 NA
ATOM      4  C   UNL     1       1.434   9.118  20.176  0.00  0.00    +0.000 A 
ATOM      5  N   UNL     1       0.863  10.137  20.872  0.00  0.00    +0.000 N 
ATOM      6  C   UNL     1      -0.270  10.784  20.478  0.00  0.00    +0.000 C 
ATOM      7  O   UNL     1      -0.583  11.839  21.035  0.00  0.00    +0.000 OA
ATOM      8  S   UNL     1       1.542   7.634  21.000  0.00  0.00    +0.000 S 
ATOM      9  H   UNL     1       1.358  10.512  21.667  0.00  0.00    +0.000 HD
ENDROOT
BRANCH   1  10
ATOM     10  S   UNL     1       3.012   5.395  19.701  0.00  0.00    +0.000 S 
ATOM     11  O   UNL     1       2.140   4.724  20.651  0.00  0.00    +0.000 OA
ATOM     12  O   UNL     1       4.429   5.547  20.002  0.00  0.00    +0.000 OA
BRANCH  10  13
ATOM     13  N   UNL     1       2.854   4.647  18.201  0.00  0.00    +0.000 N 
BRANCH  13  14
ATOM     14  C   UNL     1       3.938   4.743  17.273  0.00  0.00    +0.000 A 
ATOM     15  C   UNL     1       4.341   6.005  16.826  0.00  0.00    +0.000 A 
ATOM     16  C   UNL     1       5.401   6.124  15.924  0.00  0.00    +0.000 A 
ATOM     17  C   UNL     1       6.064   4.984  15.473  0.00  0.00    +0.000 A 
ATOM     18  C   UNL     1       5.670   3.725  15.919  0.00  0.00    +0.000 A 
ATOM     19  C   UNL     1       4.603   3.605  16.816  0.00  0.00    +0.000 A 
ENDBRANCH  13  14
BRANCH  13  21
ATOM     20  C   UNL     1       1.223   2.764  18.291  0.00  0.00    +0.000 C 
ATOM     21  C   UNL     1       1.549   4.141  17.748  0.00  0.00    +0.000 C 
ENDBRANCH  13  21
ENDBRANCH  10  13
ENDBRANCH   1  10
BRANCH   6  22
ATOM     22  C   UNL     1      -1.187  10.125  19.450  0.00  0.00    +0.000 C 
BRANCH  22  23
ATOM     23  O   UNL     1      -2.093  11.143  19.025  0.00  0.00    +0.000 OA
BRANCH  23  24
ATOM     24  C   UNL     1      -2.707  10.960  17.820  0.00  0.00    +0.000 A 
ATOM     25  C   UNL     1      -2.089  10.034  16.979  0.00  0.00    +0.000 A 
ATOM     26  C   UNL     1      -2.616   9.762  15.715  0.00  0.00    +0.000 A 
ATOM     27  C   UNL     1      -3.790  10.384  15.292  0.00  0.00    +0.000 A 
ATOM     28  C   UNL     1      -4.420  11.300  16.136  0.00  0.00    +0.000 A 
ATOM     29  C   UNL     1      -3.879  11.588  17.399  0.00  0.00    +0.000 A 
BRANCH  27  30
ATOM     30  O   UNL     1      -4.199  10.055  14.030  0.00  0.00    +0.000 OA
ATOM     31  C   UNL     1      -3.172   9.678  13.121  0.00  0.00    +0.000 C 
ENDBRANCH  27  30
ENDBRANCH  23  24
ENDBRANCH  22  23
ENDBRANCH   6  22
TORSDOF 8
ENDMDL
