MODEL 1
REMARK VINA RESULT:      -8.4      0.000      0.000
REMARK  Name = 
REMARK  6 active torsions:
REMARK  status: ('A' for Active; 'I' for Inactive)
REMARK    1  A    between atoms: C_1  and  O_2
REMARK    2  A    between atoms: O_2  and  C_3
REMARK    3  A    between atoms: C_6  and  O_7
REMARK    4  A    between atoms: O_7  and  C_8
REMARK    5  A    between atoms: C_12  and  C_14
REMARK    6  A    between atoms: C_17  and  C_18
REMARK                            x       y       z     vdW  Elec       q    Type
REMARK                         _______ _______ _______ _____ _____    ______ ____
ROOT
ATOM      1  C   UNL     1       2.887   7.407  18.217  0.00  0.00    +0.000 C 
ATOM      2  C   UNL     1       1.659   6.526  18.034  0.00  0.00    +0.000 C 
ATOM      3  C   UNL     1       1.934   5.013  17.987  0.00  0.00    +0.000 C 
ATOM      4  C   UNL     1       3.326   4.528  18.460  0.00  0.00    +0.000 C 
ATOM      5  C   UNL     1       3.740   3.251  17.683  0.00  0.00    +0.000 C 
ATOM      6  C   UNL     1       5.060   3.543  16.991  0.00  0.00    +0.000 C 
ATOM      7  N   UNL     1       5.555   4.794  17.513  0.00  0.00    +0.000 N 
ATOM      8  C   UNL     1       6.821   5.226  17.114  0.00  0.00    +0.000 C 
ATOM      9  O   UNL     1       7.502   4.584  16.316  0.00  0.00    +0.000 OA
ATOM     10  C   UNL     1       4.504   5.520  18.228  0.00  0.00    +0.000 C 
ATOM     11  C   UNL     1       4.074   6.789  17.496  0.00  0.00    +0.000 C 
ENDROOT
BRANCH   8  12
ATOM     12  C   UNL     1       7.381   6.516  17.610  0.00  0.00    +0.000 A 
ATOM     13  C   UNL     1       7.207   7.715  16.928  0.00  0.00    +0.000 A 
ATOM     14  C   UNL     1       7.848   8.878  17.363  0.00  0.00    +0.000 A 
ATOM     15  C   UNL     1       8.585   8.920  18.560  0.00  0.00    +0.000 A 
ATOM     16  C   UNL     1       8.671   7.721  19.292  0.00  0.00    +0.000 A 
ATOM     17  C   UNL     1       8.086   6.530  18.818  0.00  0.00    +0.000 A 
BRANCH  15  18
ATOM     18  C   UNL     1       9.220  10.185  19.010  0.00  0.00    +0.000 A 
ATOM     19  C   UNL     1       9.781  11.089  18.080  0.00  0.00    +0.000 A 
ATOM     20  C   UNL     1      10.424  12.262  18.484  0.00  0.00    +0.000 A 
ATOM     21  C   UNL     1      10.502  12.579  19.833  0.00  0.00    +0.000 A 
ATOM     22  C   UNL     1       9.940  11.722  20.774  0.00  0.00    +0.000 A 
ATOM     23  C   UNL     1       9.312  10.538  20.365  0.00  0.00    +0.000 A 
ENDBRANCH  15  18
ENDBRANCH   8  12
BRANCH   1  25
ATOM     24  C   UNL     1       1.440   9.296  18.005  0.00  0.00    +0.000 C 
ATOM     25  O   UNL     1       2.698   8.720  17.687  0.00  0.00    +0.000 OA
ENDBRANCH   1  25
BRANCH   4  26
ATOM     26  O   UNL     1       3.262   4.073  19.833  0.00  0.00    +0.000 OA
ATOM     27  C   UNL     1       1.989   3.958  20.444  0.00  0.00    +0.000 C 
ENDBRANCH   4  26
TORSDOF 4
ENDMDL
MODEL 2
REMARK VINA RESULT:      -8.3      1.218      1.661
REMARK  Name = 
REMARK  6 active torsions:
REMARK  status: ('A' for Active; 'I' for Inactive)
REMARK    1  A    between atoms: C_1  and  O_2
REMARK    2  A    between atoms: O_2  and  C_3
REMARK    3  A    between atoms: C_6  and  O_7
REMARK    4  A    between atoms: O_7  and  C_8
REMARK    5  A    between atoms: C_12  and  C_14
REMARK    6  A    between atoms: C_17  and  C_18
REMARK                            x       y       z     vdW  Elec       q    Type
REMARK                         _______ _______ _______ _____ _____    ______ ____
ROOT
ATOM      1  C   UNL     1       2.517   6.347  19.667  0.00  0.00    +0.000 C 
ATOM      2  C   UNL     1       1.351   5.386  19.858  0.00  0.00    +0.000 C 
ATOM      3  C   UNL     1       1.664   3.906  19.575  0.00  0.00    +0.000 C 
ATOM      4  C   UNL     1       3.154   3.502  19.467  0.00  0.00    +0.000 C 
ATOM      5  C   UNL     1       3.318   2.319  18.478  0.00  0.00    +0.000 C 
ATOM      6  C   UNL     1       4.277   2.761  17.387  0.00  0.00    +0.000 C 
ATOM      7  N   UNL     1       4.867   4.010  17.810  0.00  0.00    +0.000 N 
ATOM      8  C   UNL     1       5.877   4.567  17.023  0.00  0.00    +0.000 C 
ATOM      9  O   UNL     1       6.250   4.037  15.977  0.00  0.00    +0.000 OA
ATOM     10  C   UNL     1       4.116   4.599  18.920  0.00  0.00    +0.000 C 
ATOM     11  C   UNL     1       3.386   5.876  18.513  0.00  0.00    +0.000 C 
ENDROOT
BRANCH   8  12
ATOM     12  C   UNL     1       6.515   5.860  17.402  0.00  0.00    +0.000 A 
ATOM     13  C   UNL     1       6.085   7.081  16.894  0.00  0.00    +0.000 A 
ATOM     14  C   UNL     1       6.785   8.255  17.180  0.00  0.00    +0.000 A 
ATOM     15  C   UNL     1       7.865   8.279  18.081  0.00  0.00    +0.000 A 
ATOM     16  C   UNL     1       8.229   7.051  18.665  0.00  0.00    +0.000 A 
ATOM     17  C   UNL     1       7.570   5.853  18.321  0.00  0.00    +0.000 A 
BRANCH  15  18
ATOM     18  C   UNL     1       8.561   9.554  18.391  0.00  0.00    +0.000 A 
ATOM     19  C   UNL     1       9.326   9.697  19.570  0.00  0.00    +0.000 A 
ATOM     20  C   UNL     1       9.950  10.902  19.905  0.00  0.00    +0.000 A 
ATOM     21  C   UNL     1       9.849  11.993  19.053  0.00  0.00    +0.000 A 
ATOM     22  C   UNL     1       9.122  11.879  17.874  0.00  0.00    +0.000 A 
ATOM     23  C   UNL     1       8.483  10.675  17.551  0.00  0.00    +0.000 A 
ENDBRANCH  15  18
ENDBRANCH   8  12
BRANCH   1  25
ATOM     24  C   UNL     1       2.368   8.088  18.037  0.00  0.00    +0.000 C 
ATOM     25  O   UNL     1       2.082   7.674  19.365  0.00  0.00    +0.000 OA
ENDBRANCH   1  25
BRANCH   4  26
ATOM     26  O   UNL     1       3.619   2.950  20.722  0.00  0.00    +0.000 OA
ATOM     27  C   UNL     1       2.654   2.528  21.669  0.00  0.00    +0.000 C 
ENDBRANCH   4  26
TORSDOF 4
ENDMDL
MODEL 3
REMARK VINA RESULT:      -8.2      1.474      2.339
REMARK  Name = 
REMARK  6 active torsions:
REMARK  status: ('A' for Active; 'I' for Inactive)
REMARK    1  A    between atoms: C_1  and  O_2
REMARK    2  A    between atoms: O_2  and  C_3
REMARK    3  A    between atoms: C_6  and  O_7
REMARK    4  A    between atoms: O_7  and  C_8
REMARK    5  A    between atoms: C_12  and  C_14
REMARK    6  A    between atoms: C_17  and  C_18
REMARK                            x       y       z     vdW  Elec       q    Type
REMARK                         _______ _______ _______ _____ _____    ______ ____
ROOT
ATOM      1  C   UNL     1       2.588   6.078  20.047  0.00  0.00    +0.000 C 
ATOM      2  C   UNL     1       1.407   5.183  20.396  0.00  0.00    +0.000 C 
ATOM      3  C   UNL     1       1.590   3.691  20.068  0.00  0.00    +0.000 C 
ATOM      4  C   UNL     1       3.026   3.204  19.753  0.00  0.00    +0.000 C 
ATOM      5  C   UNL     1       2.981   2.024  18.748  0.00  0.00    +0.000 C 
ATOM      6  C   UNL     1       3.804   2.422  17.535  0.00  0.00    +0.000 C 
ATOM      7  N   UNL     1       4.517   3.630  17.874  0.00  0.00    +0.000 N 
ATOM      8  C   UNL     1       5.439   4.138  16.956  0.00  0.00    +0.000 C 
ATOM      9  O   UNL     1       5.632   3.598  15.867  0.00  0.00    +0.000 OA
ATOM     10  C   UNL     1       3.963   4.250  19.080  0.00  0.00    +0.000 C 
ATOM     11  C   UNL     1       3.260   5.571  18.781  0.00  0.00    +0.000 C 
ENDROOT
BRANCH   8  12
ATOM     12  C   UNL     1       6.198   5.388  17.246  0.00  0.00    +0.000 A 
ATOM     13  C   UNL     1       7.279   5.418  18.119  0.00  0.00    +0.000 A 
ATOM     14  C   UNL     1       7.887   6.631  18.455  0.00  0.00    +0.000 A 
ATOM     15  C   UNL     1       7.522   7.842  17.842  0.00  0.00    +0.000 A 
ATOM     16  C   UNL     1       6.491   7.782  16.886  0.00  0.00    +0.000 A 
ATOM     17  C   UNL     1       5.828   6.572  16.600  0.00  0.00    +0.000 A 
BRANCH  15  18
ATOM     18  C   UNL     1       8.217   9.106  18.196  0.00  0.00    +0.000 A 
ATOM     19  C   UNL     1       9.063   9.179  19.326  0.00  0.00    +0.000 A 
ATOM     20  C   UNL     1       9.690  10.369  19.705  0.00  0.00    +0.000 A 
ATOM     21  C   UNL     1       9.510  11.517  18.947  0.00  0.00    +0.000 A 
ATOM     22  C   UNL     1       8.701  11.475  17.816  0.00  0.00    +0.000 A 
ATOM     23  C   UNL     1       8.060  10.284  17.450  0.00  0.00    +0.000 A 
ENDBRANCH  15  18
ENDBRANCH   8  12
BRANCH   1  25
ATOM     24  C   UNL     1       2.345   7.851  18.463  0.00  0.00    +0.000 C 
ATOM     25  O   UNL     1       2.193   7.431  19.811  0.00  0.00    +0.000 OA
ENDBRANCH   1  25
BRANCH   4  26
ATOM     26  O   UNL     1       3.628   2.613  20.929  0.00  0.00    +0.000 OA
ATOM     27  C   UNL     1       4.747   1.762  20.756  0.00  0.00    +0.000 C 
ENDBRANCH   4  26
TORSDOF 4
ENDMDL
MODEL 4
REMARK VINA RESULT:      -8.1      0.430      1.016
REMARK  Name = 
REMARK  6 active torsions:
REMARK  status: ('A' for Active; 'I' for Inactive)
REMARK    1  A    between atoms: C_1  and  O_2
REMARK    2  A    between atoms: O_2  and  C_3
REMARK    3  A    between atoms: C_6  and  O_7
REMARK    4  A    between atoms: O_7  and  C_8
REMARK    5  A    between atoms: C_12  and  C_14
REMARK    6  A    between atoms: C_17  and  C_18
REMARK                            x       y       z     vdW  Elec       q    Type
REMARK                         _______ _______ _______ _____ _____    ______ ____
ROOT
ATOM      1  C   UNL     1       2.986   7.398  18.279  0.00  0.00    +0.000 C 
ATOM      2  C   UNL     1       1.728   6.553  18.141  0.00  0.00    +0.000 C 
ATOM      3  C   UNL     1       1.953   5.031  18.128  0.00  0.00    +0.000 C 
ATOM      4  C   UNL     1       3.338   4.514  18.587  0.00  0.00    +0.000 C 
ATOM      5  C   UNL     1       3.697   3.205  17.835  0.00  0.00    +0.000 C 
ATOM      6  C   UNL     1       5.012   3.437  17.112  0.00  0.00    +0.000 C 
ATOM      7  N   UNL     1       5.556   4.685  17.592  0.00  0.00    +0.000 N 
ATOM      8  C   UNL     1       6.828   5.066  17.159  0.00  0.00    +0.000 C 
ATOM      9  O   UNL     1       7.472   4.382  16.365  0.00  0.00    +0.000 OA
ATOM     10  C   UNL     1       4.542   5.462  18.308  0.00  0.00    +0.000 C 
ATOM     11  C   UNL     1       4.139   6.725  17.552  0.00  0.00    +0.000 C 
ENDROOT
BRANCH   8  12
ATOM     12  C   UNL     1       7.437   6.349  17.612  0.00  0.00    +0.000 A 
ATOM     13  C   UNL     1       8.135   6.460  18.809  0.00  0.00    +0.000 A 
ATOM     14  C   UNL     1       8.587   7.706  19.254  0.00  0.00    +0.000 A 
ATOM     15  C   UNL     1       8.470   8.866  18.467  0.00  0.00    +0.000 A 
ATOM     16  C   UNL     1       7.848   8.720  17.213  0.00  0.00    +0.000 A 
ATOM     17  C   UNL     1       7.326   7.479  16.795  0.00  0.00    +0.000 A 
BRANCH  15  18
ATOM     18  C   UNL     1       8.997  10.165  18.957  0.00  0.00    +0.000 A 
ATOM     19  C   UNL     1       9.217  11.242  18.070  0.00  0.00    +0.000 A 
ATOM     20  C   UNL     1       9.756  12.457  18.500  0.00  0.00    +0.000 A 
ATOM     21  C   UNL     1      10.066  12.640  19.841  0.00  0.00    +0.000 A 
ATOM     22  C   UNL     1       9.841  11.607  20.745  0.00  0.00    +0.000 A 
ATOM     23  C   UNL     1       9.317  10.385  20.305  0.00  0.00    +0.000 A 
ENDBRANCH  15  18
ENDBRANCH   8  12
BRANCH   1  25
ATOM     24  C   UNL     1       1.610   9.341  18.075  0.00  0.00    +0.000 C 
ATOM     25  O   UNL     1       2.828   8.703  17.719  0.00  0.00    +0.000 OA
ENDBRANCH   1  25
BRANCH   4  26
ATOM     26  O   UNL     1       3.287   4.095  19.972  0.00  0.00    +0.000 OA
ATOM     27  C   UNL     1       3.316   2.708  20.256  0.00  0.00    +0.000 C 
ENDBRANCH   4  26
TORSDOF 4
ENDMDL
MODEL 5
REMARK VINA RESULT:      -7.4      5.169      8.151
REMARK  Name = 
REMARK  6 active torsions:
REMARK  status: ('A' for Active; 'I' for Inactive)
REMARK    1  A    between atoms: C_1  and  O_2
REMARK    2  A    between atoms: O_2  and  C_3
REMARK    3  A    between atoms: C_6  and  O_7
REMARK    4  A    between atoms: O_7  and  C_8
REMARK    5  A    between atoms: C_12  and  C_14
REMARK    6  A    between atoms: C_17  and  C_18
REMARK                            x       y       z     vdW  Elec       q    Type
REMARK                         _______ _______ _______ _____ _____    ______ ____
ROOT
ATOM      1  C   UNL     1      -1.674  10.510  17.591  0.00  0.00    +0.000 C 
ATOM      2  C   UNL     1      -2.710  11.601  17.827  0.00  0.00    +0.000 C 
ATOM      3  C   UNL     1      -2.524  12.419  19.116  0.00  0.00    +0.000 C 
ATOM      4  C   UNL     1      -1.163  12.298  19.845  0.00  0.00    +0.000 C 
ATOM      5  C   UNL     1      -1.358  12.478  21.374  0.00  0.00    +0.000 C 
ATOM      6  C   UNL     1      -0.828  11.229  22.055  0.00  0.00    +0.000 C 
ATOM      7  N   UNL     1      -0.121  10.460  21.058  0.00  0.00    +0.000 N 
ATOM      8  C   UNL     1       0.562   9.312  21.466  0.00  0.00    +0.000 C 
ATOM      9  O   UNL     1       0.549   8.933  22.636  0.00  0.00    +0.000 OA
ATOM     10  C   UNL     1      -0.441  10.925  19.707  0.00  0.00    +0.000 C 
ATOM     11  C   UNL     1      -1.257   9.903  18.921  0.00  0.00    +0.000 C 
ENDROOT
BRANCH   8  12
ATOM     12  C   UNL     1       1.301   8.471  20.481  0.00  0.00    +0.000 A 
ATOM     13  C   UNL     1       1.591   7.132  20.714  0.00  0.00    +0.000 A 
ATOM     14  C   UNL     1       2.388   6.412  19.821  0.00  0.00    +0.000 A 
ATOM     15  C   UNL     1       2.823   6.961  18.601  0.00  0.00    +0.000 A 
ATOM     16  C   UNL     1       2.439   8.288  18.332  0.00  0.00    +0.000 A 
ATOM     17  C   UNL     1       1.696   9.039  19.266  0.00  0.00    +0.000 A 
BRANCH  15  18
ATOM     18  C   UNL     1       3.637   6.152  17.658  0.00  0.00    +0.000 A 
ATOM     19  C   UNL     1       4.538   6.769  16.761  0.00  0.00    +0.000 A 
ATOM     20  C   UNL     1       5.279   6.032  15.833  0.00  0.00    +0.000 A 
ATOM     21  C   UNL     1       5.159   4.649  15.794  0.00  0.00    +0.000 A 
ATOM     22  C   UNL     1       4.297   4.009  16.678  0.00  0.00    +0.000 A 
ATOM     23  C   UNL     1       3.544   4.754  17.594  0.00  0.00    +0.000 A 
ENDBRANCH  15  18
ENDBRANCH   8  12
BRANCH   1  25
ATOM     24  C   UNL     1      -2.837   9.894  15.597  0.00  0.00    +0.000 C 
ATOM     25  O   UNL     1      -2.177   9.451  16.774  0.00  0.00    +0.000 OA
ENDBRANCH   1  25
BRANCH   4  26
ATOM     26  O   UNL     1      -0.300  13.404  19.489  0.00  0.00    +0.000 OA
ATOM     27  C   UNL     1       0.737  13.172  18.552  0.00  0.00    +0.000 C 
ENDBRANCH   4  26
TORSDOF 4
ENDMDL
MODEL 6
REMARK VINA RESULT:      -7.2      5.235      8.263
REMARK  Name = 
REMARK  6 active torsions:
REMARK  status: ('A' for Active; 'I' for Inactive)
REMARK    1  A    between atoms: C_1  and  O_2
REMARK    2  A    between atoms: O_2  and  C_3
REMARK    3  A    between atoms: C_6  and  O_7
REMARK    4  A    between atoms: O_7  and  C_8
REMARK    5  A    between atoms: C_12  and  C_14
REMARK    6  A    between atoms: C_17  and  C_18
REMARK                            x       y       z     vdW  Elec       q    Type
REMARK                         _______ _______ _______ _____ _____    ______ ____
ROOT
ATOM      1  C   UNL     1      -1.636  10.579  17.583  0.00  0.00    +0.000 C 
ATOM      2  C   UNL     1      -2.724  11.627  17.765  0.00  0.00    +0.000 C 
ATOM      3  C   UNL     1      -2.664  12.417  19.085  0.00  0.00    +0.000 C 
ATOM      4  C   UNL     1      -1.359  12.321  19.912  0.00  0.00    +0.000 C 
ATOM      5  C   UNL     1      -1.674  12.454  21.425  0.00  0.00    +0.000 C 
ATOM      6  C   UNL     1      -1.153  11.205  22.114  0.00  0.00    +0.000 C 
ATOM      7  N   UNL     1      -0.346  10.487  21.156  0.00  0.00    +0.000 N 
ATOM      8  C   UNL     1       0.344   9.352  21.586  0.00  0.00    +0.000 C 
ATOM      9  O   UNL     1       0.257   8.942  22.742  0.00  0.00    +0.000 OA
ATOM     10  C   UNL     1      -0.580  10.977  19.796  0.00  0.00    +0.000 C 
ATOM     11  C   UNL     1      -1.298   9.950  18.925  0.00  0.00    +0.000 C 
ENDROOT
BRANCH   8  12
ATOM     12  C   UNL     1       1.184   8.563  20.639  0.00  0.00    +0.000 A 
ATOM     13  C   UNL     1       1.640   9.086  19.435  0.00  0.00    +0.000 A 
ATOM     14  C   UNL     1       2.321   8.276  18.522  0.00  0.00    +0.000 A 
ATOM     15  C   UNL     1       2.683   6.952  18.827  0.00  0.00    +0.000 A 
ATOM     16  C   UNL     1       2.301   6.466  20.091  0.00  0.00    +0.000 A 
ATOM     17  C   UNL     1       1.550   7.258  20.983  0.00  0.00    +0.000 A 
BRANCH  15  18
ATOM     18  C   UNL     1       3.443   6.134  17.847  0.00  0.00    +0.000 A 
ATOM     19  C   UNL     1       3.247   4.737  17.758  0.00  0.00    +0.000 A 
ATOM     20  C   UNL     1       3.984   3.942  16.876  0.00  0.00    +0.000 A 
ATOM     21  C   UNL     1       4.922   4.526  16.036  0.00  0.00    +0.000 A 
ATOM     22  C   UNL     1       5.123   5.901  16.083  0.00  0.00    +0.000 A 
ATOM     23  C   UNL     1       4.395   6.693  16.981  0.00  0.00    +0.000 A 
ENDBRANCH  15  18
ENDBRANCH   8  12
BRANCH   1  25
ATOM     24  C   UNL     1      -2.879   9.950  15.641  0.00  0.00    +0.000 C 
ATOM     25  O   UNL     1      -2.038   9.526  16.704  0.00  0.00    +0.000 OA
ENDBRANCH   1  25
BRANCH   4  26
ATOM     26  O   UNL     1      -0.511  13.464  19.650  0.00  0.00    +0.000 OA
ATOM     27  C   UNL     1       0.641  13.276  18.847  0.00  0.00    +0.000 C 
ENDBRANCH   4  26
TORSDOF 4
ENDMDL
MODEL 7
REMARK VINA RESULT:      -7.1      2.491      6.391
REMARK  Name = 
REMARK  6 active torsions:
REMARK  status: ('A' for Active; 'I' for Inactive)
REMARK    1  A    between atoms: C_1  and  O_2
REMARK    2  A    between atoms: O_2  and  C_3
REMARK    3  A    between atoms: C_6  and  O_7
REMARK    4  A    between atoms: O_7  and  C_8
REMARK    5  A    between atoms: C_12  and  C_14
REMARK    6  A    between atoms: C_17  and  C_18
REMARK                            x       y       z     vdW  Elec       q    Type
REMARK                         _______ _______ _______ _____ _____    ______ ____
ROOT
ATOM      1  C   UNL     1       6.381   7.052  17.095  0.00  0.00    +0.000 C 
ATOM      2  C   UNL     1       7.364   5.952  16.719  0.00  0.00    +0.000 C 
ATOM      3  C   UNL     1       6.765   4.538  16.623  0.00  0.00    +0.000 C 
ATOM      4  C   UNL     1       5.223   4.421  16.575  0.00  0.00    +0.000 C 
ATOM      5  C   UNL     1       4.766   3.096  17.241  0.00  0.00    +0.000 C 
ATOM      6  C   UNL     1       3.816   3.454  18.371  0.00  0.00    +0.000 C 
ATOM      7  N   UNL     1       3.501   4.857  18.243  0.00  0.00    +0.000 N 
ATOM      8  C   UNL     1       2.547   5.405  19.104  0.00  0.00    +0.000 C 
ATOM      9  O   UNL     1       2.000   4.731  19.976  0.00  0.00    +0.000 OA
ATOM     10  C   UNL     1       4.435   5.528  17.337  0.00  0.00    +0.000 C 
ATOM     11  C   UNL     1       5.348   6.508  18.068  0.00  0.00    +0.000 C 
ENDROOT
BRANCH   8  12
ATOM     12  C   UNL     1       2.188   6.850  19.027  0.00  0.00    +0.000 A 
ATOM     13  C   UNL     1       1.894   7.605  20.157  0.00  0.00    +0.000 A 
ATOM     14  C   UNL     1       1.446   8.923  20.032  0.00  0.00    +0.000 A 
ATOM     15  C   UNL     1       1.391   9.578  18.789  0.00  0.00    +0.000 A 
ATOM     16  C   UNL     1       1.786   8.831  17.663  0.00  0.00    +0.000 A 
ATOM     17  C   UNL     1       2.169   7.479  17.779  0.00  0.00    +0.000 A 
BRANCH  15  18
ATOM     18  C   UNL     1       0.947  10.992  18.700  0.00  0.00    +0.000 A 
ATOM     19  C   UNL     1       1.885  12.046  18.615  0.00  0.00    +0.000 A 
ATOM     20  C   UNL     1       1.490  13.386  18.578  0.00  0.00    +0.000 A 
ATOM     21  C   UNL     1       0.141  13.710  18.598  0.00  0.00    +0.000 A 
ATOM     22  C   UNL     1      -0.809  12.696  18.659  0.00  0.00    +0.000 A 
ATOM     23  C   UNL     1      -0.408  11.355  18.714  0.00  0.00    +0.000 A 
ENDBRANCH  15  18
ENDBRANCH   8  12
BRANCH   1  25
ATOM     24  C   UNL     1       8.252   7.835  18.358  0.00  0.00    +0.000 C 
ATOM     25  O   UNL     1       7.024   8.162  17.726  0.00  0.00    +0.000 OA
ENDBRANCH   1  25
BRANCH   4  26
ATOM     26  O   UNL     1       4.770   4.276  15.208  0.00  0.00    +0.000 OA
ATOM     27  C   UNL     1       5.742   4.096  14.194  0.00  0.00    +0.000 C 
ENDBRANCH   4  26
TORSDOF 4
ENDMDL
MODEL 8
REMARK VINA RESULT:      -7.0      3.573      6.812
REMARK  Name = 
REMARK  6 active torsions:
REMARK  status: ('A' for Active; 'I' for Inactive)
REMARK    1  A    between atoms: C_1  and  O_2
REMARK    2  A    between atoms: O_2  and  C_3
REMARK    3  A    between atoms: C_6  and  O_7
REMARK    4  A    between atoms: O_7  and  C_8
REMARK    5  A    between atoms: C_12  and  C_14
REMARK    6  A    between atoms: C_17  and  C_18
REMARK                            x       y       z     vdW  Elec       q    Type
REMARK                         _______ _______ _______ _____ _____    ______ ____
ROOT
ATOM      1  C   UNL     1       2.716   3.978  20.385  0.00  0.00    +0.000 C 
ATOM      2  C   UNL     1       3.572   2.749  20.113  0.00  0.00    +0.000 C 
ATOM      3  C   UNL     1       4.819   2.993  19.245  0.00  0.00    +0.000 C 
ATOM      4  C   UNL     1       5.259   4.461  19.031  0.00  0.00    +0.000 C 
ATOM      5  C   UNL     1       5.932   4.621  17.643  0.00  0.00    +0.000 C 
ATOM      6  C   UNL     1       5.154   5.675  16.874  0.00  0.00    +0.000 C 
ATOM      7  N   UNL     1       4.247   6.306  17.803  0.00  0.00    +0.000 N 
ATOM      8  C   UNL     1       3.496   7.397  17.360  0.00  0.00    +0.000 C 
ATOM      9  O   UNL     1       3.570   7.806  16.202  0.00  0.00    +0.000 OA
ATOM     10  C   UNL     1       4.116   5.519  19.030  0.00  0.00    +0.000 C 
ATOM     11  C   UNL     1       2.731   4.893  19.172  0.00  0.00    +0.000 C 
ENDROOT
BRANCH   8  12
ATOM     12  C   UNL     1       2.534   8.083  18.270  0.00  0.00    +0.000 A 
ATOM     13  C   UNL     1       1.790   9.188  17.872  0.00  0.00    +0.000 A 
ATOM     14  C   UNL     1       0.991   9.874  18.790  0.00  0.00    +0.000 A 
ATOM     15  C   UNL     1       0.805   9.414  20.106  0.00  0.00    +0.000 A 
ATOM     16  C   UNL     1       1.487   8.237  20.467  0.00  0.00    +0.000 A 
ATOM     17  C   UNL     1       2.351   7.585  19.564  0.00  0.00    +0.000 A 
BRANCH  15  18
ATOM     18  C   UNL     1      -0.083  10.148  21.043  0.00  0.00    +0.000 A 
ATOM     19  C   UNL     1      -0.797  11.293  20.622  0.00  0.00    +0.000 A 
ATOM     20  C   UNL     1      -1.602  12.026  21.498  0.00  0.00    +0.000 A 
ATOM     21  C   UNL     1      -1.738  11.619  22.818  0.00  0.00    +0.000 A 
ATOM     22  C   UNL     1      -1.066  10.483  23.258  0.00  0.00    +0.000 A 
ATOM     23  C   UNL     1      -0.247   9.762  22.381  0.00  0.00    +0.000 A 
ENDBRANCH  15  18
ENDBRANCH   8  12
BRANCH   1  25
ATOM     24  C   UNL     1       0.718   2.924  19.606  0.00  0.00    +0.000 C 
ATOM     25  O   UNL     1       1.353   3.642  20.654  0.00  0.00    +0.000 OA
ENDBRANCH   1  25
BRANCH   4  26
ATOM     26  O   UNL     1       6.319   4.810  19.954  0.00  0.00    +0.000 OA
ATOM     27  C   UNL     1       7.410   5.572  19.467  0.00  0.00    +0.000 C 
ENDBRANCH   4  26
TORSDOF 4
ENDMDL
MODEL 9
REMARK VINA RESULT:      -7.0      2.436      6.265
REMARK  Name = 
REMARK  6 active torsions:
REMARK  status: ('A' for Active; 'I' for Inactive)
REMARK    1  A    between atoms: C_1  and  O_2
REMARK    2  A    between atoms: O_2  and  C_3
REMARK    3  A    between atoms: C_6  and  O_7
REMARK    4  A    between atoms: O_7  and  C_8
REMARK    5  A    between atoms: C_12  and  C_14
REMARK    6  A    between atoms: C_17  and  C_18
REMARK                            x       y       z     vdW  Elec       q    Type
REMARK                         _______ _______ _______ _____ _____    ______ ____
ROOT
ATOM      1  C   UNL     1       6.374   7.131  17.046  0.00  0.00    +0.000 C 
ATOM      2  C   UNL     1       7.398   6.061  16.692  0.00  0.00    +0.000 C 
ATOM      3  C   UNL     1       6.850   4.626  16.605  0.00  0.00    +0.000 C 
ATOM      4  C   UNL     1       5.312   4.456  16.543  0.00  0.00    +0.000 C 
ATOM      5  C   UNL     1       4.894   3.123  17.219  0.00  0.00    +0.000 C 
ATOM      6  C   UNL     1       3.922   3.460  18.335  0.00  0.00    +0.000 C 
ATOM      7  N   UNL     1       3.559   4.849  18.189  0.00  0.00    +0.000 N 
ATOM      8  C   UNL     1       2.579   5.373  19.034  0.00  0.00    +0.000 C 
ATOM      9  O   UNL     1       2.046   4.690  19.908  0.00  0.00    +0.000 OA
ATOM     10  C   UNL     1       4.479   5.542  17.285  0.00  0.00    +0.000 C 
ATOM     11  C   UNL     1       5.351   6.561  18.015  0.00  0.00    +0.000 C 
ENDROOT
BRANCH   8  12
ATOM     12  C   UNL     1       2.171   6.804  18.939  0.00  0.00    +0.000 A 
ATOM     13  C   UNL     1       2.082   7.473  17.723  0.00  0.00    +0.000 A 
ATOM     14  C   UNL     1       1.814   8.844  17.686  0.00  0.00    +0.000 A 
ATOM     15  C   UNL     1       1.502   9.574  18.847  0.00  0.00    +0.000 A 
ATOM     16  C   UNL     1       1.499   8.862  20.060  0.00  0.00    +0.000 A 
ATOM     17  C   UNL     1       1.841   7.496  20.108  0.00  0.00    +0.000 A 
BRANCH  15  18
ATOM     18  C   UNL     1       1.183  11.023  18.763  0.00  0.00    +0.000 A 
ATOM     19  C   UNL     1      -0.133  11.492  18.976  0.00  0.00    +0.000 A 
ATOM     20  C   UNL     1      -0.465  12.843  18.856  0.00  0.00    +0.000 A 
ATOM     21  C   UNL     1       0.519  13.772  18.546  0.00  0.00    +0.000 A 
ATOM     22  C   UNL     1       1.829  13.347  18.352  0.00  0.00    +0.000 A 
ATOM     23  C   UNL     1       2.154  11.988  18.456  0.00  0.00    +0.000 A 
ENDBRANCH  15  18
ENDBRANCH   8  12
BRANCH   1  25
ATOM     24  C   UNL     1       8.263   8.021  18.208  0.00  0.00    +0.000 C 
ATOM     25  O   UNL     1       6.971   8.268  17.671  0.00  0.00    +0.000 OA
ENDBRANCH   1  25
BRANCH   4  26
ATOM     26  O   UNL     1       4.879   4.281  15.173  0.00  0.00    +0.000 OA
ATOM     27  C   UNL     1       5.863   4.048  14.182  0.00  0.00    +0.000 C 
ENDBRANCH   4  26
TORSDOF 4
ENDMDL
