MODEL 1
REMARK VINA RESULT:      -7.4      0.000      0.000
REMARK  Name = 
REMARK  5 active torsions:
REMARK  status: ('A' for Active; 'I' for Inactive)
REMARK    1  A    between atoms: P_2  and  C_3
REMARK    2  A    between atoms: P_2  and  C_9
REMARK    3  A    between atoms: P_2  and  C_15
REMARK    4  A    between atoms: C_15  and  O_16
REMARK    5  A    between atoms: C_15  and  C_17
REMARK                            x       y       z     vdW  Elec       q    Type
REMARK                         _______ _______ _______ _____ _____    ______ ____
ROOT
ATOM      1  O   UNL     1       6.205   5.555  19.042  0.00  0.00    +0.000 OA
ATOM      2  P   UNL     1       5.025   4.622  18.681  0.00  0.00    +0.000 P 
ENDROOT
BRANCH   2   3
ATOM      3  C   UNL     1       3.760   6.112  18.912  0.00  0.00    +0.000 A 
ATOM      4  C   UNL     1       2.958   6.296  20.044  0.00  0.00    +0.000 A 
ATOM      5  C   UNL     1       2.019   7.339  20.094  0.00  0.00    +0.000 A 
ATOM      6  C   UNL     1       1.828   8.164  18.993  0.00  0.00    +0.000 A 
ATOM      7  C   UNL     1       2.571   7.949  17.835  0.00  0.00    +0.000 A 
ATOM      8  C   UNL     1       3.538   6.935  17.792  0.00  0.00    +0.000 A 
ENDBRANCH   2   3
BRANCH   2   9
ATOM      9  C   UNL     1       5.697   4.515  16.822  0.00  0.00    +0.000 A 
ATOM     10  C   UNL     1       7.052   4.873  16.646  0.00  0.00    +0.000 A 
ATOM     11  C   UNL     1       7.609   4.922  15.367  0.00  0.00    +0.000 A 
ATOM     12  C   UNL     1       6.824   4.647  14.250  0.00  0.00    +0.000 A 
ATOM     13  C   UNL     1       5.492   4.272  14.418  0.00  0.00    +0.000 A 
ATOM     14  C   UNL     1       4.940   4.167  15.699  0.00  0.00    +0.000 A 
ENDBRANCH   2   9
BRANCH   2  15
ATOM     15  C   UNL     1       3.629   3.518  18.253  0.00  0.00    +0.000 C 
BRANCH  15  16
ATOM     16  C   UNL     1       2.606   3.354  19.311  0.00  0.00    +0.000 A 
ATOM     17  C   UNL     1       1.226   3.390  19.245  0.00  0.00    +0.000 A 
ATOM     18  C   UNL     1       0.753   2.934  20.496  0.00  0.00    +0.000 A 
ATOM     19  C   UNL     1       1.871   2.663  21.247  0.00  0.00    +0.000 A 
ATOM     20  O   UNL     1       3.006   2.912  20.534  0.00  0.00    +0.000 OA
ENDBRANCH  15  16
BRANCH  15  21
ATOM     21  O   UNL     1       3.983   2.171  17.894  0.00  0.00    +0.000 OA
ATOM     22  H   UNL     1       3.171   1.632  17.921  0.00  0.00    +0.000 HD
ENDBRANCH  15  21
ENDBRANCH   2  15
TORSDOF 5
ENDMDL
MODEL 2
REMARK VINA RESULT:      -7.4      1.760      5.387
REMARK  Name = 
REMARK  5 active torsions:
REMARK  status: ('A' for Active; 'I' for Inactive)
REMARK    1  A    between atoms: P_2  and  C_3
REMARK    2  A    between atoms: P_2  and  C_9
REMARK    3  A    between atoms: P_2  and  C_15
REMARK    4  A    between atoms: C_15  and  O_16
REMARK    5  A    between atoms: C_15  and  C_17
REMARK                            x       y       z     vdW  Elec       q    Type
REMARK                         _______ _______ _______ _____ _____    ______ ____
ROOT
ATOM      1  O   UNL     1       5.574   5.282  19.859  0.00  0.00    +0.000 OA
ATOM      2  P   UNL     1       4.417   5.826  18.986  0.00  0.00    +0.000 P 
ENDROOT
BRANCH   2   3
ATOM      3  C   UNL     1       5.371   5.273  17.356  0.00  0.00    +0.000 A 
ATOM      4  C   UNL     1       6.559   4.533  17.351  0.00  0.00    +0.000 A 
ATOM      5  C   UNL     1       7.221   4.252  16.145  0.00  0.00    +0.000 A 
ATOM      6  C   UNL     1       6.742   4.762  14.946  0.00  0.00    +0.000 A 
ATOM      7  C   UNL     1       5.599   5.558  14.945  0.00  0.00    +0.000 A 
ATOM      8  C   UNL     1       4.910   5.809  16.139  0.00  0.00    +0.000 A 
ENDBRANCH   2   3
BRANCH   2   9
ATOM      9  C   UNL     1       3.243   4.387  19.670  0.00  0.00    +0.000 A 
ATOM     10  C   UNL     1       3.293   3.171  18.953  0.00  0.00    +0.000 A 
ATOM     11  C   UNL     1       2.442   2.117  19.289  0.00  0.00    +0.000 A 
ATOM     12  C   UNL     1       1.515   2.266  20.317  0.00  0.00    +0.000 A 
ATOM     13  C   UNL     1       1.474   3.455  21.043  0.00  0.00    +0.000 A 
ATOM     14  C   UNL     1       2.360   4.497  20.749  0.00  0.00    +0.000 A 
ENDBRANCH   2   9
BRANCH   2  15
ATOM     15  C   UNL     1       3.049   6.469  17.954  0.00  0.00    +0.000 C 
BRANCH  15  16
ATOM     16  C   UNL     1       2.437   7.730  18.432  0.00  0.00    +0.000 A 
ATOM     17  C   UNL     1       2.029   8.854  17.738  0.00  0.00    +0.000 A 
ATOM     18  C   UNL     1       1.299   9.646  18.652  0.00  0.00    +0.000 A 
ATOM     19  C   UNL     1       1.319   8.964  19.844  0.00  0.00    +0.000 A 
ATOM     20  O   UNL     1       2.007   7.793  19.721  0.00  0.00    +0.000 OA
ENDBRANCH  15  16
BRANCH  15  21
ATOM     21  O   UNL     1       1.931   5.582  17.773  0.00  0.00    +0.000 OA
ATOM     22  H   UNL     1       1.537   5.773  16.902  0.00  0.00    +0.000 HD
ENDBRANCH  15  21
ENDBRANCH   2  15
TORSDOF 5
ENDMDL
MODEL 3
REMARK VINA RESULT:      -7.4      0.203      1.068
REMARK  Name = 
REMARK  5 active torsions:
REMARK  status: ('A' for Active; 'I' for Inactive)
REMARK    1  A    between atoms: P_2  and  C_3
REMARK    2  A    between atoms: P_2  and  C_9
REMARK    3  A    between atoms: P_2  and  C_15
REMARK    4  A    between atoms: C_15  and  O_16
REMARK    5  A    between atoms: C_15  and  C_17
REMARK                            x       y       z     vdW  Elec       q    Type
REMARK                         _______ _______ _______ _____ _____    ______ ____
ROOT
ATOM      1  O   UNL     1       6.018   5.858  19.007  0.00  0.00    +0.000 OA
ATOM      2  P   UNL     1       4.917   4.810  18.713  0.00  0.00    +0.000 P 
ENDROOT
BRANCH   2   3
ATOM      3  C   UNL     1       3.541   6.214  18.801  0.00  0.00    +0.000 A 
ATOM      4  C   UNL     1       3.289   7.135  17.778  0.00  0.00    +0.000 A 
ATOM      5  C   UNL     1       2.345   8.159  17.954  0.00  0.00    +0.000 A 
ATOM      6  C   UNL     1       1.695   8.312  19.172  0.00  0.00    +0.000 A 
ATOM      7  C   UNL     1       1.987   7.445  20.221  0.00  0.00    +0.000 A 
ATOM      8  C   UNL     1       2.899   6.395  20.039  0.00  0.00    +0.000 A 
ENDBRANCH   2   3
BRANCH   2   9
ATOM      9  C   UNL     1       5.630   4.597  16.879  0.00  0.00    +0.000 A 
ATOM     10  C   UNL     1       7.005   4.878  16.726  0.00  0.00    +0.000 A 
ATOM     11  C   UNL     1       7.596   4.850  15.462  0.00  0.00    +0.000 A 
ATOM     12  C   UNL     1       6.827   4.572  14.335  0.00  0.00    +0.000 A 
ATOM     13  C   UNL     1       5.473   4.272  14.481  0.00  0.00    +0.000 A 
ATOM     14  C   UNL     1       4.884   4.244  15.749  0.00  0.00    +0.000 A 
ENDBRANCH   2   9
BRANCH   2  15
ATOM     15  C   UNL     1       3.616   3.571  18.365  0.00  0.00    +0.000 C 
BRANCH  15  16
ATOM     16  C   UNL     1       2.625   3.374  19.448  0.00  0.00    +0.000 A 
ATOM     17  C   UNL     1       1.245   3.324  19.410  0.00  0.00    +0.000 A 
ATOM     18  C   UNL     1       0.825   2.876  20.681  0.00  0.00    +0.000 A 
ATOM     19  C   UNL     1       1.970   2.693  21.417  0.00  0.00    +0.000 A 
ATOM     20  O   UNL     1       3.075   2.991  20.674  0.00  0.00    +0.000 OA
ENDBRANCH  15  16
BRANCH  15  21
ATOM     21  O   UNL     1       4.080   2.242  18.068  0.00  0.00    +0.000 OA
ATOM     22  H   UNL     1       3.516   1.881  17.360  0.00  0.00    +0.000 HD
ENDBRANCH  15  21
ENDBRANCH   2  15
TORSDOF 5
ENDMDL
MODEL 4
REMARK VINA RESULT:      -7.4      1.758      5.360
REMARK  Name = 
REMARK  5 active torsions:
REMARK  status: ('A' for Active; 'I' for Inactive)
REMARK    1  A    between atoms: P_2  and  C_3
REMARK    2  A    between atoms: P_2  and  C_9
REMARK    3  A    between atoms: P_2  and  C_15
REMARK    4  A    between atoms: C_15  and  O_16
REMARK    5  A    between atoms: C_15  and  C_17
REMARK                            x       y       z     vdW  Elec       q    Type
REMARK                         _______ _______ _______ _____ _____    ______ ____
ROOT
ATOM      1  O   UNL     1       5.431   5.166  19.881  0.00  0.00    +0.000 OA
ATOM      2  P   UNL     1       4.316   5.781  18.999  0.00  0.00    +0.000 P 
ENDROOT
BRANCH   2   3
ATOM      3  C   UNL     1       5.394   5.451  17.386  0.00  0.00    +0.000 A 
ATOM      4  C   UNL     1       4.935   5.646  16.078  0.00  0.00    +0.000 A 
ATOM      5  C   UNL     1       5.740   5.306  14.979  0.00  0.00    +0.000 A 
ATOM      6  C   UNL     1       6.980   4.711  15.175  0.00  0.00    +0.000 A 
ATOM      7  C   UNL     1       7.419   4.448  16.470  0.00  0.00    +0.000 A 
ATOM      8  C   UNL     1       6.638   4.821  17.573  0.00  0.00    +0.000 A 
ENDBRANCH   2   3
BRANCH   2   9
ATOM      9  C   UNL     1       3.149   4.241  19.426  0.00  0.00    +0.000 A 
ATOM     10  C   UNL     1       3.349   3.090  18.633  0.00  0.00    +0.000 A 
ATOM     11  C   UNL     1       2.523   1.975  18.783  0.00  0.00    +0.000 A 
ATOM     12  C   UNL     1       1.473   2.000  19.698  0.00  0.00    +0.000 A 
ATOM     13  C   UNL     1       1.283   3.124  20.500  0.00  0.00    +0.000 A 
ATOM     14  C   UNL     1       2.140   4.225  20.394  0.00  0.00    +0.000 A 
ENDBRANCH   2   9
BRANCH   2  15
ATOM     15  C   UNL     1       2.999   6.507  17.957  0.00  0.00    +0.000 C 
BRANCH  15  16
ATOM     16  C   UNL     1       2.391   7.751  18.483  0.00  0.00    +0.000 A 
ATOM     17  C   UNL     1       1.944   8.883  17.828  0.00  0.00    +0.000 A 
ATOM     18  C   UNL     1       1.242   9.648  18.785  0.00  0.00    +0.000 A 
ATOM     19  C   UNL     1       1.317   8.944  19.962  0.00  0.00    +0.000 A 
ATOM     20  O   UNL     1       2.013   7.784  19.789  0.00  0.00    +0.000 OA
ENDBRANCH  15  16
BRANCH  15  21
ATOM     21  O   UNL     1       1.873   5.653  17.686  0.00  0.00    +0.000 OA
ATOM     22  H   UNL     1       1.093   6.043  18.122  0.00  0.00    +0.000 HD
ENDBRANCH  15  21
ENDBRANCH   2  15
TORSDOF 5
ENDMDL
MODEL 5
REMARK VINA RESULT:      -7.3      2.091      5.499
REMARK  Name = 
REMARK  5 active torsions:
REMARK  status: ('A' for Active; 'I' for Inactive)
REMARK    1  A    between atoms: P_2  and  C_3
REMARK    2  A    between atoms: P_2  and  C_9
REMARK    3  A    between atoms: P_2  and  C_15
REMARK    4  A    between atoms: C_15  and  O_16
REMARK    5  A    between atoms: C_15  and  C_17
REMARK                            x       y       z     vdW  Elec       q    Type
REMARK                         _______ _______ _______ _____ _____    ______ ____
ROOT
ATOM      1  O   UNL     1       3.237   6.858  18.454  0.00  0.00    +0.000 OA
ATOM      2  P   UNL     1       3.681   5.529  17.796  0.00  0.00    +0.000 P 
ENDROOT
BRANCH   2   3
ATOM      3  C   UNL     1       5.569   5.994  18.099  0.00  0.00    +0.000 A 
ATOM      4  C   UNL     1       6.364   5.443  19.111  0.00  0.00    +0.000 A 
ATOM      5  C   UNL     1       7.678   5.893  19.312  0.00  0.00    +0.000 A 
ATOM      6  C   UNL     1       8.187   6.937  18.551  0.00  0.00    +0.000 A 
ATOM      7  C   UNL     1       7.383   7.541  17.587  0.00  0.00    +0.000 A 
ATOM      8  C   UNL     1       6.084   7.071  17.353  0.00  0.00    +0.000 A 
ENDBRANCH   2   3
BRANCH   2   9
ATOM      9  C   UNL     1       2.918   4.533  19.326  0.00  0.00    +0.000 A 
ATOM     10  C   UNL     1       3.694   3.449  19.792  0.00  0.00    +0.000 A 
ATOM     11  C   UNL     1       3.213   2.619  20.807  0.00  0.00    +0.000 A 
ATOM     12  C   UNL     1       1.949   2.838  21.349  0.00  0.00    +0.000 A 
ATOM     13  C   UNL     1       1.187   3.919  20.910  0.00  0.00    +0.000 A 
ATOM     14  C   UNL     1       1.683   4.787  19.932  0.00  0.00    +0.000 A 
ENDBRANCH   2   9
BRANCH   2  15
ATOM     15  C   UNL     1       4.204   3.957  17.018  0.00  0.00    +0.000 C 
BRANCH  15  16
ATOM     16  C   UNL     1       5.167   4.095  15.900  0.00  0.00    +0.000 A 
ATOM     17  C   UNL     1       5.008   4.624  14.633  0.00  0.00    +0.000 A 
ATOM     18  C   UNL     1       6.301   4.722  14.075  0.00  0.00    +0.000 A 
ATOM     19  C   UNL     1       7.163   4.237  15.028  0.00  0.00    +0.000 A 
ATOM     20  O   UNL     1       6.483   3.854  16.147  0.00  0.00    +0.000 OA
ENDBRANCH  15  16
BRANCH  15  21
ATOM     21  O   UNL     1       3.148   3.145  16.474  0.00  0.00    +0.000 OA
ATOM     22  H   UNL     1       3.550   2.511  15.853  0.00  0.00    +0.000 HD
ENDBRANCH  15  21
ENDBRANCH   2  15
TORSDOF 5
ENDMDL
MODEL 6
REMARK VINA RESULT:      -7.3      2.077      5.693
REMARK  Name = 
REMARK  5 active torsions:
REMARK  status: ('A' for Active; 'I' for Inactive)
REMARK    1  A    between atoms: P_2  and  C_3
REMARK    2  A    between atoms: P_2  and  C_9
REMARK    3  A    between atoms: P_2  and  C_15
REMARK    4  A    between atoms: C_15  and  O_16
REMARK    5  A    between atoms: C_15  and  C_17
REMARK                            x       y       z     vdW  Elec       q    Type
REMARK                         _______ _______ _______ _____ _____    ______ ____
ROOT
ATOM      1  O   UNL     1       3.091   6.579  18.234  0.00  0.00    +0.000 OA
ATOM      2  P   UNL     1       3.768   5.301  17.683  0.00  0.00    +0.000 P 
ENDROOT
BRANCH   2   3
ATOM      3  C   UNL     1       5.542   6.051  18.088  0.00  0.00    +0.000 A 
ATOM      4  C   UNL     1       6.157   7.065  17.345  0.00  0.00    +0.000 A 
ATOM      5  C   UNL     1       7.461   7.485  17.651  0.00  0.00    +0.000 A 
ATOM      6  C   UNL     1       8.184   6.855  18.655  0.00  0.00    +0.000 A 
ATOM      7  C   UNL     1       7.609   5.799  19.357  0.00  0.00    +0.000 A 
ATOM      8  C   UNL     1       6.293   5.400  19.084  0.00  0.00    +0.000 A 
ENDBRANCH   2   3
BRANCH   2   9
ATOM      9  C   UNL     1       3.041   4.275  19.211  0.00  0.00    +0.000 A 
ATOM     10  C   UNL     1       1.765   4.679  19.661  0.00  0.00    +0.000 A 
ATOM     11  C   UNL     1       1.193   4.087  20.789  0.00  0.00    +0.000 A 
ATOM     12  C   UNL     1       1.890   3.112  21.498  0.00  0.00    +0.000 A 
ATOM     13  C   UNL     1       3.141   2.693  21.047  0.00  0.00    +0.000 A 
ATOM     14  C   UNL     1       3.698   3.241  19.887  0.00  0.00    +0.000 A 
ENDBRANCH   2   9
BRANCH   2  15
ATOM     15  C   UNL     1       4.569   3.790  17.032  0.00  0.00    +0.000 C 
BRANCH  15  16
ATOM     16  C   UNL     1       5.425   3.991  15.841  0.00  0.00    +0.000 A 
ATOM     17  C   UNL     1       5.098   4.331  14.542  0.00  0.00    +0.000 A 
ATOM     18  C   UNL     1       6.314   4.623  13.886  0.00  0.00    +0.000 A 
ATOM     19  C   UNL     1       7.303   4.432  14.819  0.00  0.00    +0.000 A 
ATOM     20  O   UNL     1       6.773   4.050  16.015  0.00  0.00    +0.000 OA
ENDBRANCH  15  16
BRANCH  15  21
ATOM     21  O   UNL     1       3.679   2.725  16.649  0.00  0.00    +0.000 OA
ATOM     22  H   UNL     1       3.201   2.435  17.447  0.00  0.00    +0.000 HD
ENDBRANCH  15  21
ENDBRANCH   2  15
TORSDOF 5
ENDMDL
MODEL 7
REMARK VINA RESULT:      -7.3      2.060      5.585
REMARK  Name = 
REMARK  5 active torsions:
REMARK  status: ('A' for Active; 'I' for Inactive)
REMARK    1  A    between atoms: P_2  and  C_3
REMARK    2  A    between atoms: P_2  and  C_9
REMARK    3  A    between atoms: P_2  and  C_15
REMARK    4  A    between atoms: C_15  and  O_16
REMARK    5  A    between atoms: C_15  and  C_17
REMARK                            x       y       z     vdW  Elec       q    Type
REMARK                         _______ _______ _______ _____ _____    ______ ____
ROOT
ATOM      1  O   UNL     1       3.045   6.791  18.413  0.00  0.00    +0.000 OA
ATOM      2  P   UNL     1       3.614   5.483  17.811  0.00  0.00    +0.000 P 
ENDROOT
BRANCH   2   3
ATOM      3  C   UNL     1       5.448   6.113  18.146  0.00  0.00    +0.000 A 
ATOM      4  C   UNL     1       6.115   7.055  17.354  0.00  0.00    +0.000 A 
ATOM      5  C   UNL     1       7.454   7.388  17.613  0.00  0.00    +0.000 A 
ATOM      6  C   UNL     1       8.156   6.737  18.619  0.00  0.00    +0.000 A 
ATOM      7  C   UNL     1       7.526   5.748  19.369  0.00  0.00    +0.000 A 
ATOM      8  C   UNL     1       6.177   5.439  19.143  0.00  0.00    +0.000 A 
ENDBRANCH   2   3
BRANCH   2   9
ATOM      9  C   UNL     1       2.893   4.476  19.354  0.00  0.00    +0.000 A 
ATOM     10  C   UNL     1       3.699   3.411  19.813  0.00  0.00    +0.000 A 
ATOM     11  C   UNL     1       3.249   2.574  20.837  0.00  0.00    +0.000 A 
ATOM     12  C   UNL     1       1.988   2.767  21.395  0.00  0.00    +0.000 A 
ATOM     13  C   UNL     1       1.196   3.830  20.962  0.00  0.00    +0.000 A 
ATOM     14  C   UNL     1       1.661   4.705  19.975  0.00  0.00    +0.000 A 
ENDBRANCH   2   9
BRANCH   2  15
ATOM     15  C   UNL     1       4.286   3.937  17.100  0.00  0.00    +0.000 C 
BRANCH  15  16
ATOM     16  C   UNL     1       5.207   4.117  15.954  0.00  0.00    +0.000 A 
ATOM     17  C   UNL     1       4.995   4.670  14.705  0.00  0.00    +0.000 A 
ATOM     18  C   UNL     1       6.267   4.804  14.106  0.00  0.00    +0.000 A 
ATOM     19  C   UNL     1       7.170   4.315  15.018  0.00  0.00    +0.000 A 
ATOM     20  O   UNL     1       6.535   3.896  16.150  0.00  0.00    +0.000 OA
ENDBRANCH  15  16
BRANCH  15  21
ATOM     21  O   UNL     1       3.312   2.992  16.623  0.00  0.00    +0.000 OA
ATOM     22  H   UNL     1       2.428   3.367  16.788  0.00  0.00    +0.000 HD
ENDBRANCH  15  21
ENDBRANCH   2  15
TORSDOF 5
ENDMDL
MODEL 8
REMARK VINA RESULT:      -7.3      2.115      5.609
REMARK  Name = 
REMARK  5 active torsions:
REMARK  status: ('A' for Active; 'I' for Inactive)
REMARK    1  A    between atoms: P_2  and  C_3
REMARK    2  A    between atoms: P_2  and  C_9
REMARK    3  A    between atoms: P_2  and  C_15
REMARK    4  A    between atoms: C_15  and  O_16
REMARK    5  A    between atoms: C_15  and  C_17
REMARK                            x       y       z     vdW  Elec       q    Type
REMARK                         _______ _______ _______ _____ _____    ______ ____
ROOT
ATOM      1  O   UNL     1       3.244   6.701  18.446  0.00  0.00    +0.000 OA
ATOM      2  P   UNL     1       3.735   5.405  17.756  0.00  0.00    +0.000 P 
ENDROOT
BRANCH   2   3
ATOM      3  C   UNL     1       5.604   5.915  18.101  0.00  0.00    +0.000 A 
ATOM      4  C   UNL     1       6.387   5.388  19.135  0.00  0.00    +0.000 A 
ATOM      5  C   UNL     1       7.686   5.868  19.364  0.00  0.00    +0.000 A 
ATOM      6  C   UNL     1       8.189   6.920  18.609  0.00  0.00    +0.000 A 
ATOM      7  C   UNL     1       7.395   7.500  17.624  0.00  0.00    +0.000 A 
ATOM      8  C   UNL     1       6.112   6.999  17.362  0.00  0.00    +0.000 A 
ENDBRANCH   2   3
BRANCH   2   9
ATOM      9  C   UNL     1       2.979   4.343  19.245  0.00  0.00    +0.000 A 
ATOM     10  C   UNL     1       1.692   4.734  19.676  0.00  0.00    +0.000 A 
ATOM     11  C   UNL     1       1.098   4.116  20.778  0.00  0.00    +0.000 A 
ATOM     12  C   UNL     1       1.784   3.128  21.480  0.00  0.00    +0.000 A 
ATOM     13  C   UNL     1       3.045   2.721  21.047  0.00  0.00    +0.000 A 
ATOM     14  C   UNL     1       3.625   3.297  19.911  0.00  0.00    +0.000 A 
ENDBRANCH   2   9
BRANCH   2  15
ATOM     15  C   UNL     1       4.315   3.873  16.940  0.00  0.00    +0.000 C 
BRANCH  15  16
ATOM     16  C   UNL     1       5.250   4.074  15.810  0.00  0.00    +0.000 A 
ATOM     17  C   UNL     1       5.047   4.625  14.558  0.00  0.00    +0.000 A 
ATOM     18  C   UNL     1       6.326   4.786  13.980  0.00  0.00    +0.000 A 
ATOM     19  C   UNL     1       7.223   4.314  14.907  0.00  0.00    +0.000 A 
ATOM     20  O   UNL     1       6.579   3.880  16.027  0.00  0.00    +0.000 OA
ENDBRANCH  15  16
BRANCH  15  21
ATOM     21  O   UNL     1       3.286   3.024  16.399  0.00  0.00    +0.000 OA
ATOM     22  H   UNL     1       3.288   3.135  15.431  0.00  0.00    +0.000 HD
ENDBRANCH  15  21
ENDBRANCH   2  15
TORSDOF 5
ENDMDL
MODEL 9
REMARK VINA RESULT:      -7.3      0.374      1.529
REMARK  Name = 
REMARK  5 active torsions:
REMARK  status: ('A' for Active; 'I' for Inactive)
REMARK    1  A    between atoms: P_2  and  C_3
REMARK    2  A    between atoms: P_2  and  C_9
REMARK    3  A    between atoms: P_2  and  C_15
REMARK    4  A    between atoms: C_15  and  O_16
REMARK    5  A    between atoms: C_15  and  C_17
REMARK                            x       y       z     vdW  Elec       q    Type
REMARK                         _______ _______ _______ _____ _____    ______ ____
ROOT
ATOM      1  O   UNL     1       6.052   5.642  19.102  0.00  0.00    +0.000 OA
ATOM      2  P   UNL     1       4.984   4.648  18.584  0.00  0.00    +0.000 P 
ENDROOT
BRANCH   2   3
ATOM      3  C   UNL     1       3.587   6.017  18.797  0.00  0.00    +0.000 A 
ATOM      4  C   UNL     1       3.279   6.985  17.834  0.00  0.00    +0.000 A 
ATOM      5  C   UNL     1       2.325   7.980  18.099  0.00  0.00    +0.000 A 
ATOM      6  C   UNL     1       1.720   8.057  19.347  0.00  0.00    +0.000 A 
ATOM      7  C   UNL     1       2.068   7.142  20.337  0.00  0.00    +0.000 A 
ATOM      8  C   UNL     1       2.990   6.122  20.067  0.00  0.00    +0.000 A 
ENDBRANCH   2   3
BRANCH   2   9
ATOM      9  C   UNL     1       5.810   4.718  16.788  0.00  0.00    +0.000 A 
ATOM     10  C   UNL     1       4.952   4.397  15.712  0.00  0.00    +0.000 A 
ATOM     11  C   UNL     1       5.448   4.325  14.409  0.00  0.00    +0.000 A 
ATOM     12  C   UNL     1       6.801   4.542  14.162  0.00  0.00    +0.000 A 
ATOM     13  C   UNL     1       7.650   4.881  15.215  0.00  0.00    +0.000 A 
ATOM     14  C   UNL     1       7.152   5.008  16.516  0.00  0.00    +0.000 A 
ENDBRANCH   2   9
BRANCH   2  15
ATOM     15  C   UNL     1       3.723   3.472  17.972  0.00  0.00    +0.000 C 
BRANCH  15  16
ATOM     16  C   UNL     1       2.555   3.279  18.862  0.00  0.00    +0.000 A 
ATOM     17  C   UNL     1       1.200   3.310  18.591  0.00  0.00    +0.000 A 
ATOM     18  C   UNL     1       0.549   2.824  19.746  0.00  0.00    +0.000 A 
ATOM     19  C   UNL     1       1.543   2.540  20.650  0.00  0.00    +0.000 A 
ATOM     20  O   UNL     1       2.771   2.810  20.121  0.00  0.00    +0.000 OA
ENDBRANCH  15  16
BRANCH  15  21
ATOM     21  O   UNL     1       4.188   2.136  17.708  0.00  0.00    +0.000 OA
ATOM     22  H   UNL     1       5.127   2.193  17.454  0.00  0.00    +0.000 HD
ENDBRANCH  15  21
ENDBRANCH   2  15
TORSDOF 5
ENDMDL
