MODEL 1
REMARK VINA RESULT:      -7.5      0.000      0.000
REMARK  Name = 
REMARK  10 active torsions:
REMARK  status: ('A' for Active; 'I' for Inactive)
REMARK    1  A    between atoms: C_1  and  C_2
REMARK    2  A    between atoms: C_5  and  C_6
REMARK    3  A    between atoms: C_6  and  C_7
REMARK    4  A    between atoms: C_7  and  C_8
REMARK    5  A    between atoms: C_8  and  C_9
REMARK    6  A    between atoms: C_9  and  N_10
REMARK    7  A    between atoms: C_14  and  C_15
REMARK    8  A    between atoms: C_15  and  C_16
REMARK    9  A    between atoms: C_16  and  C_17
REMARK   10  A    between atoms: N_19  and  O_20
REMARK                            x       y       z     vdW  Elec       q    Type
REMARK                         _______ _______ _______ _____ _____    ______ ____
ROOT
ATOM      1  N   UNL     1       4.896   3.635  18.819  0.00  0.00    +0.000 N 
ATOM      2  C   UNL     1       5.267   4.729  19.707  0.00  0.00    +0.000 C 
ATOM      3  C   UNL     1       6.489   5.470  19.175  0.00  0.00    +0.000 C 
ATOM      4  C   UNL     1       6.282   5.822  17.735  0.00  0.00    +0.000 C 
ATOM      5  C   UNL     1       5.488   5.094  16.928  0.00  0.00    +0.000 C 
ATOM      6  C   UNL     1       4.863   3.827  17.442  0.00  0.00    +0.000 C 
ATOM      7  O   UNL     1       4.353   3.028  16.658  0.00  0.00    +0.000 OA
ENDROOT
BRANCH   1   8
ATOM      8  C   UNL     1       4.258   2.455  19.393  0.00  0.00    +0.000 C 
BRANCH   8   9
ATOM      9  C   UNL     1       3.438   2.770  20.644  0.00  0.00    +0.000 C 
BRANCH   9  10
ATOM     10  C   UNL     1       1.983   2.324  20.478  0.00  0.00    +0.000 C 
BRANCH  10  11
ATOM     11  C   UNL     1       1.030   3.512  20.621  0.00  0.00    +0.000 C 
BRANCH  11  16
ATOM     12  C   UNL     1       2.960   8.164  17.693  0.00  0.00    +0.000 C 
ATOM     13  C   UNL     1       2.439   6.979  18.453  0.00  0.00    +0.000 A 
ATOM     14  C   UNL     1       2.338   7.006  19.847  0.00  0.00    +0.000 A 
ATOM     15  C   UNL     1       1.873   5.890  20.547  0.00  0.00    +0.000 A 
ATOM     16  C   UNL     1       1.507   4.724  19.862  0.00  0.00    +0.000 A 
ATOM     17  C   UNL     1       1.589   4.705  18.465  0.00  0.00    +0.000 A 
ATOM     18  C   UNL     1       2.055   5.822  17.766  0.00  0.00    +0.000 A 
ENDBRANCH  11  16
ENDBRANCH  10  11
ENDBRANCH   9  10
ENDBRANCH   8   9
ENDBRANCH   1   8
BRANCH   5  19
ATOM     19  C   UNL     1       5.288   5.428  15.469  0.00  0.00    +0.000 C 
BRANCH  19  20
ATOM     20  C   UNL     1       5.634   4.272  14.528  0.00  0.00    +0.000 C 
BRANCH  20  21
ATOM     21  C   UNL     1       6.807   4.616  13.636  0.00  0.00    +0.000 C 
ATOM     22  O   UNL     1       6.990   4.156  12.512  0.00  0.00    +0.000 OA
ATOM     23  N   UNL     1       7.698   5.492  14.215  0.00  0.00    +0.000 N 
ATOM     24  H   UNL     1       7.426   6.128  14.958  0.00  0.00    +0.000 HD
BRANCH  23  25
ATOM     25  O   UNL     1       8.756   5.921  13.380  0.00  0.00    +0.000 OA
ATOM     26  H   UNL     1       8.571   6.882  13.282  0.00  0.00    +0.000 HD
ENDBRANCH  23  25
ENDBRANCH  20  21
ENDBRANCH  19  20
ENDBRANCH   5  19
TORSDOF 9
ENDMDL
MODEL 2
REMARK VINA RESULT:      -7.3      4.936      7.818
REMARK  Name = 
REMARK  10 active torsions:
REMARK  status: ('A' for Active; 'I' for Inactive)
REMARK    1  A    between atoms: C_1  and  C_2
REMARK    2  A    between atoms: C_5  and  C_6
REMARK    3  A    between atoms: C_6  and  C_7
REMARK    4  A    between atoms: C_7  and  C_8
REMARK    5  A    between atoms: C_8  and  C_9
REMARK    6  A    between atoms: C_9  and  N_10
REMARK    7  A    between atoms: C_14  and  C_15
REMARK    8  A    between atoms: C_15  and  C_16
REMARK    9  A    between atoms: C_16  and  C_17
REMARK   10  A    between atoms: N_19  and  O_20
REMARK                            x       y       z     vdW  Elec       q    Type
REMARK                         _______ _______ _______ _____ _____    ______ ____
ROOT
ATOM      1  N   UNL     1       6.477   5.945  17.729  0.00  0.00    +0.000 N 
ATOM      2  C   UNL     1       5.778   6.293  16.498  0.00  0.00    +0.000 C 
ATOM      3  C   UNL     1       5.344   5.038  15.748  0.00  0.00    +0.000 C 
ATOM      4  C   UNL     1       4.630   4.111  16.679  0.00  0.00    +0.000 C 
ATOM      5  C   UNL     1       4.878   4.094  18.002  0.00  0.00    +0.000 C 
ATOM      6  C   UNL     1       5.976   4.953  18.566  0.00  0.00    +0.000 C 
ATOM      7  O   UNL     1       6.382   4.763  19.711  0.00  0.00    +0.000 OA
ENDROOT
BRANCH   1   8
ATOM      8  C   UNL     1       7.504   6.852  18.230  0.00  0.00    +0.000 C 
BRANCH   8   9
ATOM      9  C   UNL     1       7.880   7.940  17.223  0.00  0.00    +0.000 C 
BRANCH   9  10
ATOM     10  C   UNL     1       7.971   9.311  17.899  0.00  0.00    +0.000 C 
BRANCH  10  11
ATOM     11  C   UNL     1       9.005   9.293  19.025  0.00  0.00    +0.000 C 
BRANCH  11  16
ATOM     12  C   UNL     1      11.443  14.500  19.967  0.00  0.00    +0.000 C 
ATOM     13  C   UNL     1      10.789  13.170  19.729  0.00  0.00    +0.000 A 
ATOM     14  C   UNL     1      10.235  12.441  20.785  0.00  0.00    +0.000 A 
ATOM     15  C   UNL     1       9.649  11.194  20.556  0.00  0.00    +0.000 A 
ATOM     16  C   UNL     1       9.615  10.651  19.265  0.00  0.00    +0.000 A 
ATOM     17  C   UNL     1      10.151  11.392  18.206  0.00  0.00    +0.000 A 
ATOM     18  C   UNL     1      10.737  12.639  18.436  0.00  0.00    +0.000 A 
ENDBRANCH  11  16
ENDBRANCH  10  11
ENDBRANCH   9  10
ENDBRANCH   8   9
ENDBRANCH   1   8
BRANCH   5  19
ATOM     19  C   UNL     1       4.177   3.149  18.949  0.00  0.00    +0.000 C 
BRANCH  19  20
ATOM     20  C   UNL     1       3.073   2.329  18.280  0.00  0.00    +0.000 C 
BRANCH  20  21
ATOM     21  C   UNL     1       1.714   2.647  18.866  0.00  0.00    +0.000 C 
ATOM     22  O   UNL     1       0.673   2.062  18.579  0.00  0.00    +0.000 OA
ATOM     23  N   UNL     1       1.734   3.698  19.756  0.00  0.00    +0.000 N 
ATOM     24  H   UNL     1       2.575   3.968  20.256  0.00  0.00    +0.000 HD
BRANCH  23  25
ATOM     25  O   UNL     1       0.506   3.965  20.406  0.00  0.00    +0.000 OA
ATOM     26  H   UNL     1       0.338   3.126  20.892  0.00  0.00    +0.000 HD
ENDBRANCH  23  25
ENDBRANCH  20  21
ENDBRANCH  19  20
ENDBRANCH   5  19
TORSDOF 9
ENDMDL
MODEL 3
REMARK VINA RESULT:      -7.3      5.159      8.225
REMARK  Name = 
REMARK  10 active torsions:
REMARK  status: ('A' for Active; 'I' for Inactive)
REMARK    1  A    between atoms: C_1  and  C_2
REMARK    2  A    between atoms: C_5  and  C_6
REMARK    3  A    between atoms: C_6  and  C_7
REMARK    4  A    between atoms: C_7  and  C_8
REMARK    5  A    between atoms: C_8  and  C_9
REMARK    6  A    between atoms: C_9  and  N_10
REMARK    7  A    between atoms: C_14  and  C_15
REMARK    8  A    between atoms: C_15  and  C_16
REMARK    9  A    between atoms: C_16  and  C_17
REMARK   10  A    between atoms: N_19  and  O_20
REMARK                            x       y       z     vdW  Elec       q    Type
REMARK                         _______ _______ _______ _____ _____    ______ ____
ROOT
ATOM      1  N   UNL     1       6.629   6.006  17.774  0.00  0.00    +0.000 N 
ATOM      2  C   UNL     1       5.797   6.265  16.606  0.00  0.00    +0.000 C 
ATOM      3  C   UNL     1       5.314   4.959  15.983  0.00  0.00    +0.000 C 
ATOM      4  C   UNL     1       4.724   4.081  17.040  0.00  0.00    +0.000 C 
ATOM      5  C   UNL     1       5.112   4.150  18.327  0.00  0.00    +0.000 C 
ATOM      6  C   UNL     1       6.243   5.059  18.717  0.00  0.00    +0.000 C 
ATOM      7  O   UNL     1       6.773   4.948  19.821  0.00  0.00    +0.000 OA
ENDROOT
BRANCH   1   8
ATOM      8  C   UNL     1       7.683   6.959  18.106  0.00  0.00    +0.000 C 
BRANCH   8   9
ATOM      9  C   UNL     1       7.368   8.381  17.640  0.00  0.00    +0.000 C 
BRANCH   9  10
ATOM     10  C   UNL     1       8.616   9.267  17.684  0.00  0.00    +0.000 C 
BRANCH  10  11
ATOM     11  C   UNL     1       8.912   9.718  19.115  0.00  0.00    +0.000 C 
BRANCH  11  16
ATOM     12  C   UNL     1      12.327  14.435  19.288  0.00  0.00    +0.000 C 
ATOM     13  C   UNL     1      11.469  13.204  19.236  0.00  0.00    +0.000 A 
ATOM     14  C   UNL     1      11.118  12.624  18.014  0.00  0.00    +0.000 A 
ATOM     15  C   UNL     1      10.300  11.491  17.975  0.00  0.00    +0.000 A 
ATOM     16  C   UNL     1       9.815  10.925  19.161  0.00  0.00    +0.000 A 
ATOM     17  C   UNL     1      10.185  11.494  20.384  0.00  0.00    +0.000 A 
ATOM     18  C   UNL     1      11.002  12.627  20.422  0.00  0.00    +0.000 A 
ENDBRANCH  11  16
ENDBRANCH  10  11
ENDBRANCH   9  10
ENDBRANCH   8   9
ENDBRANCH   1   8
BRANCH   5  19
ATOM     19  C   UNL     1       4.537   3.254  19.398  0.00  0.00    +0.000 C 
BRANCH  19  20
ATOM     20  C   UNL     1       3.311   2.464  18.935  0.00  0.00    +0.000 C 
BRANCH  20  21
ATOM     21  C   UNL     1       2.178   2.565  19.933  0.00  0.00    +0.000 C 
ATOM     22  O   UNL     1       0.987   2.617  19.637  0.00  0.00    +0.000 OA
ATOM     23  N   UNL     1       2.603   2.626  21.241  0.00  0.00    +0.000 N 
ATOM     24  H   UNL     1       3.502   2.259  21.536  0.00  0.00    +0.000 HD
BRANCH  23  25
ATOM     25  O   UNL     1       1.575   2.618  22.214  0.00  0.00    +0.000 OA
ATOM     26  H   UNL     1       1.741   3.455  22.703  0.00  0.00    +0.000 HD
ENDBRANCH  23  25
ENDBRANCH  20  21
ENDBRANCH  19  20
ENDBRANCH   5  19
TORSDOF 9
ENDMDL
MODEL 4
REMARK VINA RESULT:      -7.1      3.266      4.249
REMARK  Name = 
REMARK  10 active torsions:
REMARK  status: ('A' for Active; 'I' for Inactive)
REMARK    1  A    between atoms: C_1  and  C_2
REMARK    2  A    between atoms: C_5  and  C_6
REMARK    3  A    between atoms: C_6  and  C_7
REMARK    4  A    between atoms: C_7  and  C_8
REMARK    5  A    between atoms: C_8  and  C_9
REMARK    6  A    between atoms: C_9  and  N_10
REMARK    7  A    between atoms: C_14  and  C_15
REMARK    8  A    between atoms: C_15  and  C_16
REMARK    9  A    between atoms: C_16  and  C_17
REMARK   10  A    between atoms: N_19  and  O_20
REMARK                            x       y       z     vdW  Elec       q    Type
REMARK                         _______ _______ _______ _____ _____    ______ ____
ROOT
ATOM      1  N   UNL     1       5.522   4.574  18.142  0.00  0.00    +0.000 N 
ATOM      2  C   UNL     1       5.470   4.352  16.703  0.00  0.00    +0.000 C 
ATOM      3  C   UNL     1       5.412   5.677  15.950  0.00  0.00    +0.000 C 
ATOM      4  C   UNL     1       6.489   6.589  16.445  0.00  0.00    +0.000 C 
ATOM      5  C   UNL     1       6.978   6.507  17.696  0.00  0.00    +0.000 C 
ATOM      6  C   UNL     1       6.366   5.543  18.674  0.00  0.00    +0.000 C 
ATOM      7  O   UNL     1       6.623   5.634  19.873  0.00  0.00    +0.000 OA
ENDROOT
BRANCH   1   8
ATOM      8  C   UNL     1       4.937   3.571  19.025  0.00  0.00    +0.000 C 
BRANCH   8   9
ATOM      9  C   UNL     1       3.688   2.914  18.436  0.00  0.00    +0.000 C 
BRANCH   9  10
ATOM     10  C   UNL     1       2.453   3.796  18.636  0.00  0.00    +0.000 C 
BRANCH  10  11
ATOM     11  C   UNL     1       2.648   4.744  19.819  0.00  0.00    +0.000 C 
BRANCH  11  16
ATOM     12  C   UNL     1       1.495  10.272  18.384  0.00  0.00    +0.000 C 
ATOM     13  C   UNL     1       1.820   8.854  18.753  0.00  0.00    +0.000 A 
ATOM     14  C   UNL     1       2.373   7.975  17.817  0.00  0.00    +0.000 A 
ATOM     15  C   UNL     1       2.650   6.651  18.165  0.00  0.00    +0.000 A 
ATOM     16  C   UNL     1       2.371   6.181  19.455  0.00  0.00    +0.000 A 
ATOM     17  C   UNL     1       1.837   7.067  20.397  0.00  0.00    +0.000 A 
ATOM     18  C   UNL     1       1.560   8.391  20.048  0.00  0.00    +0.000 A 
ENDBRANCH  11  16
ENDBRANCH  10  11
ENDBRANCH   9  10
ENDBRANCH   8   9
ENDBRANCH   1   8
BRANCH   5  19
ATOM     19  C   UNL     1       8.052   7.436  18.212  0.00  0.00    +0.000 C 
BRANCH  19  20
ATOM     20  C   UNL     1       7.937   8.859  17.663  0.00  0.00    +0.000 C 
BRANCH  20  21
ATOM     21  C   UNL     1       8.808   9.824  18.438  0.00  0.00    +0.000 C 
ATOM     22  O   UNL     1       9.363  10.808  17.957  0.00  0.00    +0.000 OA
ATOM     23  N   UNL     1       8.957   9.482  19.764  0.00  0.00    +0.000 N 
ATOM     24  H   UNL     1       8.279   8.909  20.255  0.00  0.00    +0.000 HD
BRANCH  23  25
ATOM     25  O   UNL     1       9.679  10.411  20.551  0.00  0.00    +0.000 OA
ATOM     26  H   UNL     1       9.123  11.219  20.487  0.00  0.00    +0.000 HD
ENDBRANCH  23  25
ENDBRANCH  20  21
ENDBRANCH  19  20
ENDBRANCH   5  19
TORSDOF 9
ENDMDL
MODEL 5
REMARK VINA RESULT:      -7.1      4.913      7.837
REMARK  Name = 
REMARK  10 active torsions:
REMARK  status: ('A' for Active; 'I' for Inactive)
REMARK    1  A    between atoms: C_1  and  C_2
REMARK    2  A    between atoms: C_5  and  C_6
REMARK    3  A    between atoms: C_6  and  C_7
REMARK    4  A    between atoms: C_7  and  C_8
REMARK    5  A    between atoms: C_8  and  C_9
REMARK    6  A    between atoms: C_9  and  N_10
REMARK    7  A    between atoms: C_14  and  C_15
REMARK    8  A    between atoms: C_15  and  C_16
REMARK    9  A    between atoms: C_16  and  C_17
REMARK   10  A    between atoms: N_19  and  O_20
REMARK                            x       y       z     vdW  Elec       q    Type
REMARK                         _______ _______ _______ _____ _____    ______ ____
ROOT
ATOM      1  N   UNL     1       5.950   6.155  16.877  0.00  0.00    +0.000 N 
ATOM      2  C   UNL     1       6.099   5.960  15.440  0.00  0.00    +0.000 C 
ATOM      3  C   UNL     1       6.444   4.509  15.122  0.00  0.00    +0.000 C 
ATOM      4  C   UNL     1       5.489   3.595  15.822  0.00  0.00    +0.000 C 
ATOM      5  C   UNL     1       4.878   3.942  16.970  0.00  0.00    +0.000 C 
ATOM      6  C   UNL     1       5.231   5.241  17.639  0.00  0.00    +0.000 C 
ATOM      7  O   UNL     1       4.880   5.453  18.799  0.00  0.00    +0.000 OA
ENDROOT
BRANCH   1   8
ATOM      8  C   UNL     1       6.278   7.459  17.443  0.00  0.00    +0.000 C 
BRANCH   8   9
ATOM      9  C   UNL     1       7.781   7.666  17.631  0.00  0.00    +0.000 C 
BRANCH   9  10
ATOM     10  C   UNL     1       8.118   9.150  17.800  0.00  0.00    +0.000 C 
BRANCH  10  11
ATOM     11  C   UNL     1       8.888   9.387  19.100  0.00  0.00    +0.000 C 
BRANCH  11  16
ATOM     12  C   UNL     1      11.878  14.385  18.991  0.00  0.00    +0.000 C 
ATOM     13  C   UNL     1      11.131  13.084  19.009  0.00  0.00    +0.000 A 
ATOM     14  C   UNL     1      10.715  12.476  17.820  0.00  0.00    +0.000 A 
ATOM     15  C   UNL     1      10.000  11.276  17.849  0.00  0.00    +0.000 A 
ATOM     16  C   UNL     1       9.682  10.668  19.071  0.00  0.00    +0.000 A 
ATOM     17  C   UNL     1      10.117  11.267  20.258  0.00  0.00    +0.000 A 
ATOM     18  C   UNL     1      10.832  12.467  20.229  0.00  0.00    +0.000 A 
ENDBRANCH  11  16
ENDBRANCH  10  11
ENDBRANCH   9  10
ENDBRANCH   8   9
ENDBRANCH   1   8
BRANCH   5  19
ATOM     19  C   UNL     1       3.928   3.019  17.696  0.00  0.00    +0.000 C 
BRANCH  19  20
ATOM     20  C   UNL     1       2.464   3.220  17.297  0.00  0.00    +0.000 C 
BRANCH  20  21
ATOM     21  C   UNL     1       1.573   3.355  18.512  0.00  0.00    +0.000 C 
ATOM     22  O   UNL     1       0.657   2.587  18.798  0.00  0.00    +0.000 OA
ATOM     23  N   UNL     1       1.860   4.460  19.282  0.00  0.00    +0.000 N 
ATOM     24  H   UNL     1       2.773   4.902  19.275  0.00  0.00    +0.000 HD
BRANCH  23  25
ATOM     25  O   UNL     1       1.119   4.571  20.483  0.00  0.00    +0.000 OA
ATOM     26  H   UNL     1       0.286   4.098  20.262  0.00  0.00    +0.000 HD
ENDBRANCH  23  25
ENDBRANCH  20  21
ENDBRANCH  19  20
ENDBRANCH   5  19
TORSDOF 9
ENDMDL
MODEL 6
REMARK VINA RESULT:      -7.1      1.250      1.303
REMARK  Name = 
REMARK  10 active torsions:
REMARK  status: ('A' for Active; 'I' for Inactive)
REMARK    1  A    between atoms: C_1  and  C_2
REMARK    2  A    between atoms: C_5  and  C_6
REMARK    3  A    between atoms: C_6  and  C_7
REMARK    4  A    between atoms: C_7  and  C_8
REMARK    5  A    between atoms: C_8  and  C_9
REMARK    6  A    between atoms: C_9  and  N_10
REMARK    7  A    between atoms: C_14  and  C_15
REMARK    8  A    between atoms: C_15  and  C_16
REMARK    9  A    between atoms: C_16  and  C_17
REMARK   10  A    between atoms: N_19  and  O_20
REMARK                            x       y       z     vdW  Elec       q    Type
REMARK                         _______ _______ _______ _____ _____    ______ ____
ROOT
ATOM      1  N   UNL     1       5.122   3.858  18.700  0.00  0.00    +0.000 N 
ATOM      2  C   UNL     1       5.470   4.996  19.542  0.00  0.00    +0.000 C 
ATOM      3  C   UNL     1       6.682   5.735  18.983  0.00  0.00    +0.000 C 
ATOM      4  C   UNL     1       6.475   6.022  17.529  0.00  0.00    +0.000 C 
ATOM      5  C   UNL     1       5.696   5.247  16.750  0.00  0.00    +0.000 C 
ATOM      6  C   UNL     1       5.091   3.992  17.316  0.00  0.00    +0.000 C 
ATOM      7  O   UNL     1       4.598   3.152  16.565  0.00  0.00    +0.000 OA
ENDROOT
BRANCH   1   8
ATOM      8  C   UNL     1       4.502   2.693  19.321  0.00  0.00    +0.000 C 
BRANCH   8   9
ATOM      9  C   UNL     1       3.675   3.046  20.558  0.00  0.00    +0.000 C 
BRANCH   9  10
ATOM     10  C   UNL     1       2.291   2.395  20.502  0.00  0.00    +0.000 C 
BRANCH  10  11
ATOM     11  C   UNL     1       1.190   3.456  20.505  0.00  0.00    +0.000 C 
BRANCH  11  16
ATOM     12  C   UNL     1       2.894   8.306  17.764  0.00  0.00    +0.000 C 
ATOM     13  C   UNL     1       2.430   7.069  18.475  0.00  0.00    +0.000 A 
ATOM     14  C   UNL     1       2.277   7.052  19.865  0.00  0.00    +0.000 A 
ATOM     15  C   UNL     1       1.866   5.888  20.519  0.00  0.00    +0.000 A 
ATOM     16  C   UNL     1       1.608   4.718  19.794  0.00  0.00    +0.000 A 
ATOM     17  C   UNL     1       1.742   4.742  18.401  0.00  0.00    +0.000 A 
ATOM     18  C   UNL     1       2.153   5.906  17.747  0.00  0.00    +0.000 A 
ENDBRANCH  11  16
ENDBRANCH  10  11
ENDBRANCH   9  10
ENDBRANCH   8   9
ENDBRANCH   1   8
BRANCH   5  19
ATOM     19  C   UNL     1       5.497   5.515  15.278  0.00  0.00    +0.000 C 
BRANCH  19  20
ATOM     20  C   UNL     1       6.550   4.849  14.391  0.00  0.00    +0.000 C 
BRANCH  20  21
ATOM     21  C   UNL     1       5.918   3.897  13.400  0.00  0.00    +0.000 C 
ATOM     22  O   UNL     1       4.718   3.847  13.143  0.00  0.00    +0.000 OA
ATOM     23  N   UNL     1       6.822   3.041  12.809  0.00  0.00    +0.000 N 
ATOM     24  H   UNL     1       7.809   3.263  12.735  0.00  0.00    +0.000 HD
BRANCH  23  25
ATOM     25  O   UNL     1       6.292   2.203  11.800  0.00  0.00    +0.000 OA
ATOM     26  H   UNL     1       5.841   2.844  11.207  0.00  0.00    +0.000 HD
ENDBRANCH  23  25
ENDBRANCH  20  21
ENDBRANCH  19  20
ENDBRANCH   5  19
TORSDOF 9
ENDMDL
MODEL 7
REMARK VINA RESULT:      -7.1      5.070      7.887
REMARK  Name = 
REMARK  10 active torsions:
REMARK  status: ('A' for Active; 'I' for Inactive)
REMARK    1  A    between atoms: C_1  and  C_2
REMARK    2  A    between atoms: C_5  and  C_6
REMARK    3  A    between atoms: C_6  and  C_7
REMARK    4  A    between atoms: C_7  and  C_8
REMARK    5  A    between atoms: C_8  and  C_9
REMARK    6  A    between atoms: C_9  and  N_10
REMARK    7  A    between atoms: C_14  and  C_15
REMARK    8  A    between atoms: C_15  and  C_16
REMARK    9  A    between atoms: C_16  and  C_17
REMARK   10  A    between atoms: N_19  and  O_20
REMARK                            x       y       z     vdW  Elec       q    Type
REMARK                         _______ _______ _______ _____ _____    ______ ____
ROOT
ATOM      1  N   UNL     1       6.513   5.480  17.740  0.00  0.00    +0.000 N 
ATOM      2  C   UNL     1       6.406   5.380  16.290  0.00  0.00    +0.000 C 
ATOM      3  C   UNL     1       5.891   4.005  15.877  0.00  0.00    +0.000 C 
ATOM      4  C   UNL     1       4.663   3.667  16.660  0.00  0.00    +0.000 C 
ATOM      5  C   UNL     1       4.437   4.167  17.890  0.00  0.00    +0.000 C 
ATOM      6  C   UNL     1       5.488   5.012  18.555  0.00  0.00    +0.000 C 
ATOM      7  O   UNL     1       5.410   5.260  19.757  0.00  0.00    +0.000 OA
ENDROOT
BRANCH   1   8
ATOM      8  C   UNL     1       7.536   6.352  18.306  0.00  0.00    +0.000 C 
BRANCH   8   9
ATOM      9  C   UNL     1       7.696   7.662  17.535  0.00  0.00    +0.000 C 
BRANCH   9  10
ATOM     10  C   UNL     1       8.468   8.698  18.357  0.00  0.00    +0.000 C 
BRANCH  10  11
ATOM     11  C   UNL     1       8.140  10.116  17.890  0.00  0.00    +0.000 C 
BRANCH  11  16
ATOM     12  C   UNL     1      12.213  13.954  19.509  0.00  0.00    +0.000 C 
ATOM     13  C   UNL     1      11.150  12.970  19.116  0.00  0.00    +0.000 A 
ATOM     14  C   UNL     1      11.061  11.721  19.738  0.00  0.00    +0.000 A 
ATOM     15  C   UNL     1      10.082  10.803  19.349  0.00  0.00    +0.000 A 
ATOM     16  C   UNL     1       9.179  11.118  18.325  0.00  0.00    +0.000 A 
ATOM     17  C   UNL     1       9.256  12.377  17.718  0.00  0.00    +0.000 A 
ATOM     18  C   UNL     1      10.236  13.294  18.107  0.00  0.00    +0.000 A 
ENDBRANCH  11  16
ENDBRANCH  10  11
ENDBRANCH   9  10
ENDBRANCH   8   9
ENDBRANCH   1   8
BRANCH   5  19
ATOM     19  C   UNL     1       3.210   3.817  18.697  0.00  0.00    +0.000 C 
BRANCH  19  20
ATOM     20  C   UNL     1       2.143   4.913  18.687  0.00  0.00    +0.000 C 
BRANCH  20  21
ATOM     21  C   UNL     1       1.998   5.558  20.048  0.00  0.00    +0.000 C 
ATOM     22  O   UNL     1       1.870   4.944  21.104  0.00  0.00    +0.000 OA
ATOM     23  N   UNL     1       1.991   6.935  20.004  0.00  0.00    +0.000 N 
ATOM     24  H   UNL     1       2.416   7.454  19.243  0.00  0.00    +0.000 HD
BRANCH  23  25
ATOM     25  O   UNL     1       1.960   7.581  21.263  0.00  0.00    +0.000 OA
ATOM     26  H   UNL     1       2.811   7.298  21.666  0.00  0.00    +0.000 HD
ENDBRANCH  23  25
ENDBRANCH  20  21
ENDBRANCH  19  20
ENDBRANCH   5  19
TORSDOF 9
ENDMDL
MODEL 8
REMARK VINA RESULT:      -7.1      4.911      7.825
REMARK  Name = 
REMARK  10 active torsions:
REMARK  status: ('A' for Active; 'I' for Inactive)
REMARK    1  A    between atoms: C_1  and  C_2
REMARK    2  A    between atoms: C_5  and  C_6
REMARK    3  A    between atoms: C_6  and  C_7
REMARK    4  A    between atoms: C_7  and  C_8
REMARK    5  A    between atoms: C_8  and  C_9
REMARK    6  A    between atoms: C_9  and  N_10
REMARK    7  A    between atoms: C_14  and  C_15
REMARK    8  A    between atoms: C_15  and  C_16
REMARK    9  A    between atoms: C_16  and  C_17
REMARK   10  A    between atoms: N_19  and  O_20
REMARK                            x       y       z     vdW  Elec       q    Type
REMARK                         _______ _______ _______ _____ _____    ______ ____
ROOT
ATOM      1  N   UNL     1       5.870   6.130  16.897  0.00  0.00    +0.000 N 
ATOM      2  C   UNL     1       6.475   5.691  15.646  0.00  0.00    +0.000 C 
ATOM      3  C   UNL     1       6.619   4.174  15.615  0.00  0.00    +0.000 C 
ATOM      4  C   UNL     1       5.319   3.533  15.986  0.00  0.00    +0.000 C 
ATOM      5  C   UNL     1       4.422   4.143  16.784  0.00  0.00    +0.000 C 
ATOM      6  C   UNL     1       4.763   5.465  17.414  0.00  0.00    +0.000 C 
ATOM      7  O   UNL     1       4.075   5.906  18.333  0.00  0.00    +0.000 OA
ENDROOT
BRANCH   1   8
ATOM      8  C   UNL     1       6.226   7.444  17.423  0.00  0.00    +0.000 C 
BRANCH   8   9
ATOM      9  C   UNL     1       7.735   7.634  17.580  0.00  0.00    +0.000 C 
BRANCH   9  10
ATOM     10  C   UNL     1       8.087   9.108  17.798  0.00  0.00    +0.000 C 
BRANCH  10  11
ATOM     11  C   UNL     1       8.888   9.289  19.088  0.00  0.00    +0.000 C 
BRANCH  11  16
ATOM     12  C   UNL     1      11.780  14.344  19.252  0.00  0.00    +0.000 C 
ATOM     13  C   UNL     1      11.012  13.055  19.218  0.00  0.00    +0.000 A 
ATOM     14  C   UNL     1      10.625  12.417  20.400  0.00  0.00    +0.000 A 
ATOM     15  C   UNL     1       9.929  11.206  20.358  0.00  0.00    +0.000 A 
ATOM     16  C   UNL     1       9.616  10.609  19.130  0.00  0.00    +0.000 A 
ATOM     17  C   UNL     1       9.986  11.259  17.948  0.00  0.00    +0.000 A 
ATOM     18  C   UNL     1      10.682  12.470  17.991  0.00  0.00    +0.000 A 
ENDBRANCH  11  16
ENDBRANCH  10  11
ENDBRANCH   9  10
ENDBRANCH   8   9
ENDBRANCH   1   8
BRANCH   5  19
ATOM     19  C   UNL     1       3.116   3.498  17.181  0.00  0.00    +0.000 C 
BRANCH  19  20
ATOM     20  C   UNL     1       3.284   2.360  18.190  0.00  0.00    +0.000 C 
BRANCH  20  21
ATOM     21  C   UNL     1       2.517   2.633  19.466  0.00  0.00    +0.000 C 
ATOM     22  O   UNL     1       3.002   2.607  20.594  0.00  0.00    +0.000 OA
ATOM     23  N   UNL     1       1.181   2.893  19.257  0.00  0.00    +0.000 N 
ATOM     24  H   UNL     1       0.830   3.245  18.373  0.00  0.00    +0.000 HD
BRANCH  23  25
ATOM     25  O   UNL     1       0.446   3.254  20.411  0.00  0.00    +0.000 OA
ATOM     26  H   UNL     1      -0.484   3.148  20.111  0.00  0.00    +0.000 HD
ENDBRANCH  23  25
ENDBRANCH  20  21
ENDBRANCH  19  20
ENDBRANCH   5  19
TORSDOF 9
ENDMDL
MODEL 9
REMARK VINA RESULT:      -7.0      5.225      7.927
REMARK  Name = 
REMARK  10 active torsions:
REMARK  status: ('A' for Active; 'I' for Inactive)
REMARK    1  A    between atoms: C_1  and  C_2
REMARK    2  A    between atoms: C_5  and  C_6
REMARK    3  A    between atoms: C_6  and  C_7
REMARK    4  A    between atoms: C_7  and  C_8
REMARK    5  A    between atoms: C_8  and  C_9
REMARK    6  A    between atoms: C_9  and  N_10
REMARK    7  A    between atoms: C_14  and  C_15
REMARK    8  A    between atoms: C_15  and  C_16
REMARK    9  A    between atoms: C_16  and  C_17
REMARK   10  A    between atoms: N_19  and  O_20
REMARK                            x       y       z     vdW  Elec       q    Type
REMARK                         _______ _______ _______ _____ _____    ______ ____
ROOT
ATOM      1  N   UNL     1       7.155   6.126  17.692  0.00  0.00    +0.000 N 
ATOM      2  C   UNL     1       6.976   6.110  16.246  0.00  0.00    +0.000 C 
ATOM      3  C   UNL     1       6.834   4.681  15.731  0.00  0.00    +0.000 C 
ATOM      4  C   UNL     1       5.807   3.951  16.537  0.00  0.00    +0.000 C 
ATOM      5  C   UNL     1       5.540   4.273  17.818  0.00  0.00    +0.000 C 
ATOM      6  C   UNL     1       6.361   5.326  18.508  0.00  0.00    +0.000 C 
ATOM      7  O   UNL     1       6.304   5.450  19.730  0.00  0.00    +0.000 OA
ENDROOT
BRANCH   1   8
ATOM      8  C   UNL     1       7.935   7.205  18.288  0.00  0.00    +0.000 C 
BRANCH   8   9
ATOM      9  C   UNL     1       8.045   8.431  17.380  0.00  0.00    +0.000 C 
BRANCH   9  10
ATOM     10  C   UNL     1       8.096   9.723  18.200  0.00  0.00    +0.000 C 
BRANCH  10  11
ATOM     11  C   UNL     1       9.282   9.708  19.165  0.00  0.00    +0.000 C 
BRANCH  11  16
ATOM     12  C   UNL     1      11.721  14.949  19.886  0.00  0.00    +0.000 C 
ATOM     13  C   UNL     1      11.067  13.611  19.700  0.00  0.00    +0.000 A 
ATOM     14  C   UNL     1      10.371  13.000  20.746  0.00  0.00    +0.000 A 
ATOM     15  C   UNL     1       9.784  11.744  20.570  0.00  0.00    +0.000 A 
ATOM     16  C   UNL     1       9.893  11.075  19.344  0.00  0.00    +0.000 A 
ATOM     17  C   UNL     1      10.573  11.697  18.291  0.00  0.00    +0.000 A 
ATOM     18  C   UNL     1      11.159  12.953  18.469  0.00  0.00    +0.000 A 
ENDBRANCH  11  16
ENDBRANCH  10  11
ENDBRANCH   9  10
ENDBRANCH   8   9
ENDBRANCH   1   8
BRANCH   5  19
ATOM     19  C   UNL     1       4.520   3.530  18.647  0.00  0.00    +0.000 C 
BRANCH  19  20
ATOM     20  C   UNL     1       3.837   2.389  17.889  0.00  0.00    +0.000 C 
BRANCH  20  21
ATOM     21  C   UNL     1       2.343   2.609  17.786  0.00  0.00    +0.000 C 
ATOM     22  O   UNL     1       1.808   3.475  17.099  0.00  0.00    +0.000 OA
ATOM     23  N   UNL     1       1.608   1.751  18.574  0.00  0.00    +0.000 N 
ATOM     24  H   UNL     1       1.965   0.850  18.872  0.00  0.00    +0.000 HD
BRANCH  23  25
ATOM     25  O   UNL     1       0.204   1.852  18.432  0.00  0.00    +0.000 OA
ATOM     26  H   UNL     1       0.077   2.812  18.260  0.00  0.00    +0.000 HD
ENDBRANCH  23  25
ENDBRANCH  20  21
ENDBRANCH  19  20
ENDBRANCH   5  19
TORSDOF 9
ENDMDL
