MODEL 1
REMARK VINA RESULT:      -7.9      0.000      0.000
REMARK  Name = 
REMARK  6 active torsions:
REMARK  status: ('A' for Active; 'I' for Inactive)
REMARK    1  A    between atoms: C_2  and  C_21
REMARK    2  A    between atoms: N_3  and  C_4
REMARK    3  A    between atoms: C_4  and  C_5
REMARK    4  A    between atoms: C_5  and  C_6
REMARK    5  A    between atoms: C_5  and  N_15
REMARK    6  A    between atoms: C_9  and  C_10
REMARK                            x       y       z     vdW  Elec       q    Type
REMARK                         _______ _______ _______ _____ _____    ______ ____
ROOT
ATOM      1  C   UNL     1       4.165   4.249  18.368  0.00  0.00    +0.000 C 
ENDROOT
BRANCH   1   2
ATOM      2  C   UNL     1       5.107   4.521  17.163  0.00  0.00    +0.000 A 
ATOM      3  C   UNL     1       6.486   4.662  17.206  0.00  0.00    +0.000 A 
ATOM      4  N   UNL     1       7.305   4.760  16.123  0.00  0.00    +0.000 NA
ATOM      5  C   UNL     1       6.723   4.747  14.905  0.00  0.00    +0.000 A 
ATOM      6  N   UNL     1       5.394   4.804  14.747  0.00  0.00    +0.000 NA
ATOM      7  C   UNL     1       4.650   4.743  15.876  0.00  0.00    +0.000 A 
BRANCH   5   8
ATOM      8  C   UNL     1       7.601   4.598  13.667  0.00  0.00    +0.000 C 
ATOM      9  F   UNL     1       6.899   4.274  12.537  0.00  0.00    +0.000 F 
ATOM     10  F   UNL     1       8.311   5.721  13.346  0.00  0.00    +0.000 F 
ENDBRANCH   5   8
ENDBRANCH   1   2
BRANCH   1  11
ATOM     11  N   UNL     1       4.271   2.840  18.953  0.00  0.00    +0.000 NA
ATOM     12  C   UNL     1       3.700   1.751  18.120  0.00  0.00    +0.000 C 
ATOM     13  C   UNL     1       2.170   1.867  17.975  0.00  0.00    +0.000 C 
ATOM     14  O   UNL     1       1.544   1.672  19.248  0.00  0.00    +0.000 OA
ATOM     15  C   UNL     1       2.018   2.651  20.185  0.00  0.00    +0.000 C 
ATOM     16  C   UNL     1       3.563   2.650  20.268  0.00  0.00    +0.000 C 
ENDBRANCH   1  11
BRANCH   1  17
ATOM     17  C   UNL     1       4.377   5.274  19.561  0.00  0.00    +0.000 C 
BRANCH  17  20
ATOM     18  O   UNL     1       1.817   5.640  20.719  0.00  0.00    +0.000 OA
ATOM     19  C   UNL     1       2.358   6.597  20.157  0.00  0.00    +0.000 C 
ATOM     20  N   UNL     1       3.570   6.483  19.530  0.00  0.00    +0.000 N 
ATOM     21  H   UNL     1       4.018   7.335  19.194  0.00  0.00    +0.000 HD
BRANCH  19  22
ATOM     22  C   UNL     1       1.709   7.943  20.182  0.00  0.00    +0.000 A 
ATOM     23  C   UNL     1       1.104   8.345  21.392  0.00  0.00    +0.000 A 
ATOM     24  C   UNL     1       0.467   9.582  21.499  0.00  0.00    +0.000 A 
ATOM     25  C   UNL     1       0.437  10.446  20.407  0.00  0.00    +0.000 A 
ATOM     26  C   UNL     1       1.036  10.059  19.211  0.00  0.00    +0.000 A 
ATOM     27  C   UNL     1       1.661   8.818  19.081  0.00  0.00    +0.000 A 
ATOM     28 CL   UNL     1       2.296   8.465  17.516  0.00  0.00    +0.000 Cl
ENDBRANCH  19  22
ENDBRANCH  17  20
ENDBRANCH   1  17
TORSDOF 6
ENDMDL
MODEL 2
REMARK VINA RESULT:      -7.7      1.651      2.072
REMARK  Name = 
REMARK  6 active torsions:
REMARK  status: ('A' for Active; 'I' for Inactive)
REMARK    1  A    between atoms: C_2  and  C_21
REMARK    2  A    between atoms: N_3  and  C_4
REMARK    3  A    between atoms: C_4  and  C_5
REMARK    4  A    between atoms: C_5  and  C_6
REMARK    5  A    between atoms: C_5  and  N_15
REMARK    6  A    between atoms: C_9  and  C_10
REMARK                            x       y       z     vdW  Elec       q    Type
REMARK                         _______ _______ _______ _____ _____    ______ ____
ROOT
ATOM      1  C   UNL     1       3.434   4.794  18.402  0.00  0.00    +0.000 C 
ENDROOT
BRANCH   1   2
ATOM      2  C   UNL     1       4.440   4.784  17.220  0.00  0.00    +0.000 A 
ATOM      3  C   UNL     1       5.148   3.690  16.745  0.00  0.00    +0.000 A 
ATOM      4  N   UNL     1       5.916   3.673  15.621  0.00  0.00    +0.000 NA
ATOM      5  C   UNL     1       6.021   4.826  14.927  0.00  0.00    +0.000 A 
ATOM      6  N   UNL     1       5.539   5.986  15.391  0.00  0.00    +0.000 NA
ATOM      7  C   UNL     1       4.821   5.925  16.536  0.00  0.00    +0.000 A 
BRANCH   5   8
ATOM      8  C   UNL     1       6.654   4.800  13.540  0.00  0.00    +0.000 C 
ATOM      9  F   UNL     1       7.936   5.280  13.516  0.00  0.00    +0.000 F 
ATOM     10  F   UNL     1       6.719   3.556  12.977  0.00  0.00    +0.000 F 
ENDBRANCH   5   8
ENDBRANCH   1   2
BRANCH   1  11
ATOM     11  N   UNL     1       3.347   3.477  19.176  0.00  0.00    +0.000 NA
ATOM     12  C   UNL     1       2.527   2.412  18.546  0.00  0.00    +0.000 C 
ATOM     13  C   UNL     1       1.033   2.785  18.483  0.00  0.00    +0.000 C 
ATOM     14  O   UNL     1       0.497   2.874  19.807  0.00  0.00    +0.000 OA
ATOM     15  C   UNL     1       1.212   3.864  20.563  0.00  0.00    +0.000 C 
ATOM     16  C   UNL     1       2.735   3.592  20.547  0.00  0.00    +0.000 C 
ENDBRANCH   1  11
BRANCH   1  17
ATOM     17  C   UNL     1       3.730   5.943  19.456  0.00  0.00    +0.000 C 
BRANCH  17  20
ATOM     18  O   UNL     1       3.259   8.253  17.884  0.00  0.00    +0.000 OA
ATOM     19  C   UNL     1       2.491   8.002  18.817  0.00  0.00    +0.000 C 
ATOM     20  N   UNL     1       2.683   6.933  19.652  0.00  0.00    +0.000 N 
ATOM     21  H   UNL     1       1.949   6.710  20.321  0.00  0.00    +0.000 HD
BRANCH  19  22
ATOM     22  C   UNL     1       1.281   8.851  19.039  0.00  0.00    +0.000 A 
ATOM     23  C   UNL     1       0.627   9.355  17.894  0.00  0.00    +0.000 A 
ATOM     24  C   UNL     1      -0.503  10.164  18.012  0.00  0.00    +0.000 A 
ATOM     25  C   UNL     1      -1.011  10.472  19.272  0.00  0.00    +0.000 A 
ATOM     26  C   UNL     1      -0.375   9.975  20.407  0.00  0.00    +0.000 A 
ATOM     27  C   UNL     1       0.767   9.179  20.308  0.00  0.00    +0.000 A 
ATOM     28 CL   UNL     1       1.472   8.699  21.808  0.00  0.00    +0.000 Cl
ENDBRANCH  19  22
ENDBRANCH  17  20
ENDBRANCH   1  17
TORSDOF 6
ENDMDL
MODEL 3
REMARK VINA RESULT:      -7.7      4.078      7.401
REMARK  Name = 
REMARK  6 active torsions:
REMARK  status: ('A' for Active; 'I' for Inactive)
REMARK    1  A    between atoms: C_2  and  C_21
REMARK    2  A    between atoms: N_3  and  C_4
REMARK    3  A    between atoms: C_4  and  C_5
REMARK    4  A    between atoms: C_5  and  C_6
REMARK    5  A    between atoms: C_5  and  N_15
REMARK    6  A    between atoms: C_9  and  C_10
REMARK                            x       y       z     vdW  Elec       q    Type
REMARK                         _______ _______ _______ _____ _____    ______ ____
ROOT
ATOM      1  C   UNL     1       4.049   5.486  18.229  0.00  0.00    +0.000 C 
ENDROOT
BRANCH   1   2
ATOM      2  C   UNL     1       3.232   6.800  18.365  0.00  0.00    +0.000 A 
ATOM      3  C   UNL     1       3.123   7.808  17.419  0.00  0.00    +0.000 A 
ATOM      4  N   UNL     1       2.291   8.882  17.503  0.00  0.00    +0.000 NA
ATOM      5  C   UNL     1       1.530   8.990  18.612  0.00  0.00    +0.000 A 
ATOM      6  N   UNL     1       1.688   8.183  19.669  0.00  0.00    +0.000 NA
ATOM      7  C   UNL     1       2.565   7.162  19.522  0.00  0.00    +0.000 A 
BRANCH   5   8
ATOM      8  C   UNL     1       0.409  10.024  18.643  0.00  0.00    +0.000 C 
ATOM      9  F   UNL     1      -0.360   9.961  19.775  0.00  0.00    +0.000 F 
ATOM     10  F   UNL     1       0.838  11.318  18.565  0.00  0.00    +0.000 F 
ENDBRANCH   5   8
ENDBRANCH   1   2
BRANCH   1  11
ATOM     11  N   UNL     1       3.348   4.379  17.440  0.00  0.00    +0.000 NA
ATOM     12  C   UNL     1       1.905   4.191  17.737  0.00  0.00    +0.000 C 
ATOM     13  C   UNL     1       1.664   3.689  19.174  0.00  0.00    +0.000 C 
ATOM     14  O   UNL     1       2.207   2.374  19.328  0.00  0.00    +0.000 OA
ATOM     15  C   UNL     1       3.616   2.386  19.048  0.00  0.00    +0.000 C 
ATOM     16  C   UNL     1       3.908   2.998  17.658  0.00  0.00    +0.000 C 
ENDBRANCH   1  11
BRANCH   1  17
ATOM     17  C   UNL     1       5.473   5.710  17.564  0.00  0.00    +0.000 C 
BRANCH  17  20
ATOM     18  O   UNL     1       7.739   4.687  16.205  0.00  0.00    +0.000 OA
ATOM     19  C   UNL     1       6.700   4.881  15.567  0.00  0.00    +0.000 C 
ATOM     20  N   UNL     1       5.581   5.420  16.143  0.00  0.00    +0.000 N 
ATOM     21  H   UNL     1       4.722   5.439  15.597  0.00  0.00    +0.000 HD
BRANCH  19  22
ATOM     22  C   UNL     1       6.620   4.484  14.128  0.00  0.00    +0.000 A 
ATOM     23  C   UNL     1       5.572   3.615  13.756  0.00  0.00    +0.000 A 
ATOM     24  C   UNL     1       5.431   3.187  12.435  0.00  0.00    +0.000 A 
ATOM     25  C   UNL     1       6.322   3.629  11.460  0.00  0.00    +0.000 A 
ATOM     26  C   UNL     1       7.357   4.491  11.819  0.00  0.00    +0.000 A 
ATOM     27  C   UNL     1       7.523   4.914  13.138  0.00  0.00    +0.000 A 
ATOM     28 CL   UNL     1       8.891   5.926  13.428  0.00  0.00    +0.000 Cl
ENDBRANCH  19  22
ENDBRANCH  17  20
ENDBRANCH   1  17
TORSDOF 6
ENDMDL
MODEL 4
REMARK VINA RESULT:      -7.7      1.151      1.519
REMARK  Name = 
REMARK  6 active torsions:
REMARK  status: ('A' for Active; 'I' for Inactive)
REMARK    1  A    between atoms: C_2  and  C_21
REMARK    2  A    between atoms: N_3  and  C_4
REMARK    3  A    between atoms: C_4  and  C_5
REMARK    4  A    between atoms: C_5  and  C_6
REMARK    5  A    between atoms: C_5  and  N_15
REMARK    6  A    between atoms: C_9  and  C_10
REMARK                            x       y       z     vdW  Elec       q    Type
REMARK                         _______ _______ _______ _____ _____    ______ ____
ROOT
ATOM      1  C   UNL     1       4.199   4.517  17.892  0.00  0.00    +0.000 C 
ENDROOT
BRANCH   1   2
ATOM      2  C   UNL     1       5.114   4.757  16.659  0.00  0.00    +0.000 A 
ATOM      3  C   UNL     1       6.323   5.436  16.647  0.00  0.00    +0.000 A 
ATOM      4  N   UNL     1       7.174   5.513  15.587  0.00  0.00    +0.000 NA
ATOM      5  C   UNL     1       6.797   4.902  14.445  0.00  0.00    +0.000 A 
ATOM      6  N   UNL     1       5.573   4.380  14.284  0.00  0.00    +0.000 NA
ATOM      7  C   UNL     1       4.771   4.378  15.374  0.00  0.00    +0.000 A 
BRANCH   5   8
ATOM      8  C   UNL     1       7.813   4.741  13.320  0.00  0.00    +0.000 C 
ATOM      9  F   UNL     1       7.245   4.461  12.107  0.00  0.00    +0.000 F 
ATOM     10  F   UNL     1       8.595   5.842  13.110  0.00  0.00    +0.000 F 
ENDBRANCH   5   8
ENDBRANCH   1   2
BRANCH   1  11
ATOM     11  N   UNL     1       4.418   3.177  18.596  0.00  0.00    +0.000 NA
ATOM     12  C   UNL     1       3.879   1.985  17.895  0.00  0.00    +0.000 C 
ATOM     13  C   UNL     1       2.340   1.998  17.818  0.00  0.00    +0.000 C 
ATOM     14  O   UNL     1       1.785   1.887  19.132  0.00  0.00    +0.000 OA
ATOM     15  C   UNL     1       2.239   2.975  19.952  0.00  0.00    +0.000 C 
ATOM     16  C   UNL     1       3.783   3.070  19.957  0.00  0.00    +0.000 C 
ENDBRANCH   1  11
BRANCH   1  17
ATOM     17  C   UNL     1       4.330   5.656  18.990  0.00  0.00    +0.000 C 
BRANCH  17  20
ATOM     18  O   UNL     1       1.951   6.264  20.403  0.00  0.00    +0.000 OA
ATOM     19  C   UNL     1       2.373   7.074  19.573  0.00  0.00    +0.000 C 
ATOM     20  N   UNL     1       3.487   6.828  18.815  0.00  0.00    +0.000 N 
ATOM     21  H   UNL     1       3.853   7.585  18.241  0.00  0.00    +0.000 HD
BRANCH  19  22
ATOM     22  C   UNL     1       1.690   8.392  19.400  0.00  0.00    +0.000 A 
ATOM     23  C   UNL     1       1.620   8.915  18.091  0.00  0.00    +0.000 A 
ATOM     24  C   UNL     1       1.009  10.145  17.842  0.00  0.00    +0.000 A 
ATOM     25  C   UNL     1       0.442  10.866  18.890  0.00  0.00    +0.000 A 
ATOM     26  C   UNL     1       0.501  10.354  20.185  0.00  0.00    +0.000 A 
ATOM     27  C   UNL     1       1.126   9.135  20.454  0.00  0.00    +0.000 A 
ATOM     28 CL   UNL     1       1.172   8.674  22.116  0.00  0.00    +0.000 Cl
ENDBRANCH  19  22
ENDBRANCH  17  20
ENDBRANCH   1  17
TORSDOF 6
ENDMDL
MODEL 5
REMARK VINA RESULT:      -7.7      2.498      2.920
REMARK  Name = 
REMARK  6 active torsions:
REMARK  status: ('A' for Active; 'I' for Inactive)
REMARK    1  A    between atoms: C_2  and  C_21
REMARK    2  A    between atoms: N_3  and  C_4
REMARK    3  A    between atoms: C_4  and  C_5
REMARK    4  A    between atoms: C_5  and  C_6
REMARK    5  A    between atoms: C_5  and  N_15
REMARK    6  A    between atoms: C_9  and  C_10
REMARK                            x       y       z     vdW  Elec       q    Type
REMARK                         _______ _______ _______ _____ _____    ______ ____
ROOT
ATOM      1  C   UNL     1       2.843   5.074  19.415  0.00  0.00    +0.000 C 
ENDROOT
BRANCH   1   2
ATOM      2  C   UNL     1       4.176   5.592  18.809  0.00  0.00    +0.000 A 
ATOM      3  C   UNL     1       4.321   6.347  17.655  0.00  0.00    +0.000 A 
ATOM      4  N   UNL     1       5.483   6.908  17.219  0.00  0.00    +0.000 NA
ATOM      5  C   UNL     1       6.591   6.687  17.957  0.00  0.00    +0.000 A 
ATOM      6  N   UNL     1       6.608   5.823  18.980  0.00  0.00    +0.000 NA
ATOM      7  C   UNL     1       5.420   5.275  19.326  0.00  0.00    +0.000 A 
BRANCH   5   8
ATOM      8  C   UNL     1       7.852   7.491  17.658  0.00  0.00    +0.000 C 
ATOM      9  F   UNL     1       7.598   8.772  17.250  0.00  0.00    +0.000 F 
ATOM     10  F   UNL     1       8.706   7.608  18.719  0.00  0.00    +0.000 F 
ENDBRANCH   5   8
ENDBRANCH   1   2
BRANCH   1  11
ATOM     11  N   UNL     1       2.923   3.672  20.023  0.00  0.00    +0.000 NA
ATOM     12  C   UNL     1       3.260   2.578  19.076  0.00  0.00    +0.000 C 
ATOM     13  C   UNL     1       2.155   2.353  18.026  0.00  0.00    +0.000 C 
ATOM     14  O   UNL     1       0.964   1.882  18.665  0.00  0.00    +0.000 OA
ATOM     15  C   UNL     1       0.518   2.836  19.641  0.00  0.00    +0.000 C 
ATOM     16  C   UNL     1       1.643   3.182  20.645  0.00  0.00    +0.000 C 
ENDBRANCH   1  11
BRANCH   1  17
ATOM     17  C   UNL     1       2.256   6.039  20.530  0.00  0.00    +0.000 C 
BRANCH  17  20
ATOM     18  O   UNL     1       0.221   7.758  21.496  0.00  0.00    +0.000 OA
ATOM     19  C   UNL     1       1.039   8.202  20.686  0.00  0.00    +0.000 C 
ATOM     20  N   UNL     1       2.019   7.419  20.136  0.00  0.00    +0.000 N 
ATOM     21  H   UNL     1       2.735   7.873  19.572  0.00  0.00    +0.000 HD
BRANCH  19  22
ATOM     22  C   UNL     1       1.007   9.647  20.307  0.00  0.00    +0.000 A 
ATOM     23  C   UNL     1       0.676  10.572  21.321  0.00  0.00    +0.000 A 
ATOM     24  C   UNL     1       0.614  11.939  21.050  0.00  0.00    +0.000 A 
ATOM     25  C   UNL     1       0.896  12.411  19.770  0.00  0.00    +0.000 A 
ATOM     26  C   UNL     1       1.230  11.505  18.766  0.00  0.00    +0.000 A 
ATOM     27  C   UNL     1       1.278  10.132  19.014  0.00  0.00    +0.000 A 
ATOM     28 CL   UNL     1       1.642   9.142  17.649  0.00  0.00    +0.000 Cl
ENDBRANCH  19  22
ENDBRANCH  17  20
ENDBRANCH   1  17
TORSDOF 6
ENDMDL
MODEL 6
REMARK VINA RESULT:      -7.6      1.031      1.515
REMARK  Name = 
REMARK  6 active torsions:
REMARK  status: ('A' for Active; 'I' for Inactive)
REMARK    1  A    between atoms: C_2  and  C_21
REMARK    2  A    between atoms: N_3  and  C_4
REMARK    3  A    between atoms: C_4  and  C_5
REMARK    4  A    between atoms: C_5  and  C_6
REMARK    5  A    between atoms: C_5  and  N_15
REMARK    6  A    between atoms: C_9  and  C_10
REMARK                            x       y       z     vdW  Elec       q    Type
REMARK                         _______ _______ _______ _____ _____    ______ ____
ROOT
ATOM      1  C   UNL     1       4.481   4.274  17.988  0.00  0.00    +0.000 C 
ENDROOT
BRANCH   1   2
ATOM      2  C   UNL     1       5.325   4.371  16.687  0.00  0.00    +0.000 A 
ATOM      3  C   UNL     1       4.981   3.876  15.439  0.00  0.00    +0.000 A 
ATOM      4  N   UNL     1       5.669   4.095  14.285  0.00  0.00    +0.000 NA
ATOM      5  C   UNL     1       6.798   4.831  14.368  0.00  0.00    +0.000 A 
ATOM      6  N   UNL     1       7.326   5.199  15.543  0.00  0.00    +0.000 NA
ATOM      7  C   UNL     1       6.599   4.909  16.648  0.00  0.00    +0.000 A 
BRANCH   5   8
ATOM      8  C   UNL     1       7.463   5.315  13.084  0.00  0.00    +0.000 C 
ATOM      9  F   UNL     1       8.774   5.669  13.250  0.00  0.00    +0.000 F 
ATOM     10  F   UNL     1       7.458   4.398  12.071  0.00  0.00    +0.000 F 
ENDBRANCH   5   8
ENDBRANCH   1   2
BRANCH   1  11
ATOM     11  N   UNL     1       4.416   2.874  18.601  0.00  0.00    +0.000 NA
ATOM     12  C   UNL     1       3.507   1.915  17.923  0.00  0.00    +0.000 C 
ATOM     13  C   UNL     1       2.027   2.329  18.040  0.00  0.00    +0.000 C 
ATOM     14  O   UNL     1       1.611   2.267  19.408  0.00  0.00    +0.000 OA
ATOM     15  C   UNL     1       2.423   3.138  20.210  0.00  0.00    +0.000 C 
ATOM     16  C   UNL     1       3.928   2.833  20.025  0.00  0.00    +0.000 C 
ENDBRANCH   1  11
BRANCH   1  17
ATOM     17  C   UNL     1       4.980   5.265  19.123  0.00  0.00    +0.000 C 
BRANCH  17  20
ATOM     18  O   UNL     1       3.298   7.031  17.680  0.00  0.00    +0.000 OA
ATOM     19  C   UNL     1       3.177   6.964  18.907  0.00  0.00    +0.000 C 
ATOM     20  N   UNL     1       3.987   6.172  19.676  0.00  0.00    +0.000 N 
ATOM     21  H   UNL     1       3.757   6.067  20.663  0.00  0.00    +0.000 HD
BRANCH  19  22
ATOM     22  C   UNL     1       2.093   7.729  19.594  0.00  0.00    +0.000 A 
ATOM     23  C   UNL     1       1.570   7.179  20.784  0.00  0.00    +0.000 A 
ATOM     24  C   UNL     1       0.549   7.823  21.482  0.00  0.00    +0.000 A 
ATOM     25  C   UNL     1       0.041   9.034  21.017  0.00  0.00    +0.000 A 
ATOM     26  C   UNL     1       0.556   9.586  19.846  0.00  0.00    +0.000 A 
ATOM     27  C   UNL     1       1.564   8.946  19.124  0.00  0.00    +0.000 A 
ATOM     28 CL   UNL     1       2.044   9.727  17.663  0.00  0.00    +0.000 Cl
ENDBRANCH  19  22
ENDBRANCH  17  20
ENDBRANCH   1  17
TORSDOF 6
ENDMDL
MODEL 7
REMARK VINA RESULT:      -7.6      3.973      7.345
REMARK  Name = 
REMARK  6 active torsions:
REMARK  status: ('A' for Active; 'I' for Inactive)
REMARK    1  A    between atoms: C_2  and  C_21
REMARK    2  A    between atoms: N_3  and  C_4
REMARK    3  A    between atoms: C_4  and  C_5
REMARK    4  A    between atoms: C_5  and  C_6
REMARK    5  A    between atoms: C_5  and  N_15
REMARK    6  A    between atoms: C_9  and  C_10
REMARK                            x       y       z     vdW  Elec       q    Type
REMARK                         _______ _______ _______ _____ _____    ______ ____
ROOT
ATOM      1  C   UNL     1       4.010   5.557  18.234  0.00  0.00    +0.000 C 
ENDROOT
BRANCH   1   2
ATOM      2  C   UNL     1       3.089   6.792  18.433  0.00  0.00    +0.000 A 
ATOM      3  C   UNL     1       2.364   7.108  19.572  0.00  0.00    +0.000 A 
ATOM      4  N   UNL     1       1.676   8.265  19.774  0.00  0.00    +0.000 NA
ATOM      5  C   UNL     1       1.676   9.168  18.771  0.00  0.00    +0.000 A 
ATOM      6  N   UNL     1       2.181   8.893  17.562  0.00  0.00    +0.000 NA
ATOM      7  C   UNL     1       2.814   7.704  17.429  0.00  0.00    +0.000 A 
BRANCH   5   8
ATOM      8  C   UNL     1       1.141  10.571  19.038  0.00  0.00    +0.000 C 
ATOM      9  F   UNL     1       1.697  11.529  18.233  0.00  0.00    +0.000 F 
ATOM     10  F   UNL     1      -0.210  10.696  18.874  0.00  0.00    +0.000 F 
ENDBRANCH   5   8
ENDBRANCH   1   2
BRANCH   1  11
ATOM     11  N   UNL     1       3.381   4.416  17.433  0.00  0.00    +0.000 NA
ATOM     12  C   UNL     1       1.954   4.130  17.730  0.00  0.00    +0.000 C 
ATOM     13  C   UNL     1       1.751   3.597  19.162  0.00  0.00    +0.000 C 
ATOM     14  O   UNL     1       2.379   2.318  19.299  0.00  0.00    +0.000 OA
ATOM     15  C   UNL     1       3.783   2.426  19.017  0.00  0.00    +0.000 C 
ATOM     16  C   UNL     1       4.031   3.073  17.633  0.00  0.00    +0.000 C 
ENDBRANCH   1  11
BRANCH   1  17
ATOM     17  C   UNL     1       5.389   5.921  17.536  0.00  0.00    +0.000 C 
BRANCH  17  20
ATOM     18  O   UNL     1       7.666   4.821  16.259  0.00  0.00    +0.000 OA
ATOM     19  C   UNL     1       6.640   4.999  15.596  0.00  0.00    +0.000 C 
ATOM     20  N   UNL     1       5.518   5.572  16.130  0.00  0.00    +0.000 N 
ATOM     21  H   UNL     1       4.668   5.577  15.568  0.00  0.00    +0.000 HD
BRANCH  19  22
ATOM     22  C   UNL     1       6.582   4.544  14.173  0.00  0.00    +0.000 A 
ATOM     23  C   UNL     1       5.530   3.672  13.818  0.00  0.00    +0.000 A 
ATOM     24  C   UNL     1       5.408   3.192  12.514  0.00  0.00    +0.000 A 
ATOM     25  C   UNL     1       6.321   3.584  11.537  0.00  0.00    +0.000 A 
ATOM     26  C   UNL     1       7.358   4.449  11.879  0.00  0.00    +0.000 A 
ATOM     27  C   UNL     1       7.507   4.924  13.183  0.00  0.00    +0.000 A 
ATOM     28 CL   UNL     1       8.880   5.932  13.455  0.00  0.00    +0.000 Cl
ENDBRANCH  19  22
ENDBRANCH  17  20
ENDBRANCH   1  17
TORSDOF 6
ENDMDL
MODEL 8
REMARK VINA RESULT:      -7.5      1.176      1.396
REMARK  Name = 
REMARK  6 active torsions:
REMARK  status: ('A' for Active; 'I' for Inactive)
REMARK    1  A    between atoms: C_2  and  C_21
REMARK    2  A    between atoms: N_3  and  C_4
REMARK    3  A    between atoms: C_4  and  C_5
REMARK    4  A    between atoms: C_5  and  C_6
REMARK    5  A    between atoms: C_5  and  N_15
REMARK    6  A    between atoms: C_9  and  C_10
REMARK                            x       y       z     vdW  Elec       q    Type
REMARK                         _______ _______ _______ _____ _____    ______ ____
ROOT
ATOM      1  C   UNL     1       3.712   4.458  18.295  0.00  0.00    +0.000 C 
ENDROOT
BRANCH   1   2
ATOM      2  C   UNL     1       4.659   4.542  17.066  0.00  0.00    +0.000 A 
ATOM      3  C   UNL     1       5.410   3.508  16.528  0.00  0.00    +0.000 A 
ATOM      4  N   UNL     1       6.123   3.569  15.370  0.00  0.00    +0.000 NA
ATOM      5  C   UNL     1       6.122   4.743  14.705  0.00  0.00    +0.000 A 
ATOM      6  N   UNL     1       5.590   5.858  15.223  0.00  0.00    +0.000 NA
ATOM      7  C   UNL     1       4.933   5.722  16.398  0.00  0.00    +0.000 A 
BRANCH   5   8
ATOM      8  C   UNL     1       6.687   4.793  13.289  0.00  0.00    +0.000 C 
ATOM      9  F   UNL     1       7.944   5.331  13.223  0.00  0.00    +0.000 F 
ATOM     10  F   UNL     1       6.779   3.573  12.680  0.00  0.00    +0.000 F 
ENDBRANCH   5   8
ENDBRANCH   1   2
BRANCH   1  11
ATOM     11  N   UNL     1       3.497   3.043  18.837  0.00  0.00    +0.000 NA
ATOM     12  C   UNL     1       2.418   2.260  18.183  0.00  0.00    +0.000 C 
ATOM     13  C   UNL     1       1.022   2.860  18.439  0.00  0.00    +0.000 C 
ATOM     14  O   UNL     1       0.700   2.768  19.831  0.00  0.00    +0.000 OA
ATOM     15  C   UNL     1       1.680   3.470  20.611  0.00  0.00    +0.000 C 
ATOM     16  C   UNL     1       3.112   2.978  20.291  0.00  0.00    +0.000 C 
ENDBRANCH   1  11
BRANCH   1  17
ATOM     17  C   UNL     1       4.192   5.361  19.508  0.00  0.00    +0.000 C 
BRANCH  17  20
ATOM     18  O   UNL     1       3.162   7.606  18.119  0.00  0.00    +0.000 OA
ATOM     19  C   UNL     1       2.750   7.371  19.259  0.00  0.00    +0.000 C 
ATOM     20  N   UNL     1       3.237   6.335  20.011  0.00  0.00    +0.000 N 
ATOM     21  H   UNL     1       2.770   6.121  20.890  0.00  0.00    +0.000 HD
BRANCH  19  22
ATOM     22  C   UNL     1       1.655   8.203  19.844  0.00  0.00    +0.000 A 
ATOM     23  C   UNL     1       1.097   7.768  21.066  0.00  0.00    +0.000 A 
ATOM     24  C   UNL     1       0.064   8.480  21.676  0.00  0.00    +0.000 A 
ATOM     25  C   UNL     1      -0.421   9.646  21.088  0.00  0.00    +0.000 A 
ATOM     26  C   UNL     1       0.128  10.085  19.884  0.00  0.00    +0.000 A 
ATOM     27  C   UNL     1       1.149   9.375  19.251  0.00  0.00    +0.000 A 
ATOM     28 CL   UNL     1       1.672  10.015  17.737  0.00  0.00    +0.000 Cl
ENDBRANCH  19  22
ENDBRANCH  17  20
ENDBRANCH   1  17
TORSDOF 6
ENDMDL
MODEL 9
REMARK VINA RESULT:      -7.4      1.622      1.964
REMARK  Name = 
REMARK  6 active torsions:
REMARK  status: ('A' for Active; 'I' for Inactive)
REMARK    1  A    between atoms: C_2  and  C_21
REMARK    2  A    between atoms: N_3  and  C_4
REMARK    3  A    between atoms: C_4  and  C_5
REMARK    4  A    between atoms: C_5  and  C_6
REMARK    5  A    between atoms: C_5  and  N_15
REMARK    6  A    between atoms: C_9  and  C_10
REMARK                            x       y       z     vdW  Elec       q    Type
REMARK                         _______ _______ _______ _____ _____    ______ ____
ROOT
ATOM      1  C   UNL     1       3.378   4.933  18.398  0.00  0.00    +0.000 C 
ENDROOT
BRANCH   1   2
ATOM      2  C   UNL     1       4.420   4.772  17.256  0.00  0.00    +0.000 A 
ATOM      3  C   UNL     1       5.112   3.617  16.925  0.00  0.00    +0.000 A 
ATOM      4  N   UNL     1       5.913   3.462  15.836  0.00  0.00    +0.000 NA
ATOM      5  C   UNL     1       6.070   4.530  15.026  0.00  0.00    +0.000 A 
ATOM      6  N   UNL     1       5.604   5.744  15.346  0.00  0.00    +0.000 NA
ATOM      7  C   UNL     1       4.850   5.824  16.467  0.00  0.00    +0.000 A 
BRANCH   5   8
ATOM      8  C   UNL     1       6.743   4.340  13.671  0.00  0.00    +0.000 C 
ATOM      9  F   UNL     1       5.866   4.047  12.662  0.00  0.00    +0.000 F 
ATOM     10  F   UNL     1       7.447   5.428  13.237  0.00  0.00    +0.000 F 
ENDBRANCH   5   8
ENDBRANCH   1   2
BRANCH   1  11
ATOM     11  N   UNL     1       3.320   3.758  19.376  0.00  0.00    +0.000 NA
ATOM     12  C   UNL     1       2.737   2.501  18.839  0.00  0.00    +0.000 C 
ATOM     13  C   UNL     1       1.240   2.647  18.505  0.00  0.00    +0.000 C 
ATOM     14  O   UNL     1       0.492   2.871  19.704  0.00  0.00    +0.000 OA
ATOM     15  C   UNL     1       0.960   4.059  20.362  0.00  0.00    +0.000 C 
ATOM     16  C   UNL     1       2.487   4.004  20.606  0.00  0.00    +0.000 C 
ENDBRANCH   1  11
BRANCH   1  17
ATOM     17  C   UNL     1       3.599   6.250  19.254  0.00  0.00    +0.000 C 
BRANCH  17  20
ATOM     18  O   UNL     1       1.831   7.324  21.191  0.00  0.00    +0.000 OA
ATOM     19  C   UNL     1       1.847   7.820  20.060  0.00  0.00    +0.000 C 
ATOM     20  N   UNL     1       2.637   7.323  19.058  0.00  0.00    +0.000 N 
ATOM     21  H   UNL     1       2.697   7.850  18.189  0.00  0.00    +0.000 HD
BRANCH  19  22
ATOM     22  C   UNL     1       1.019   9.027  19.761  0.00  0.00    +0.000 A 
ATOM     23  C   UNL     1       1.263   9.690  18.539  0.00  0.00    +0.000 A 
ATOM     24  C   UNL     1       0.541  10.832  18.187  0.00  0.00    +0.000 A 
ATOM     25  C   UNL     1      -0.446  11.323  19.038  0.00  0.00    +0.000 A 
ATOM     26  C   UNL     1      -0.696  10.671  20.244  0.00  0.00    +0.000 A 
ATOM     27  C   UNL     1       0.028   9.539  20.620  0.00  0.00    +0.000 A 
ATOM     28 CL   UNL     1      -0.358   8.890  22.172  0.00  0.00    +0.000 Cl
ENDBRANCH  19  22
ENDBRANCH  17  20
ENDBRANCH   1  17
TORSDOF 6
ENDMDL
