MODEL 1
REMARK VINA RESULT:      -6.6      0.000      0.000
REMARK  Name = 
REMARK  8 active torsions:
REMARK  status: ('A' for Active; 'I' for Inactive)
REMARK    1  A    between atoms: C_1  and  O_2
REMARK    2  A    between atoms: O_2  and  C_3
REMARK    3  A    between atoms: C_3  and  C_4
REMARK    4  A    between atoms: C_4  and  C_5
REMARK    5  A    between atoms: C_5  and  C_6
REMARK    6  A    between atoms: C_6  and  N_7
REMARK    7  A    between atoms: N_7  and  S_8
REMARK    8  A    between atoms: S_8  and  C_11
REMARK                            x       y       z     vdW  Elec       q    Type
REMARK                         _______ _______ _______ _____ _____    ______ ____
ROOT
ATOM      1  N   UNL     1       6.114   4.222  18.642  0.00  0.00    +0.000 NA
ATOM      2  H   UNL     1       5.728   3.413  18.155  0.00  0.00    +0.000 HD
ENDROOT
BRANCH   1   3
ATOM      3  S   UNL     1       7.400   4.872  17.766  0.00  0.00    +0.000 S 
ATOM      4  O   UNL     1       7.402   6.286  18.066  0.00  0.00    +0.000 OA
ATOM      5  O   UNL     1       8.568   4.050  17.993  0.00  0.00    +0.000 OA
BRANCH   3   6
ATOM      6  C   UNL     1       6.889   4.664  16.097  0.00  0.00    +0.000 A 
ATOM      7  C   UNL     1       5.867   3.777  15.766  0.00  0.00    +0.000 A 
ATOM      8  C   UNL     1       5.547   3.590  14.423  0.00  0.00    +0.000 A 
ATOM      9  C   UNL     1       6.274   4.287  13.472  0.00  0.00    +0.000 A 
ATOM     10  N   UNL     1       7.279   5.143  13.771  0.00  0.00    +0.000 NA
ATOM     11  C   UNL     1       7.573   5.309  15.085  0.00  0.00    +0.000 A 
ENDBRANCH   3   6
ENDBRANCH   1   3
BRANCH   1  12
ATOM     12  C   UNL     1       5.171   5.156  19.274  0.00  0.00    +0.000 C 
BRANCH  12  13
ATOM     13  C   UNL     1       3.713   4.899  18.804  0.00  0.00    +0.000 C 
ATOM     14  C   UNL     1       3.349   5.740  17.560  0.00  0.00    +0.000 C 
ATOM     15  C   UNL     1       3.105   7.149  18.091  0.00  0.00    +0.000 C 
ATOM     16  C   UNL     1       2.604   6.971  19.520  0.00  0.00    +0.000 C 
ATOM     17  C   UNL     1       2.727   5.481  19.842  0.00  0.00    +0.000 C 
BRANCH  13  18
ATOM     18  C   UNL     1       3.434   3.400  18.542  0.00  0.00    +0.000 C 
BRANCH  18  19
ATOM     19  C   UNL     1       2.525   3.114  17.347  0.00  0.00    +0.000 C 
BRANCH  19  21
ATOM     20  C   UNL     1       0.884   2.374  18.866  0.00  0.00    +0.000 C 
ATOM     21  O   UNL     1       1.169   3.239  17.774  0.00  0.00    +0.000 OA
ENDBRANCH  19  21
ENDBRANCH  18  19
ENDBRANCH  13  18
ENDBRANCH  12  13
ENDBRANCH   1  12
TORSDOF 7
ENDMDL
MODEL 2
REMARK VINA RESULT:      -6.5      2.254      3.437
REMARK  Name = 
REMARK  8 active torsions:
REMARK  status: ('A' for Active; 'I' for Inactive)
REMARK    1  A    between atoms: C_1  and  O_2
REMARK    2  A    between atoms: O_2  and  C_3
REMARK    3  A    between atoms: C_3  and  C_4
REMARK    4  A    between atoms: C_4  and  C_5
REMARK    5  A    between atoms: C_5  and  C_6
REMARK    6  A    between atoms: C_6  and  N_7
REMARK    7  A    between atoms: N_7  and  S_8
REMARK    8  A    between atoms: S_8  and  C_11
REMARK                            x       y       z     vdW  Elec       q    Type
REMARK                         _______ _______ _______ _____ _____    ______ ____
ROOT
ATOM      1  N   UNL     1       4.398   5.401  19.333  0.00  0.00    +0.000 NA
ATOM      2  H   UNL     1       4.623   6.392  19.428  0.00  0.00    +0.000 HD
ENDROOT
BRANCH   1   3
ATOM      3  S   UNL     1       5.799   4.511  19.033  0.00  0.00    +0.000 S 
ATOM      4  O   UNL     1       6.858   5.206  19.726  0.00  0.00    +0.000 OA
ATOM      5  O   UNL     1       5.515   3.116  19.290  0.00  0.00    +0.000 OA
BRANCH   3   6
ATOM      6  C   UNL     1       6.041   4.721  17.305  0.00  0.00    +0.000 A 
ATOM      7  C   UNL     1       5.068   4.320  16.391  0.00  0.00    +0.000 A 
ATOM      8  C   UNL     1       5.335   4.438  15.029  0.00  0.00    +0.000 A 
ATOM      9  C   UNL     1       6.570   4.936  14.643  0.00  0.00    +0.000 A 
ATOM     10  N   UNL     1       7.533   5.318  15.514  0.00  0.00    +0.000 NA
ATOM     11  C   UNL     1       7.250   5.194  16.835  0.00  0.00    +0.000 A 
ENDBRANCH   3   6
ENDBRANCH   1   3
BRANCH   1  12
ATOM     12  C   UNL     1       3.405   4.832  20.256  0.00  0.00    +0.000 C 
BRANCH  12  13
ATOM     13  C   UNL     1       1.963   5.278  19.888  0.00  0.00    +0.000 C 
ATOM     14  C   UNL     1       0.928   4.161  20.146  0.00  0.00    +0.000 C 
ATOM     15  C   UNL     1       1.099   3.186  18.987  0.00  0.00    +0.000 C 
ATOM     16  C   UNL     1       1.586   4.024  17.810  0.00  0.00    +0.000 C 
ATOM     17  C   UNL     1       1.846   5.429  18.355  0.00  0.00    +0.000 C 
BRANCH  13  18
ATOM     18  C   UNL     1       1.546   6.579  20.615  0.00  0.00    +0.000 C 
BRANCH  18  19
ATOM     19  C   UNL     1       1.851   7.867  19.852  0.00  0.00    +0.000 C 
BRANCH  19  21
ATOM     20  C   UNL     1       1.085   9.000  21.770  0.00  0.00    +0.000 C 
ATOM     21  O   UNL     1       1.002   8.899  20.354  0.00  0.00    +0.000 OA
ENDBRANCH  19  21
ENDBRANCH  18  19
ENDBRANCH  13  18
ENDBRANCH  12  13
ENDBRANCH   1  12
TORSDOF 7
ENDMDL
MODEL 3
REMARK VINA RESULT:      -6.4      1.672      3.074
REMARK  Name = 
REMARK  8 active torsions:
REMARK  status: ('A' for Active; 'I' for Inactive)
REMARK    1  A    between atoms: C_1  and  O_2
REMARK    2  A    between atoms: O_2  and  C_3
REMARK    3  A    between atoms: C_3  and  C_4
REMARK    4  A    between atoms: C_4  and  C_5
REMARK    5  A    between atoms: C_5  and  C_6
REMARK    6  A    between atoms: C_6  and  N_7
REMARK    7  A    between atoms: N_7  and  S_8
REMARK    8  A    between atoms: S_8  and  C_11
REMARK                            x       y       z     vdW  Elec       q    Type
REMARK                         _______ _______ _______ _____ _____    ______ ____
ROOT
ATOM      1  N   UNL     1       4.730   4.045  18.452  0.00  0.00    +0.000 NA
ATOM      2  H   UNL     1       4.327   3.683  17.587  0.00  0.00    +0.000 HD
ENDROOT
BRANCH   1   3
ATOM      3  S   UNL     1       6.060   5.025  18.113  0.00  0.00    +0.000 S 
ATOM      4  O   UNL     1       5.636   6.374  18.413  0.00  0.00    +0.000 OA
ATOM      5  O   UNL     1       7.226   4.442  18.738  0.00  0.00    +0.000 OA
BRANCH   3   6
ATOM      6  C   UNL     1       6.228   4.876  16.370  0.00  0.00    +0.000 A 
ATOM      7  C   UNL     1       5.255   4.233  15.608  0.00  0.00    +0.000 A 
ATOM      8  C   UNL     1       5.468   4.074  14.241  0.00  0.00    +0.000 A 
ATOM      9  C   UNL     1       6.652   4.549  13.700  0.00  0.00    +0.000 A 
ATOM     10  N   UNL     1       7.616   5.164  14.425  0.00  0.00    +0.000 NA
ATOM     11  C   UNL     1       7.387   5.308  15.755  0.00  0.00    +0.000 A 
ENDBRANCH   3   6
ENDBRANCH   1   3
BRANCH   1  12
ATOM     12  C   UNL     1       3.805   4.481  19.508  0.00  0.00    +0.000 C 
BRANCH  12  13
ATOM     13  C   UNL     1       2.386   4.765  18.942  0.00  0.00    +0.000 C 
ATOM     14  C   UNL     1       1.277   4.423  19.961  0.00  0.00    +0.000 C 
ATOM     15  C   UNL     1       1.165   2.903  19.931  0.00  0.00    +0.000 C 
ATOM     16  C   UNL     1       1.571   2.486  18.521  0.00  0.00    +0.000 C 
ATOM     17  C   UNL     1       2.068   3.752  17.821  0.00  0.00    +0.000 C 
BRANCH  13  18
ATOM     18  C   UNL     1       2.231   6.222  18.445  0.00  0.00    +0.000 C 
BRANCH  18  19
ATOM     19  C   UNL     1       2.377   7.290  19.527  0.00  0.00    +0.000 C 
BRANCH  19  21
ATOM     20  C   UNL     1       2.138   8.850  17.778  0.00  0.00    +0.000 C 
ATOM     21  O   UNL     1       1.715   8.474  19.083  0.00  0.00    +0.000 OA
ENDBRANCH  19  21
ENDBRANCH  18  19
ENDBRANCH  13  18
ENDBRANCH  12  13
ENDBRANCH   1  12
TORSDOF 7
ENDMDL
MODEL 4
REMARK VINA RESULT:      -6.4      2.463      5.669
REMARK  Name = 
REMARK  8 active torsions:
REMARK  status: ('A' for Active; 'I' for Inactive)
REMARK    1  A    between atoms: C_1  and  O_2
REMARK    2  A    between atoms: O_2  and  C_3
REMARK    3  A    between atoms: C_3  and  C_4
REMARK    4  A    between atoms: C_4  and  C_5
REMARK    5  A    between atoms: C_5  and  C_6
REMARK    6  A    between atoms: C_6  and  N_7
REMARK    7  A    between atoms: N_7  and  S_8
REMARK    8  A    between atoms: S_8  and  C_11
REMARK                            x       y       z     vdW  Elec       q    Type
REMARK                         _______ _______ _______ _____ _____    ______ ____
ROOT
ATOM      1  N   UNL     1       4.409   3.408  17.666  0.00  0.00    +0.000 NA
ATOM      2  H   UNL     1       5.076   3.433  18.438  0.00  0.00    +0.000 HD
ENDROOT
BRANCH   1   3
ATOM      3  S   UNL     1       3.339   2.119  17.861  0.00  0.00    +0.000 S 
ATOM      4  O   UNL     1       2.324   2.299  16.849  0.00  0.00    +0.000 OA
ATOM      5  O   UNL     1       4.109   0.898  17.951  0.00  0.00    +0.000 OA
BRANCH   3   6
ATOM      6  C   UNL     1       2.615   2.438  19.430  0.00  0.00    +0.000 A 
ATOM      7  C   UNL     1       1.298   2.881  19.534  0.00  0.00    +0.000 A 
ATOM      8  C   UNL     1       0.791   3.191  20.794  0.00  0.00    +0.000 A 
ATOM      9  C   UNL     1       1.629   3.061  21.890  0.00  0.00    +0.000 A 
ATOM     10  N   UNL     1       2.915   2.646  21.809  0.00  0.00    +0.000 NA
ATOM     11  C   UNL     1       3.387   2.349  20.572  0.00  0.00    +0.000 A 
ENDBRANCH   3   6
ENDBRANCH   1   3
BRANCH   1  12
ATOM     12  C   UNL     1       3.865   4.688  17.188  0.00  0.00    +0.000 C 
BRANCH  12  13
ATOM     13  C   UNL     1       4.421   5.885  18.008  0.00  0.00    +0.000 C 
ATOM     14  C   UNL     1       3.973   5.834  19.485  0.00  0.00    +0.000 C 
ATOM     15  C   UNL     1       2.521   6.299  19.476  0.00  0.00    +0.000 C 
ATOM     16  C   UNL     1       2.400   7.253  18.292  0.00  0.00    +0.000 C 
ATOM     17  C   UNL     1       3.733   7.189  17.545  0.00  0.00    +0.000 C 
BRANCH  13  18
ATOM     18  C   UNL     1       5.961   5.999  17.914  0.00  0.00    +0.000 C 
BRANCH  18  19
ATOM     19  C   UNL     1       6.715   5.561  19.169  0.00  0.00    +0.000 C 
BRANCH  19  21
ATOM     20  C   UNL     1       7.771   4.465  17.371  0.00  0.00    +0.000 C 
ATOM     21  O   UNL     1       7.772   4.685  18.776  0.00  0.00    +0.000 OA
ENDBRANCH  19  21
ENDBRANCH  18  19
ENDBRANCH  13  18
ENDBRANCH  12  13
ENDBRANCH   1  12
TORSDOF 7
ENDMDL
MODEL 5
REMARK VINA RESULT:      -6.4      2.934      5.994
REMARK  Name = 
REMARK  8 active torsions:
REMARK  status: ('A' for Active; 'I' for Inactive)
REMARK    1  A    between atoms: C_1  and  O_2
REMARK    2  A    between atoms: O_2  and  C_3
REMARK    3  A    between atoms: C_3  and  C_4
REMARK    4  A    between atoms: C_4  and  C_5
REMARK    5  A    between atoms: C_5  and  C_6
REMARK    6  A    between atoms: C_6  and  N_7
REMARK    7  A    between atoms: N_7  and  S_8
REMARK    8  A    between atoms: S_8  and  C_11
REMARK                            x       y       z     vdW  Elec       q    Type
REMARK                         _______ _______ _______ _____ _____    ______ ____
ROOT
ATOM      1  N   UNL     1       4.834   3.280  17.841  0.00  0.00    +0.000 NA
ATOM      2  H   UNL     1       5.473   2.993  18.583  0.00  0.00    +0.000 HD
ENDROOT
BRANCH   1   3
ATOM      3  S   UNL     1       3.442   2.327  17.869  0.00  0.00    +0.000 S 
ATOM      4  O   UNL     1       2.593   2.847  16.822  0.00  0.00    +0.000 OA
ATOM      5  O   UNL     1       3.842   0.938  17.899  0.00  0.00    +0.000 OA
BRANCH   3   6
ATOM      6  C   UNL     1       2.716   2.731  19.418  0.00  0.00    +0.000 A 
ATOM      7  C   UNL     1       1.582   3.538  19.489  0.00  0.00    +0.000 A 
ATOM      8  C   UNL     1       1.086   3.892  20.741  0.00  0.00    +0.000 A 
ATOM      9  C   UNL     1       1.756   3.437  21.866  0.00  0.00    +0.000 A 
ATOM     10  N   UNL     1       2.866   2.664  21.819  0.00  0.00    +0.000 NA
ATOM     11  C   UNL     1       3.331   2.331  20.588  0.00  0.00    +0.000 A 
ENDBRANCH   3   6
ENDBRANCH   1   3
BRANCH   1  12
ATOM     12  C   UNL     1       4.677   4.720  17.591  0.00  0.00    +0.000 C 
BRANCH  12  13
ATOM     13  C   UNL     1       5.602   5.203  16.440  0.00  0.00    +0.000 C 
ATOM     14  C   UNL     1       7.093   4.944  16.749  0.00  0.00    +0.000 C 
ATOM     15  C   UNL     1       7.487   6.030  17.744  0.00  0.00    +0.000 C 
ATOM     16  C   UNL     1       6.589   7.222  17.431  0.00  0.00    +0.000 C 
ATOM     17  C   UNL     1       5.586   6.746  16.380  0.00  0.00    +0.000 C 
BRANCH  13  18
ATOM     18  C   UNL     1       5.218   4.582  15.075  0.00  0.00    +0.000 C 
BRANCH  18  19
ATOM     19  C   UNL     1       6.378   3.955  14.305  0.00  0.00    +0.000 C 
BRANCH  19  21
ATOM     20  C   UNL     1       6.867   3.691  12.016  0.00  0.00    +0.000 C 
ATOM     21  O   UNL     1       5.891   3.518  13.036  0.00  0.00    +0.000 OA
ENDBRANCH  19  21
ENDBRANCH  18  19
ENDBRANCH  13  18
ENDBRANCH  12  13
ENDBRANCH   1  12
TORSDOF 7
ENDMDL
MODEL 6
REMARK VINA RESULT:      -6.2      2.116      3.395
REMARK  Name = 
REMARK  8 active torsions:
REMARK  status: ('A' for Active; 'I' for Inactive)
REMARK    1  A    between atoms: C_1  and  O_2
REMARK    2  A    between atoms: O_2  and  C_3
REMARK    3  A    between atoms: C_3  and  C_4
REMARK    4  A    between atoms: C_4  and  C_5
REMARK    5  A    between atoms: C_5  and  C_6
REMARK    6  A    between atoms: C_6  and  N_7
REMARK    7  A    between atoms: N_7  and  S_8
REMARK    8  A    between atoms: S_8  and  C_11
REMARK                            x       y       z     vdW  Elec       q    Type
REMARK                         _______ _______ _______ _____ _____    ______ ____
ROOT
ATOM      1  N   UNL     1       4.506   5.648  19.446  0.00  0.00    +0.000 NA
ATOM      2  H   UNL     1       4.769   6.590  19.738  0.00  0.00    +0.000 HD
ENDROOT
BRANCH   1   3
ATOM      3  S   UNL     1       5.884   4.730  19.128  0.00  0.00    +0.000 S 
ATOM      4  O   UNL     1       6.961   5.385  19.835  0.00  0.00    +0.000 OA
ATOM      5  O   UNL     1       5.566   3.338  19.358  0.00  0.00    +0.000 OA
BRANCH   3   6
ATOM      6  C   UNL     1       6.131   4.967  17.405  0.00  0.00    +0.000 A 
ATOM      7  C   UNL     1       5.106   5.448  16.593  0.00  0.00    +0.000 A 
ATOM      8  C   UNL     1       5.325   5.549  15.221  0.00  0.00    +0.000 A 
ATOM      9  C   UNL     1       6.554   5.150  14.721  0.00  0.00    +0.000 A 
ATOM     10  N   UNL     1       7.558   4.668  15.490  0.00  0.00    +0.000 NA
ATOM     11  C   UNL     1       7.322   4.578  16.823  0.00  0.00    +0.000 A 
ENDBRANCH   3   6
ENDBRANCH   1   3
BRANCH   1  12
ATOM     12  C   UNL     1       3.392   4.997  20.152  0.00  0.00    +0.000 C 
BRANCH  12  13
ATOM     13  C   UNL     1       2.153   4.828  19.230  0.00  0.00    +0.000 C 
ATOM     14  C   UNL     1       0.859   4.591  20.038  0.00  0.00    +0.000 C 
ATOM     15  C   UNL     1       0.931   3.135  20.486  0.00  0.00    +0.000 C 
ATOM     16  C   UNL     1       1.742   2.413  19.415  0.00  0.00    +0.000 C 
ATOM     17  C   UNL     1       2.262   3.492  18.463  0.00  0.00    +0.000 C 
BRANCH  13  18
ATOM     18  C   UNL     1       1.974   6.021  18.260  0.00  0.00    +0.000 C 
BRANCH  18  19
ATOM     19  C   UNL     1       2.112   7.399  18.904  0.00  0.00    +0.000 C 
BRANCH  19  21
ATOM     20  C   UNL     1       1.887   9.526  17.917  0.00  0.00    +0.000 C 
ATOM     21  O   UNL     1       2.617   8.305  17.924  0.00  0.00    +0.000 OA
ENDBRANCH  19  21
ENDBRANCH  18  19
ENDBRANCH  13  18
ENDBRANCH  12  13
ENDBRANCH   1  12
TORSDOF 7
ENDMDL
MODEL 7
REMARK VINA RESULT:      -6.2      2.547      4.102
REMARK  Name = 
REMARK  8 active torsions:
REMARK  status: ('A' for Active; 'I' for Inactive)
REMARK    1  A    between atoms: C_1  and  O_2
REMARK    2  A    between atoms: O_2  and  C_3
REMARK    3  A    between atoms: C_3  and  C_4
REMARK    4  A    between atoms: C_4  and  C_5
REMARK    5  A    between atoms: C_5  and  C_6
REMARK    6  A    between atoms: C_6  and  N_7
REMARK    7  A    between atoms: N_7  and  S_8
REMARK    8  A    between atoms: S_8  and  C_11
REMARK                            x       y       z     vdW  Elec       q    Type
REMARK                         _______ _______ _______ _____ _____    ______ ____
ROOT
ATOM      1  N   UNL     1       4.108   4.646  16.571  0.00  0.00    +0.000 NA
ATOM      2  H   UNL     1       3.693   5.561  16.752  0.00  0.00    +0.000 HD
ENDROOT
BRANCH   1   3
ATOM      3  S   UNL     1       5.614   4.825  15.833  0.00  0.00    +0.000 S 
ATOM      4  O   UNL     1       6.090   3.482  15.589  0.00  0.00    +0.000 OA
ATOM      5  O   UNL     1       5.485   5.788  14.762  0.00  0.00    +0.000 OA
BRANCH   3   6
ATOM      6  C   UNL     1       6.598   5.534  17.104  0.00  0.00    +0.000 A 
ATOM      7  C   UNL     1       6.909   6.893  17.096  0.00  0.00    +0.000 A 
ATOM      8  C   UNL     1       7.753   7.395  18.084  0.00  0.00    +0.000 A 
ATOM      9  C   UNL     1       8.262   6.514  19.024  0.00  0.00    +0.000 A 
ATOM     10  N   UNL     1       7.984   5.190  19.042  0.00  0.00    +0.000 NA
ATOM     11  C   UNL     1       7.159   4.722  18.071  0.00  0.00    +0.000 A 
ENDBRANCH   3   6
ENDBRANCH   1   3
BRANCH   1  12
ATOM     12  C   UNL     1       3.968   3.612  17.608  0.00  0.00    +0.000 C 
BRANCH  12  13
ATOM     13  C   UNL     1       3.101   4.111  18.797  0.00  0.00    +0.000 C 
ATOM     14  C   UNL     1       2.960   3.039  19.899  0.00  0.00    +0.000 C 
ATOM     15  C   UNL     1       1.940   2.043  19.357  0.00  0.00    +0.000 C 
ATOM     16  C   UNL     1       1.025   2.848  18.440  0.00  0.00    +0.000 C 
ATOM     17  C   UNL     1       1.632   4.248  18.340  0.00  0.00    +0.000 C 
BRANCH  13  18
ATOM     18  C   UNL     1       3.630   5.436  19.397  0.00  0.00    +0.000 C 
BRANCH  18  19
ATOM     19  C   UNL     1       2.724   6.646  19.179  0.00  0.00    +0.000 C 
BRANCH  19  21
ATOM     20  C   UNL     1       2.400   8.509  17.774  0.00  0.00    +0.000 C 
ATOM     21  O   UNL     1       3.159   7.328  18.003  0.00  0.00    +0.000 OA
ENDBRANCH  19  21
ENDBRANCH  18  19
ENDBRANCH  13  18
ENDBRANCH  12  13
ENDBRANCH   1  12
TORSDOF 7
ENDMDL
MODEL 8
REMARK VINA RESULT:      -6.2      2.988      5.578
REMARK  Name = 
REMARK  8 active torsions:
REMARK  status: ('A' for Active; 'I' for Inactive)
REMARK    1  A    between atoms: C_1  and  O_2
REMARK    2  A    between atoms: O_2  and  C_3
REMARK    3  A    between atoms: C_3  and  C_4
REMARK    4  A    between atoms: C_4  and  C_5
REMARK    5  A    between atoms: C_5  and  C_6
REMARK    6  A    between atoms: C_6  and  N_7
REMARK    7  A    between atoms: N_7  and  S_8
REMARK    8  A    between atoms: S_8  and  C_11
REMARK                            x       y       z     vdW  Elec       q    Type
REMARK                         _______ _______ _______ _____ _____    ______ ____
ROOT
ATOM      1  N   UNL     1       4.825   3.180  17.816  0.00  0.00    +0.000 NA
ATOM      2  H   UNL     1       5.201   3.289  18.758  0.00  0.00    +0.000 HD
ENDROOT
BRANCH   1   3
ATOM      3  S   UNL     1       3.430   2.231  17.852  0.00  0.00    +0.000 S 
ATOM      4  O   UNL     1       2.582   2.746  16.802  0.00  0.00    +0.000 OA
ATOM      5  O   UNL     1       3.826   0.841  17.891  0.00  0.00    +0.000 OA
BRANCH   3   6
ATOM      6  C   UNL     1       2.707   2.648  19.398  0.00  0.00    +0.000 A 
ATOM      7  C   UNL     1       1.531   3.394  19.461  0.00  0.00    +0.000 A 
ATOM      8  C   UNL     1       1.036   3.763  20.710  0.00  0.00    +0.000 A 
ATOM      9  C   UNL     1       1.747   3.384  21.837  0.00  0.00    +0.000 A 
ATOM     10  N   UNL     1       2.897   2.671  21.797  0.00  0.00    +0.000 NA
ATOM     11  C   UNL     1       3.361   2.323  20.570  0.00  0.00    +0.000 A 
ENDBRANCH   3   6
ENDBRANCH   1   3
BRANCH   1  12
ATOM     12  C   UNL     1       4.835   4.354  16.932  0.00  0.00    +0.000 C 
BRANCH  12  13
ATOM     13  C   UNL     1       4.669   5.674  17.735  0.00  0.00    +0.000 C 
ATOM     14  C   UNL     1       5.585   6.797  17.200  0.00  0.00    +0.000 C 
ATOM     15  C   UNL     1       6.976   6.459  17.724  0.00  0.00    +0.000 C 
ATOM     16  C   UNL     1       6.753   5.712  19.035  0.00  0.00    +0.000 C 
ATOM     17  C   UNL     1       5.245   5.487  19.156  0.00  0.00    +0.000 C 
BRANCH  13  18
ATOM     18  C   UNL     1       3.198   6.153  17.783  0.00  0.00    +0.000 C 
BRANCH  18  19
ATOM     19  C   UNL     1       2.984   7.503  18.466  0.00  0.00    +0.000 C 
BRANCH  19  21
ATOM     20  C   UNL     1       1.967   9.529  17.830  0.00  0.00    +0.000 C 
ATOM     21  O   UNL     1       1.828   8.116  17.898  0.00  0.00    +0.000 OA
ENDBRANCH  19  21
ENDBRANCH  18  19
ENDBRANCH  13  18
ENDBRANCH  12  13
ENDBRANCH   1  12
TORSDOF 7
ENDMDL
MODEL 9
REMARK VINA RESULT:      -6.2      2.858      5.997
REMARK  Name = 
REMARK  8 active torsions:
REMARK  status: ('A' for Active; 'I' for Inactive)
REMARK    1  A    between atoms: C_1  and  O_2
REMARK    2  A    between atoms: O_2  and  C_3
REMARK    3  A    between atoms: C_3  and  C_4
REMARK    4  A    between atoms: C_4  and  C_5
REMARK    5  A    between atoms: C_5  and  C_6
REMARK    6  A    between atoms: C_6  and  N_7
REMARK    7  A    between atoms: N_7  and  S_8
REMARK    8  A    between atoms: S_8  and  C_11
REMARK                            x       y       z     vdW  Elec       q    Type
REMARK                         _______ _______ _______ _____ _____    ______ ____
ROOT
ATOM      1  N   UNL     1       3.563   4.025  17.096  0.00  0.00    +0.000 NA
ATOM      2  H   UNL     1       3.352   3.072  16.801  0.00  0.00    +0.000 HD
ENDROOT
BRANCH   1   3
ATOM      3  S   UNL     1       2.196   4.742  17.776  0.00  0.00    +0.000 S 
ATOM      4  O   UNL     1       2.518   6.144  17.914  0.00  0.00    +0.000 OA
ATOM      5  O   UNL     1       1.035   4.303  17.034  0.00  0.00    +0.000 OA
BRANCH   3   6
ATOM      6  C   UNL     1       2.132   4.032  19.382  0.00  0.00    +0.000 A 
ATOM      7  C   UNL     1       1.576   2.770  19.585  0.00  0.00    +0.000 A 
ATOM      8  C   UNL     1       1.480   2.280  20.886  0.00  0.00    +0.000 A 
ATOM      9  C   UNL     1       1.927   3.081  21.925  0.00  0.00    +0.000 A 
ATOM     10  N   UNL     1       2.457   4.314  21.750  0.00  0.00    +0.000 NA
ATOM     11  C   UNL     1       2.541   4.771  20.475  0.00  0.00    +0.000 A 
ENDBRANCH   3   6
ENDBRANCH   1   3
BRANCH   1  12
ATOM     12  C   UNL     1       4.861   4.272  17.740  0.00  0.00    +0.000 C 
BRANCH  12  13
ATOM     13  C   UNL     1       5.950   4.655  16.700  0.00  0.00    +0.000 C 
ATOM     14  C   UNL     1       7.345   4.796  17.348  0.00  0.00    +0.000 C 
ATOM     15  C   UNL     1       7.318   6.142  18.062  0.00  0.00    +0.000 C 
ATOM     16  C   UNL     1       6.349   7.012  17.268  0.00  0.00    +0.000 C 
ATOM     17  C   UNL     1       5.712   6.103  16.216  0.00  0.00    +0.000 C 
BRANCH  13  18
ATOM     18  C   UNL     1       6.004   3.666  15.512  0.00  0.00    +0.000 C 
BRANCH  18  19
ATOM     19  C   UNL     1       5.761   4.294  14.141  0.00  0.00    +0.000 C 
BRANCH  19  21
ATOM     20  C   UNL     1       5.190   3.380  12.047  0.00  0.00    +0.000 C 
ATOM     21  O   UNL     1       6.098   3.334  13.140  0.00  0.00    +0.000 OA
ENDBRANCH  19  21
ENDBRANCH  18  19
ENDBRANCH  13  18
ENDBRANCH  12  13
ENDBRANCH   1  12
TORSDOF 7
ENDMDL
