MODEL 1
REMARK VINA RESULT:      -8.0      0.000      0.000
REMARK  Name = 
REMARK  8 active torsions:
REMARK  status: ('A' for Active; 'I' for Inactive)
REMARK    1  A    between atoms: C_1  and  C_2
REMARK    2  A    between atoms: C_3  and  C_4
REMARK    3  A    between atoms: C_13  and  N_14
REMARK    4  A    between atoms: C_18  and  C_19
REMARK    5  A    between atoms: C_19  and  N_20
REMARK    6  A    between atoms: N_20  and  C_21
REMARK    7  A    between atoms: C_21  and  C_22
REMARK    8  A    between atoms: C_22  and  O_23
REMARK                            x       y       z     vdW  Elec       q    Type
REMARK                         _______ _______ _______ _____ _____    ______ ____
ROOT
ATOM      1  N   UNL     1       4.260   5.682  19.554  0.00  0.00    +0.000 N 
ATOM      2  C   UNL     1       5.608   5.946  19.020  0.00  0.00    +0.000 C 
ATOM      3  C   UNL     1       5.768   4.925  17.938  0.00  0.00    +0.000 A 
ATOM      4  C   UNL     1       6.516   4.975  16.777  0.00  0.00    +0.000 A 
ATOM      5  C   UNL     1       6.085   4.190  15.691  0.00  0.00    +0.000 A 
ATOM      6  C   UNL     1       4.973   3.322  15.838  0.00  0.00    +0.000 A 
ATOM      7  C   UNL     1       4.328   3.180  17.067  0.00  0.00    +0.000 A 
ATOM      8  C   UNL     1       4.787   3.954  18.112  0.00  0.00    +0.000 A 
ATOM      9  C   UNL     1       4.065   4.274  19.340  0.00  0.00    +0.000 C 
ATOM     10  O   UNL     1       3.328   3.501  19.926  0.00  0.00    +0.000 OA
ENDROOT
BRANCH   1  17
ATOM     11  C   UNL     1       1.367   6.020  20.941  0.00  0.00    +0.000 C 
ATOM     12  C   UNL     1       2.057   6.896  19.919  0.00  0.00    +0.000 A 
ATOM     13  C   UNL     1       1.622   8.242  19.746  0.00  0.00    +0.000 A 
ATOM     14  C   UNL     1       1.969   8.880  18.533  0.00  0.00    +0.000 A 
ATOM     15  C   UNL     1       2.715   8.239  17.550  0.00  0.00    +0.000 A 
ATOM     16  C   UNL     1       3.278   7.001  17.820  0.00  0.00    +0.000 A 
ATOM     17  C   UNL     1       3.066   6.373  19.058  0.00  0.00    +0.000 A 
BRANCH  13  18
ATOM     18  C   UNL     1       0.940   9.050  20.807  0.00  0.00    +0.000 A 
ATOM     19  C   UNL     1      -0.041  10.010  20.488  0.00  0.00    +0.000 A 
ATOM     20  C   UNL     1      -0.765  10.697  21.473  0.00  0.00    +0.000 A 
ATOM     21  C   UNL     1      -0.543  10.421  22.815  0.00  0.00    +0.000 A 
ATOM     22  C   UNL     1       0.413   9.476  23.168  0.00  0.00    +0.000 A 
ATOM     23  C   UNL     1       1.152   8.813  22.178  0.00  0.00    +0.000 A 
ENDBRANCH  13  18
ENDBRANCH   1  17
BRANCH   5  24
ATOM     24  C   UNL     1       6.695   4.397  14.324  0.00  0.00    +0.000 C 
BRANCH  24  25
ATOM     25  N   UNL     1       6.513   3.233  13.456  0.00  0.00    +0.000 NA
ATOM     26  H   UNL     1       5.957   2.550  13.971  0.00  0.00    +0.000 HD
BRANCH  25  27
ATOM     27  C   UNL     1       5.768   3.638  12.249  0.00  0.00    +0.000 C 
BRANCH  27  28
ATOM     28  C   UNL     1       5.210   2.437  11.480  0.00  0.00    +0.000 C 
BRANCH  28  29
ATOM     29  O   UNL     1       6.081   1.320  11.580  0.00  0.00    +0.000 OA
ATOM     30  H   UNL     1       6.052   1.034  12.506  0.00  0.00    +0.000 HD
ENDBRANCH  28  29
ENDBRANCH  27  28
ENDBRANCH  25  27
ENDBRANCH  24  25
ENDBRANCH   5  24
TORSDOF 7
ENDMDL
MODEL 2
REMARK VINA RESULT:      -7.2      8.834     10.050
REMARK  Name = 
REMARK  8 active torsions:
REMARK  status: ('A' for Active; 'I' for Inactive)
REMARK    1  A    between atoms: C_1  and  C_2
REMARK    2  A    between atoms: C_3  and  C_4
REMARK    3  A    between atoms: C_13  and  N_14
REMARK    4  A    between atoms: C_18  and  C_19
REMARK    5  A    between atoms: C_19  and  N_20
REMARK    6  A    between atoms: N_20  and  C_21
REMARK    7  A    between atoms: C_21  and  C_22
REMARK    8  A    between atoms: C_22  and  O_23
REMARK                            x       y       z     vdW  Elec       q    Type
REMARK                         _______ _______ _______ _____ _____    ______ ____
ROOT
ATOM      1  N   UNL     1       9.532  15.427  18.091  0.00  0.00    +0.000 N 
ATOM      2  C   UNL     1       8.557  14.456  17.565  0.00  0.00    +0.000 C 
ATOM      3  C   UNL     1       9.243  13.137  17.733  0.00  0.00    +0.000 A 
ATOM      4  C   UNL     1       8.708  11.879  17.932  0.00  0.00    +0.000 A 
ATOM      5  C   UNL     1       9.503  10.932  18.605  0.00  0.00    +0.000 A 
ATOM      6  C   UNL     1      10.833  11.255  18.976  0.00  0.00    +0.000 A 
ATOM      7  C   UNL     1      11.399  12.482  18.629  0.00  0.00    +0.000 A 
ATOM      8  C   UNL     1      10.595  13.379  17.958  0.00  0.00    +0.000 A 
ATOM      9  C   UNL     1      10.809  14.819  17.837  0.00  0.00    +0.000 C 
ATOM     10  O   UNL     1      11.901  15.344  17.713  0.00  0.00    +0.000 OA
ENDROOT
BRANCH   1  17
ATOM     11  C   UNL     1       7.234  15.110  20.333  0.00  0.00    +0.000 C 
ATOM     12  C   UNL     1       8.730  15.260  20.497  0.00  0.00    +0.000 A 
ATOM     13  C   UNL     1       9.340  14.869  21.725  0.00  0.00    +0.000 A 
ATOM     14  C   UNL     1      10.617  15.405  22.008  0.00  0.00    +0.000 A 
ATOM     15  C   UNL     1      11.268  16.264  21.129  0.00  0.00    +0.000 A 
ATOM     16  C   UNL     1      10.735  16.480  19.867  0.00  0.00    +0.000 A 
ATOM     17  C   UNL     1       9.526  15.875  19.487  0.00  0.00    +0.000 A 
BRANCH  13  18
ATOM     18  C   UNL     1       8.774  13.844  22.658  0.00  0.00    +0.000 A 
ATOM     19  C   UNL     1       8.760  12.473  22.329  0.00  0.00    +0.000 A 
ATOM     20  C   UNL     1       8.333  11.490  23.233  0.00  0.00    +0.000 A 
ATOM     21  C   UNL     1       7.929  11.852  24.510  0.00  0.00    +0.000 A 
ATOM     22  C   UNL     1       7.935  13.194  24.873  0.00  0.00    +0.000 A 
ATOM     23  C   UNL     1       8.337  14.173  23.954  0.00  0.00    +0.000 A 
ENDBRANCH  13  18
ENDBRANCH   1  17
BRANCH   5  24
ATOM     24  C   UNL     1       8.888   9.637  19.083  0.00  0.00    +0.000 C 
BRANCH  24  25
ATOM     25  N   UNL     1       8.279   8.878  17.990  0.00  0.00    +0.000 NA
ATOM     26  H   UNL     1       8.945   8.865  17.216  0.00  0.00    +0.000 HD
BRANCH  25  27
ATOM     27  C   UNL     1       8.041   7.492  18.433  0.00  0.00    +0.000 C 
BRANCH  27  28
ATOM     28  C   UNL     1       7.005   6.774  17.564  0.00  0.00    +0.000 C 
BRANCH  28  29
ATOM     29  O   UNL     1       7.530   6.489  16.275  0.00  0.00    +0.000 OA
ATOM     30  H   UNL     1       7.450   7.308  15.762  0.00  0.00    +0.000 HD
ENDBRANCH  28  29
ENDBRANCH  27  28
ENDBRANCH  25  27
ENDBRANCH  24  25
ENDBRANCH   5  24
TORSDOF 7
ENDMDL
MODEL 3
REMARK VINA RESULT:      -7.1      8.881     11.254
REMARK  Name = 
REMARK  8 active torsions:
REMARK  status: ('A' for Active; 'I' for Inactive)
REMARK    1  A    between atoms: C_1  and  C_2
REMARK    2  A    between atoms: C_3  and  C_4
REMARK    3  A    between atoms: C_13  and  N_14
REMARK    4  A    between atoms: C_18  and  C_19
REMARK    5  A    between atoms: C_19  and  N_20
REMARK    6  A    between atoms: N_20  and  C_21
REMARK    7  A    between atoms: C_21  and  C_22
REMARK    8  A    between atoms: C_22  and  O_23
REMARK                            x       y       z     vdW  Elec       q    Type
REMARK                         _______ _______ _______ _____ _____    ______ ____
ROOT
ATOM      1  N   UNL     1      11.117  12.912  18.483  0.00  0.00    +0.000 N 
ATOM      2  C   UNL     1      10.692  11.621  19.053  0.00  0.00    +0.000 C 
ATOM      3  C   UNL     1      10.222  11.976  20.429  0.00  0.00    +0.000 A 
ATOM      4  C   UNL     1       9.268  11.370  21.222  0.00  0.00    +0.000 A 
ATOM      5  C   UNL     1       8.615  12.169  22.180  0.00  0.00    +0.000 A 
ATOM      6  C   UNL     1       9.003  13.521  22.362  0.00  0.00    +0.000 A 
ATOM      7  C   UNL     1      10.072  14.066  21.650  0.00  0.00    +0.000 A 
ATOM      8  C   UNL     1      10.697  13.249  20.731  0.00  0.00    +0.000 A 
ATOM      9  C   UNL     1      11.546  13.677  19.622  0.00  0.00    +0.000 C 
ATOM     10  O   UNL     1      12.323  14.613  19.672  0.00  0.00    +0.000 OA
ENDROOT
BRANCH   1  17
ATOM     11  C   UNL     1       8.077  12.363  17.554  0.00  0.00    +0.000 C 
ATOM     12  C   UNL     1       8.797  13.674  17.778  0.00  0.00    +0.000 A 
ATOM     13  C   UNL     1       8.036  14.863  17.977  0.00  0.00    +0.000 A 
ATOM     14  C   UNL     1       8.695  16.093  17.753  0.00  0.00    +0.000 A 
ATOM     15  C   UNL     1      10.031  16.156  17.370  0.00  0.00    +0.000 A 
ATOM     16  C   UNL     1      10.793  14.997  17.363  0.00  0.00    +0.000 A 
ATOM     17  C   UNL     1      10.217  13.760  17.695  0.00  0.00    +0.000 A 
BRANCH  13  18
ATOM     18  C   UNL     1       6.642  14.889  18.522  0.00  0.00    +0.000 A 
ATOM     19  C   UNL     1       6.391  15.010  19.903  0.00  0.00    +0.000 A 
ATOM     20  C   UNL     1       5.094  15.145  20.420  0.00  0.00    +0.000 A 
ATOM     21  C   UNL     1       4.006  15.188  19.560  0.00  0.00    +0.000 A 
ATOM     22  C   UNL     1       4.215  15.077  18.190  0.00  0.00    +0.000 A 
ATOM     23  C   UNL     1       5.512  14.915  17.683  0.00  0.00    +0.000 A 
ENDBRANCH  13  18
ENDBRANCH   1  17
BRANCH   5  24
ATOM     24  C   UNL     1       7.391  11.641  22.892  0.00  0.00    +0.000 C 
BRANCH  24  25
ATOM     25  N   UNL     1       7.643  11.390  24.311  0.00  0.00    +0.000 NA
ATOM     26  H   UNL     1       8.230  12.149  24.658  0.00  0.00    +0.000 HD
BRANCH  25  27
ATOM     27  C   UNL     1       6.363  11.408  25.043  0.00  0.00    +0.000 C 
BRANCH  27  28
ATOM     28  C   UNL     1       6.277  12.572  26.034  0.00  0.00    +0.000 C 
BRANCH  28  29
ATOM     29  O   UNL     1       5.028  13.241  25.926  0.00  0.00    +0.000 OA
ATOM     30  H   UNL     1       5.226  14.137  25.613  0.00  0.00    +0.000 HD
ENDBRANCH  28  29
ENDBRANCH  27  28
ENDBRANCH  25  27
ENDBRANCH  24  25
ENDBRANCH   5  24
TORSDOF 7
ENDMDL
MODEL 4
REMARK VINA RESULT:      -7.0      8.089     11.405
REMARK  Name = 
REMARK  8 active torsions:
REMARK  status: ('A' for Active; 'I' for Inactive)
REMARK    1  A    between atoms: C_1  and  C_2
REMARK    2  A    between atoms: C_3  and  C_4
REMARK    3  A    between atoms: C_13  and  N_14
REMARK    4  A    between atoms: C_18  and  C_19
REMARK    5  A    between atoms: C_19  and  N_20
REMARK    6  A    between atoms: N_20  and  C_21
REMARK    7  A    between atoms: C_21  and  C_22
REMARK    8  A    between atoms: C_22  and  O_23
REMARK                            x       y       z     vdW  Elec       q    Type
REMARK                         _______ _______ _______ _____ _____    ______ ____
ROOT
ATOM      1  N   UNL     1      -4.852  14.129  23.824  0.00  0.00    +0.000 N 
ATOM      2  C   UNL     1      -3.698  15.045  23.870  0.00  0.00    +0.000 C 
ATOM      3  C   UNL     1      -2.527  14.155  23.594  0.00  0.00    +0.000 A 
ATOM      4  C   UNL     1      -1.314  14.447  23.002  0.00  0.00    +0.000 A 
ATOM      5  C   UNL     1      -0.635  13.396  22.357  0.00  0.00    +0.000 A 
ATOM      6  C   UNL     1      -1.156  12.078  22.404  0.00  0.00    +0.000 A 
ATOM      7  C   UNL     1      -2.307  11.785  23.137  0.00  0.00    +0.000 A 
ATOM      8  C   UNL     1      -2.937  12.836  23.767  0.00  0.00    +0.000 A 
ATOM      9  C   UNL     1      -4.316  12.864  24.247  0.00  0.00    +0.000 C 
ATOM     10  O   UNL     1      -4.890  11.913  24.745  0.00  0.00    +0.000 OA
ENDROOT
BRANCH   1  17
ATOM     11  C   UNL     1      -4.169  14.956  20.782  0.00  0.00    +0.000 C 
ATOM     12  C   UNL     1      -5.031  13.830  21.307  0.00  0.00    +0.000 A 
ATOM     13  C   UNL     1      -5.335  12.728  20.454  0.00  0.00    +0.000 A 
ATOM     14  C   UNL     1      -6.454  11.937  20.800  0.00  0.00    +0.000 A 
ATOM     15  C   UNL     1      -7.224  12.200  21.928  0.00  0.00    +0.000 A 
ATOM     16  C   UNL     1      -6.799  13.160  22.834  0.00  0.00    +0.000 A 
ATOM     17  C   UNL     1      -5.625  13.895  22.601  0.00  0.00    +0.000 A 
BRANCH  13  18
ATOM     18  C   UNL     1      -4.480  12.291  19.305  0.00  0.00    +0.000 A 
ATOM     19  C   UNL     1      -3.092  12.096  19.450  0.00  0.00    +0.000 A 
ATOM     20  C   UNL     1      -2.295  11.585  18.416  0.00  0.00    +0.000 A 
ATOM     21  C   UNL     1      -2.875  11.227  17.207  0.00  0.00    +0.000 A 
ATOM     22  C   UNL     1      -4.243  11.399  17.029  0.00  0.00    +0.000 A 
ATOM     23  C   UNL     1      -5.027  11.937  18.058  0.00  0.00    +0.000 A 
ENDBRANCH  13  18
ENDBRANCH   1  17
BRANCH   5  24
ATOM     24  C   UNL     1       0.553  13.698  21.474  0.00  0.00    +0.000 C 
BRANCH  24  25
ATOM     25  N   UNL     1       0.225  13.590  20.051  0.00  0.00    +0.000 NA
ATOM     26  H   UNL     1      -0.411  14.354  19.824  0.00  0.00    +0.000 HD
BRANCH  25  27
ATOM     27  C   UNL     1       1.456  13.745  19.255  0.00  0.00    +0.000 C 
BRANCH  27  28
ATOM     28  C   UNL     1       1.956  12.413  18.691  0.00  0.00    +0.000 C 
BRANCH  28  29
ATOM     29  O   UNL     1       2.497  12.581  17.389  0.00  0.00    +0.000 OA
ATOM     30  H   UNL     1       2.542  11.696  16.997  0.00  0.00    +0.000 HD
ENDBRANCH  28  29
ENDBRANCH  27  28
ENDBRANCH  25  27
ENDBRANCH  24  25
ENDBRANCH   5  24
TORSDOF 7
ENDMDL
MODEL 5
REMARK VINA RESULT:      -7.0      5.143      9.890
REMARK  Name = 
REMARK  8 active torsions:
REMARK  status: ('A' for Active; 'I' for Inactive)
REMARK    1  A    between atoms: C_1  and  C_2
REMARK    2  A    between atoms: C_3  and  C_4
REMARK    3  A    between atoms: C_13  and  N_14
REMARK    4  A    between atoms: C_18  and  C_19
REMARK    5  A    between atoms: C_19  and  N_20
REMARK    6  A    between atoms: N_20  and  C_21
REMARK    7  A    between atoms: C_21  and  C_22
REMARK    8  A    between atoms: C_22  and  O_23
REMARK                            x       y       z     vdW  Elec       q    Type
REMARK                         _______ _______ _______ _____ _____    ______ ____
ROOT
ATOM      1  N   UNL     1      -0.359   9.784  19.996  0.00  0.00    +0.000 N 
ATOM      2  C   UNL     1      -1.220  10.600  19.122  0.00  0.00    +0.000 C 
ATOM      3  C   UNL     1      -1.048  11.990  19.649  0.00  0.00    +0.000 A 
ATOM      4  C   UNL     1      -1.138  13.202  18.995  0.00  0.00    +0.000 A 
ATOM      5  C   UNL     1      -0.410  14.285  19.525  0.00  0.00    +0.000 A 
ATOM      6  C   UNL     1       0.312  14.130  20.736  0.00  0.00    +0.000 A 
ATOM      7  C   UNL     1       0.264  12.936  21.455  0.00  0.00    +0.000 A 
ATOM      8  C   UNL     1      -0.471  11.903  20.913  0.00  0.00    +0.000 A 
ATOM      9  C   UNL     1      -0.363  10.486  21.251  0.00  0.00    +0.000 C 
ATOM     10  O   UNL     1      -0.150  10.061  22.372  0.00  0.00    +0.000 OA
ENDROOT
BRANCH   1  17
ATOM     11  C   UNL     1       1.568   7.486  21.185  0.00  0.00    +0.000 C 
ATOM     12  C   UNL     1       1.612   8.186  19.845  0.00  0.00    +0.000 A 
ATOM     13  C   UNL     1       2.326   7.585  18.767  0.00  0.00    +0.000 A 
ATOM     14  C   UNL     1       2.709   8.429  17.700  0.00  0.00    +0.000 A 
ATOM     15  C   UNL     1       2.395   9.784  17.682  0.00  0.00    +0.000 A 
ATOM     16  C   UNL     1       1.546  10.300  18.649  0.00  0.00    +0.000 A 
ATOM     17  C   UNL     1       1.037   9.478  19.667  0.00  0.00    +0.000 A 
BRANCH  13  18
ATOM     18  C   UNL     1       2.580   6.115  18.641  0.00  0.00    +0.000 A 
ATOM     19  C   UNL     1       1.649   5.254  18.026  0.00  0.00    +0.000 A 
ATOM     20  C   UNL     1       1.916   3.896  17.803  0.00  0.00    +0.000 A 
ATOM     21  C   UNL     1       3.144   3.363  18.169  0.00  0.00    +0.000 A 
ATOM     22  C   UNL     1       4.091   4.183  18.773  0.00  0.00    +0.000 A 
ATOM     23  C   UNL     1       3.805   5.533  19.018  0.00  0.00    +0.000 A 
ENDBRANCH  13  18
ENDBRANCH   1  17
BRANCH   5  24
ATOM     24  C   UNL     1      -0.256  15.554  18.720  0.00  0.00    +0.000 C 
BRANCH  24  25
ATOM     25  N   UNL     1      -1.319  16.519  19.002  0.00  0.00    +0.000 NA
ATOM     26  H   UNL     1      -1.480  16.513  20.009  0.00  0.00    +0.000 HD
BRANCH  25  27
ATOM     27  C   UNL     1      -0.872  17.866  18.602  0.00  0.00    +0.000 C 
BRANCH  27  28
ATOM     28  C   UNL     1       0.221  17.822  17.531  0.00  0.00    +0.000 C 
BRANCH  28  29
ATOM     29  O   UNL     1      -0.217  18.439  16.330  0.00  0.00    +0.000 OA
ATOM     30  H   UNL     1       0.010  17.829  15.612  0.00  0.00    +0.000 HD
ENDBRANCH  28  29
ENDBRANCH  27  28
ENDBRANCH  25  27
ENDBRANCH  24  25
ENDBRANCH   5  24
TORSDOF 7
ENDMDL
MODEL 6
REMARK VINA RESULT:      -6.9      0.970      1.396
REMARK  Name = 
REMARK  8 active torsions:
REMARK  status: ('A' for Active; 'I' for Inactive)
REMARK    1  A    between atoms: C_1  and  C_2
REMARK    2  A    between atoms: C_3  and  C_4
REMARK    3  A    between atoms: C_13  and  N_14
REMARK    4  A    between atoms: C_18  and  C_19
REMARK    5  A    between atoms: C_19  and  N_20
REMARK    6  A    between atoms: N_20  and  C_21
REMARK    7  A    between atoms: C_21  and  C_22
REMARK    8  A    between atoms: C_22  and  O_23
REMARK                            x       y       z     vdW  Elec       q    Type
REMARK                         _______ _______ _______ _____ _____    ______ ____
ROOT
ATOM      1  N   UNL     1       4.164   5.713  19.648  0.00  0.00    +0.000 N 
ATOM      2  C   UNL     1       5.519   5.916  19.106  0.00  0.00    +0.000 C 
ATOM      3  C   UNL     1       5.658   4.834  18.082  0.00  0.00    +0.000 A 
ATOM      4  C   UNL     1       6.409   4.803  16.923  0.00  0.00    +0.000 A 
ATOM      5  C   UNL     1       5.962   3.970  15.879  0.00  0.00    +0.000 A 
ATOM      6  C   UNL     1       4.830   3.137  16.070  0.00  0.00    +0.000 A 
ATOM      7  C   UNL     1       4.179   3.078  17.302  0.00  0.00    +0.000 A 
ATOM      8  C   UNL     1       4.653   3.897  18.305  0.00  0.00    +0.000 A 
ATOM      9  C   UNL     1       3.936   4.301  19.511  0.00  0.00    +0.000 C 
ATOM     10  O   UNL     1       3.179   3.579  20.135  0.00  0.00    +0.000 OA
ENDROOT
BRANCH   1  17
ATOM     11  C   UNL     1       1.194   5.962  20.883  0.00  0.00    +0.000 C 
ATOM     12  C   UNL     1       1.924   6.882  19.931  0.00  0.00    +0.000 A 
ATOM     13  C   UNL     1       1.477   8.227  19.780  0.00  0.00    +0.000 A 
ATOM     14  C   UNL     1       1.880   8.912  18.611  0.00  0.00    +0.000 A 
ATOM     15  C   UNL     1       2.689   8.316  17.649  0.00  0.00    +0.000 A 
ATOM     16  C   UNL     1       3.257   7.078  17.908  0.00  0.00    +0.000 A 
ATOM     17  C   UNL     1       2.987   6.404  19.110  0.00  0.00    +0.000 A 
BRANCH  13  18
ATOM     18  C   UNL     1       0.725   8.988  20.829  0.00  0.00    +0.000 A 
ATOM     19  C   UNL     1       0.965   8.787  22.202  0.00  0.00    +0.000 A 
ATOM     20  C   UNL     1       0.349   9.565  23.193  0.00  0.00    +0.000 A 
ATOM     21  C   UNL     1      -0.513  10.590  22.831  0.00  0.00    +0.000 A 
ATOM     22  C   UNL     1      -0.771  10.822  21.485  0.00  0.00    +0.000 A 
ATOM     23  C   UNL     1      -0.172  10.022  20.502  0.00  0.00    +0.000 A 
ENDBRANCH  13  18
ENDBRANCH   1  17
BRANCH   5  24
ATOM     24  C   UNL     1       6.581   4.087  14.506  0.00  0.00    +0.000 C 
BRANCH  24  25
ATOM     25  N   UNL     1       7.401   5.292  14.371  0.00  0.00    +0.000 NA
ATOM     26  H   UNL     1       8.105   5.269  15.110  0.00  0.00    +0.000 HD
BRANCH  25  27
ATOM     27  C   UNL     1       8.084   5.272  13.065  0.00  0.00    +0.000 C 
BRANCH  27  28
ATOM     28  C   UNL     1       7.177   4.759  11.943  0.00  0.00    +0.000 C 
BRANCH  28  29
ATOM     29  O   UNL     1       7.535   3.438  11.562  0.00  0.00    +0.000 OA
ATOM     30  H   UNL     1       8.336   3.518  11.022  0.00  0.00    +0.000 HD
ENDBRANCH  28  29
ENDBRANCH  27  28
ENDBRANCH  25  27
ENDBRANCH  24  25
ENDBRANCH   5  24
TORSDOF 7
ENDMDL
MODEL 7
REMARK VINA RESULT:      -6.9      9.726     11.754
REMARK  Name = 
REMARK  8 active torsions:
REMARK  status: ('A' for Active; 'I' for Inactive)
REMARK    1  A    between atoms: C_1  and  C_2
REMARK    2  A    between atoms: C_3  and  C_4
REMARK    3  A    between atoms: C_13  and  N_14
REMARK    4  A    between atoms: C_18  and  C_19
REMARK    5  A    between atoms: C_19  and  N_20
REMARK    6  A    between atoms: N_20  and  C_21
REMARK    7  A    between atoms: C_21  and  C_22
REMARK    8  A    between atoms: C_22  and  O_23
REMARK                            x       y       z     vdW  Elec       q    Type
REMARK                         _______ _______ _______ _____ _____    ______ ____
ROOT
ATOM      1  N   UNL     1      11.261  15.156  18.944  0.00  0.00    +0.000 N 
ATOM      2  C   UNL     1      10.665  16.487  19.161  0.00  0.00    +0.000 C 
ATOM      3  C   UNL     1       9.242  16.313  18.732  0.00  0.00    +0.000 A 
ATOM      4  C   UNL     1       8.102  16.965  19.160  0.00  0.00    +0.000 A 
ATOM      5  C   UNL     1       6.878  16.278  19.049  0.00  0.00    +0.000 A 
ATOM      6  C   UNL     1       6.833  15.001  18.435  0.00  0.00    +0.000 A 
ATOM      7  C   UNL     1       7.977  14.430  17.876  0.00  0.00    +0.000 A 
ATOM      8  C   UNL     1       9.155  15.138  17.991  0.00  0.00    +0.000 A 
ATOM      9  C   UNL     1      10.508  14.606  17.850  0.00  0.00    +0.000 C 
ATOM     10  O   UNL     1      10.828  13.745  17.051  0.00  0.00    +0.000 OA
ENDROOT
BRANCH   1  17
ATOM     11  C   UNL     1      10.148  15.270  21.970  0.00  0.00    +0.000 C 
ATOM     12  C   UNL     1      10.388  14.076  21.073  0.00  0.00    +0.000 A 
ATOM     13  C   UNL     1       9.745  12.840  21.371  0.00  0.00    +0.000 A 
ATOM     14  C   UNL     1      10.303  11.671  20.804  0.00  0.00    +0.000 A 
ATOM     15  C   UNL     1      11.421  11.714  19.977  0.00  0.00    +0.000 A 
ATOM     16  C   UNL     1      11.913  12.941  19.559  0.00  0.00    +0.000 A 
ATOM     17  C   UNL     1      11.320  14.136  19.996  0.00  0.00    +0.000 A 
BRANCH  13  18
ATOM     18  C   UNL     1       8.461  12.720  22.132  0.00  0.00    +0.000 A 
ATOM     19  C   UNL     1       8.316  11.810  23.198  0.00  0.00    +0.000 A 
ATOM     20  C   UNL     1       7.160  11.760  23.989  0.00  0.00    +0.000 A 
ATOM     21  C   UNL     1       6.117  12.645  23.749  0.00  0.00    +0.000 A 
ATOM     22  C   UNL     1       6.226  13.560  22.709  0.00  0.00    +0.000 A 
ATOM     23  C   UNL     1       7.374  13.585  21.905  0.00  0.00    +0.000 A 
ENDBRANCH  13  18
ENDBRANCH   1  17
BRANCH   5  24
ATOM     24  C   UNL     1       5.645  16.822  19.733  0.00  0.00    +0.000 C 
BRANCH  24  25
ATOM     25  N   UNL     1       4.600  17.190  18.776  0.00  0.00    +0.000 NA
ATOM     26  H   UNL     1       4.909  16.886  17.852  0.00  0.00    +0.000 HD
BRANCH  25  27
ATOM     27  C   UNL     1       3.356  16.478  19.118  0.00  0.00    +0.000 C 
BRANCH  27  28
ATOM     28  C   UNL     1       2.140  17.045  18.382  0.00  0.00    +0.000 C 
BRANCH  28  29
ATOM     29  O   UNL     1       2.522  17.637  17.148  0.00  0.00    +0.000 OA
ATOM     30  H   UNL     1       2.378  16.963  16.467  0.00  0.00    +0.000 HD
ENDBRANCH  28  29
ENDBRANCH  27  28
ENDBRANCH  25  27
ENDBRANCH  24  25
ENDBRANCH   5  24
TORSDOF 7
ENDMDL
MODEL 8
REMARK VINA RESULT:      -6.8      9.209     11.521
REMARK  Name = 
REMARK  8 active torsions:
REMARK  status: ('A' for Active; 'I' for Inactive)
REMARK    1  A    between atoms: C_1  and  C_2
REMARK    2  A    between atoms: C_3  and  C_4
REMARK    3  A    between atoms: C_13  and  N_14
REMARK    4  A    between atoms: C_18  and  C_19
REMARK    5  A    between atoms: C_19  and  N_20
REMARK    6  A    between atoms: N_20  and  C_21
REMARK    7  A    between atoms: C_21  and  C_22
REMARK    8  A    between atoms: C_22  and  O_23
REMARK                            x       y       z     vdW  Elec       q    Type
REMARK                         _______ _______ _______ _____ _____    ______ ____
ROOT
ATOM      1  N   UNL     1      11.343  14.512  18.686  0.00  0.00    +0.000 N 
ATOM      2  C   UNL     1      11.333  13.087  19.062  0.00  0.00    +0.000 C 
ATOM      3  C   UNL     1      10.744  13.087  20.438  0.00  0.00    +0.000 A 
ATOM      4  C   UNL     1      10.011  12.113  21.087  0.00  0.00    +0.000 A 
ATOM      5  C   UNL     1       9.118  12.532  22.093  0.00  0.00    +0.000 A 
ATOM      6  C   UNL     1       9.059  13.899  22.466  0.00  0.00    +0.000 A 
ATOM      7  C   UNL     1       9.919  14.839  21.897  0.00  0.00    +0.000 A 
ATOM      8  C   UNL     1      10.789  14.390  20.927  0.00  0.00    +0.000 A 
ATOM      9  C   UNL     1      11.485  15.207  19.937  0.00  0.00    +0.000 C 
ATOM     10  O   UNL     1      11.928  16.321  20.153  0.00  0.00    +0.000 OA
ENDROOT
BRANCH   1  17
ATOM     11  C   UNL     1       8.557  13.235  17.680  0.00  0.00    +0.000 C 
ATOM     12  C   UNL     1       8.898  14.670  18.012  0.00  0.00    +0.000 A 
ATOM     13  C   UNL     1       7.846  15.591  18.290  0.00  0.00    +0.000 A 
ATOM     14  C   UNL     1       8.145  16.967  18.168  0.00  0.00    +0.000 A 
ATOM     15  C   UNL     1       9.411  17.417  17.808  0.00  0.00    +0.000 A 
ATOM     16  C   UNL     1      10.458  16.511  17.722  0.00  0.00    +0.000 A 
ATOM     17  C   UNL     1      10.241  15.144  17.953  0.00  0.00    +0.000 A 
BRANCH  13  18
ATOM     18  C   UNL     1       6.501  15.198  18.819  0.00  0.00    +0.000 A 
ATOM     19  C   UNL     1       6.244  15.123  20.203  0.00  0.00    +0.000 A 
ATOM     20  C   UNL     1       4.965  14.862  20.714  0.00  0.00    +0.000 A 
ATOM     21  C   UNL     1       3.893  14.693  19.848  0.00  0.00    +0.000 A 
ATOM     22  C   UNL     1       4.107  14.766  18.477  0.00  0.00    +0.000 A 
ATOM     23  C   UNL     1       5.394  14.999  17.973  0.00  0.00    +0.000 A 
ENDBRANCH  13  18
ENDBRANCH   1  17
BRANCH   5  24
ATOM     24  C   UNL     1       8.106  11.560  22.652  0.00  0.00    +0.000 C 
BRANCH  24  25
ATOM     25  N   UNL     1       8.351  11.259  24.063  0.00  0.00    +0.000 NA
ATOM     26  H   UNL     1       9.128  11.844  24.372  0.00  0.00    +0.000 HD
BRANCH  25  27
ATOM     27  C   UNL     1       7.154  11.606  24.850  0.00  0.00    +0.000 C 
BRANCH  27  28
ATOM     28  C   UNL     1       5.948  11.925  23.963  0.00  0.00    +0.000 C 
BRANCH  28  29
ATOM     29  O   UNL     1       5.270  13.086  24.423  0.00  0.00    +0.000 OA
ATOM     30  H   UNL     1       4.877  12.850  25.277  0.00  0.00    +0.000 HD
ENDBRANCH  28  29
ENDBRANCH  27  28
ENDBRANCH  25  27
ENDBRANCH  24  25
ENDBRANCH   5  24
TORSDOF 7
ENDMDL
MODEL 9
REMARK VINA RESULT:      -6.8      4.884      9.249
REMARK  Name = 
REMARK  8 active torsions:
REMARK  status: ('A' for Active; 'I' for Inactive)
REMARK    1  A    between atoms: C_1  and  C_2
REMARK    2  A    between atoms: C_3  and  C_4
REMARK    3  A    between atoms: C_13  and  N_14
REMARK    4  A    between atoms: C_18  and  C_19
REMARK    5  A    between atoms: C_19  and  N_20
REMARK    6  A    between atoms: N_20  and  C_21
REMARK    7  A    between atoms: C_21  and  C_22
REMARK    8  A    between atoms: C_22  and  O_23
REMARK                            x       y       z     vdW  Elec       q    Type
REMARK                         _______ _______ _______ _____ _____    ______ ____
ROOT
ATOM      1  N   UNL     1      -0.390   9.876  19.699  0.00  0.00    +0.000 N 
ATOM      2  C   UNL     1      -1.107  10.787  18.790  0.00  0.00    +0.000 C 
ATOM      3  C   UNL     1      -0.917  12.134  19.413  0.00  0.00    +0.000 A 
ATOM      4  C   UNL     1      -0.870  13.383  18.825  0.00  0.00    +0.000 A 
ATOM      5  C   UNL     1      -0.144  14.390  19.492  0.00  0.00    +0.000 A 
ATOM      6  C   UNL     1       0.434  14.128  20.760  0.00  0.00    +0.000 A 
ATOM      7  C   UNL     1       0.244  12.902  21.399  0.00  0.00    +0.000 A 
ATOM      8  C   UNL     1      -0.484  11.946  20.723  0.00  0.00    +0.000 A 
ATOM      9  C   UNL     1      -0.490  10.509  20.986  0.00  0.00    +0.000 C 
ATOM     10  O   UNL     1      -0.423  10.013  22.096  0.00  0.00    +0.000 OA
ENDROOT
BRANCH   1  17
ATOM     11  C   UNL     1       1.353   7.596  21.172  0.00  0.00    +0.000 C 
ATOM     12  C   UNL     1       1.524   8.207  19.800  0.00  0.00    +0.000 A 
ATOM     13  C   UNL     1       2.295   7.516  18.819  0.00  0.00    +0.000 A 
ATOM     14  C   UNL     1       2.790   8.277  17.736  0.00  0.00    +0.000 A 
ATOM     15  C   UNL     1       2.530   9.638  17.611  0.00  0.00    +0.000 A 
ATOM     16  C   UNL     1       1.629  10.242  18.476  0.00  0.00    +0.000 A 
ATOM     17  C   UNL     1       1.014   9.503  19.499  0.00  0.00    +0.000 A 
BRANCH  13  18
ATOM     18  C   UNL     1       2.502   6.033  18.802  0.00  0.00    +0.000 A 
ATOM     19  C   UNL     1       1.705   5.185  18.008  0.00  0.00    +0.000 A 
ATOM     20  C   UNL     1       1.954   3.809  17.897  0.00  0.00    +0.000 A 
ATOM     21  C   UNL     1       3.032   3.245  18.564  0.00  0.00    +0.000 A 
ATOM     22  C   UNL     1       3.844   4.051  19.353  0.00  0.00    +0.000 A 
ATOM     23  C   UNL     1       3.572   5.420  19.481  0.00  0.00    +0.000 A 
ENDBRANCH  13  18
ENDBRANCH   1  17
BRANCH   5  24
ATOM     24  C   UNL     1       0.164  15.688  18.783  0.00  0.00    +0.000 C 
BRANCH  24  25
ATOM     25  N   UNL     1       1.483  16.213  19.141  0.00  0.00    +0.000 NA
ATOM     26  H   UNL     1       2.024  15.441  19.533  0.00  0.00    +0.000 HD
BRANCH  25  27
ATOM     27  C   UNL     1       2.160  16.698  17.925  0.00  0.00    +0.000 C 
BRANCH  27  28
ATOM     28  C   UNL     1       3.426  15.898  17.606  0.00  0.00    +0.000 C 
BRANCH  28  29
ATOM     29  O   UNL     1       3.153  14.505  17.568  0.00  0.00    +0.000 OA
ATOM     30  H   UNL     1       3.966  14.077  17.260  0.00  0.00    +0.000 HD
ENDBRANCH  28  29
ENDBRANCH  27  28
ENDBRANCH  25  27
ENDBRANCH  24  25
ENDBRANCH   5  24
TORSDOF 7
ENDMDL
