MODEL 1
REMARK VINA RESULT:      -5.6      0.000      0.000
REMARK  Name = 
REMARK  5 active torsions:
REMARK  status: ('A' for Active; 'I' for Inactive)
REMARK    1  A    between atoms: C_1  and  O_2
REMARK    2  A    between atoms: O_2  and  C_3
REMARK    3  A    between atoms: C_11  and  N_12
REMARK    4  A    between atoms: C_17  and  N_18
REMARK    5  A    between atoms: N_18  and  C_19
REMARK                            x       y       z     vdW  Elec       q    Type
REMARK                         _______ _______ _______ _____ _____    ______ ____
ROOT
ATOM      1  C   UNL     1       8.786   9.782  18.547  0.00  0.00    +0.000 A 
ATOM      2  C   UNL     1       8.211  10.596  17.553  0.00  0.00    +0.000 A 
ATOM      3  C   UNL     1       8.420  11.969  17.553  0.00  0.00    +0.000 A 
ATOM      4  C   UNL     1       9.200  12.567  18.557  0.00  0.00    +0.000 A 
ATOM      5  C   UNL     1       9.795  11.760  19.559  0.00  0.00    +0.000 A 
ATOM      6  C   UNL     1       9.580  10.372  19.539  0.00  0.00    +0.000 A 
ATOM      7  C   UNL     1      10.619  12.358  20.680  0.00  0.00    +0.000 C 
ATOM      8  C   UNL     1      10.830  13.876  20.555  0.00  0.00    +0.000 C 
ATOM      9  C   UNL     1       9.561  14.589  20.010  0.00  0.00    +0.000 C 
ATOM     10  C   UNL     1       9.400  14.070  18.534  0.00  0.00    +0.000 C 
ENDROOT
BRANCH   9  11
ATOM     11  N   UNL     1       8.338  14.298  20.844  0.00  0.00    +0.000 NA
ATOM     12  C   UNL     1       7.101  14.945  20.349  0.00  0.00    +0.000 C 
ATOM     13  C   UNL     1       7.130  16.347  20.909  0.00  0.00    +0.000 C 
ATOM     14  C   UNL     1       7.517  16.067  22.335  0.00  0.00    +0.000 C 
ATOM     15  C   UNL     1       8.429  14.833  22.229  0.00  0.00    +0.000 C 
ENDBRANCH   9  11
BRANCH  10  16
ATOM     16  N   UNL     1      10.522  14.476  17.658  0.00  0.00    +0.000 N 
ATOM     17  C   UNL     1      11.415  13.524  16.988  0.00  0.00    +0.000 C 
ATOM     18  C   UNL     1      10.715  15.808  17.428  0.00  0.00    +0.000 C 
ATOM     19  O   UNL     1      11.618  16.202  16.700  0.00  0.00    +0.000 OA
ENDBRANCH  10  16
BRANCH   1  21
ATOM     20  C   UNL     1       7.742   7.742  17.741  0.00  0.00    +0.000 C 
ATOM     21  O   UNL     1       8.583   8.439  18.585  0.00  0.00    +0.000 OA
ENDBRANCH   1  21
TORSDOF 3
ENDMDL
MODEL 2
REMARK VINA RESULT:      -5.4      8.620     10.139
REMARK  Name = 
REMARK  5 active torsions:
REMARK  status: ('A' for Active; 'I' for Inactive)
REMARK    1  A    between atoms: C_1  and  O_2
REMARK    2  A    between atoms: O_2  and  C_3
REMARK    3  A    between atoms: C_11  and  N_12
REMARK    4  A    between atoms: C_17  and  N_18
REMARK    5  A    between atoms: N_18  and  C_19
REMARK                            x       y       z     vdW  Elec       q    Type
REMARK                         _______ _______ _______ _____ _____    ______ ____
ROOT
ATOM      1  C   UNL     1       2.030   7.897  19.456  0.00  0.00    +0.000 A 
ATOM      2  C   UNL     1       2.331   8.522  18.231  0.00  0.00    +0.000 A 
ATOM      3  C   UNL     1       1.704   9.706  17.868  0.00  0.00    +0.000 A 
ATOM      4  C   UNL     1       0.748  10.292  18.714  0.00  0.00    +0.000 A 
ATOM      5  C   UNL     1       0.441   9.680  19.955  0.00  0.00    +0.000 A 
ATOM      6  C   UNL     1       1.090   8.487  20.312  0.00  0.00    +0.000 A 
ATOM      7  C   UNL     1      -0.604  10.254  20.890  0.00  0.00    +0.000 C 
ATOM      8  C   UNL     1      -1.196  11.591  20.415  0.00  0.00    +0.000 C 
ATOM      9  C   UNL     1      -1.383  11.620  18.871  0.00  0.00    +0.000 C 
ATOM     10  C   UNL     1       0.075  11.580  18.281  0.00  0.00    +0.000 C 
ENDROOT
BRANCH   9  11
ATOM     11  N   UNL     1      -2.223  10.470  18.374  0.00  0.00    +0.000 NA
ATOM     12  C   UNL     1      -1.921  10.059  16.984  0.00  0.00    +0.000 C 
ATOM     13  C   UNL     1      -2.714  10.997  16.106  0.00  0.00    +0.000 C 
ATOM     14  C   UNL     1      -4.045  10.971  16.808  0.00  0.00    +0.000 C 
ATOM     15  C   UNL     1      -3.672  10.793  18.289  0.00  0.00    +0.000 C 
ENDBRANCH   9  11
BRANCH  10  16
ATOM     16  N   UNL     1       0.869  12.778  18.634  0.00  0.00    +0.000 N 
ATOM     17  C   UNL     1       2.274  12.725  19.055  0.00  0.00    +0.000 C 
ATOM     18  C   UNL     1       0.277  14.003  18.525  0.00  0.00    +0.000 C 
ATOM     19  O   UNL     1       0.891  15.030  18.789  0.00  0.00    +0.000 OA
ENDBRANCH  10  16
BRANCH   1  21
ATOM     20  C   UNL     1       1.949   5.671  20.424  0.00  0.00    +0.000 C 
ATOM     21  O   UNL     1       2.611   6.727  19.831  0.00  0.00    +0.000 OA
ENDBRANCH   1  21
TORSDOF 3
ENDMDL
MODEL 3
REMARK VINA RESULT:      -5.2      8.656     10.478
REMARK  Name = 
REMARK  5 active torsions:
REMARK  status: ('A' for Active; 'I' for Inactive)
REMARK    1  A    between atoms: C_1  and  O_2
REMARK    2  A    between atoms: O_2  and  C_3
REMARK    3  A    between atoms: C_11  and  N_12
REMARK    4  A    between atoms: C_17  and  N_18
REMARK    5  A    between atoms: N_18  and  C_19
REMARK                            x       y       z     vdW  Elec       q    Type
REMARK                         _______ _______ _______ _____ _____    ______ ____
ROOT
ATOM      1  C   UNL     1       6.511   4.825  16.934  0.00  0.00    +0.000 A 
ATOM      2  C   UNL     1       6.847   4.834  18.300  0.00  0.00    +0.000 A 
ATOM      3  C   UNL     1       5.858   4.922  19.271  0.00  0.00    +0.000 A 
ATOM      4  C   UNL     1       4.506   5.017  18.901  0.00  0.00    +0.000 A 
ATOM      5  C   UNL     1       4.152   4.999  17.529  0.00  0.00    +0.000 A 
ATOM      6  C   UNL     1       5.163   4.901  16.559  0.00  0.00    +0.000 A 
ATOM      7  C   UNL     1       2.712   5.129  17.075  0.00  0.00    +0.000 C 
ATOM      8  C   UNL     1       1.698   5.168  18.230  0.00  0.00    +0.000 C 
ATOM      9  C   UNL     1       2.242   5.969  19.446  0.00  0.00    +0.000 C 
ATOM     10  C   UNL     1       3.453   5.123  19.986  0.00  0.00    +0.000 C 
ENDROOT
BRANCH   9  11
ATOM     11  N   UNL     1       2.659   7.369  19.069  0.00  0.00    +0.000 NA
ATOM     12  C   UNL     1       2.296   8.398  20.071  0.00  0.00    +0.000 C 
ATOM     13  C   UNL     1       0.862   8.761  19.771  0.00  0.00    +0.000 C 
ATOM     14  C   UNL     1       0.921   8.910  18.276  0.00  0.00    +0.000 C 
ATOM     15  C   UNL     1       1.977   7.878  17.848  0.00  0.00    +0.000 C 
ENDBRANCH   9  11
BRANCH  10  16
ATOM     16  N   UNL     1       3.041   3.798  20.503  0.00  0.00    +0.000 N 
ATOM     17  C   UNL     1       3.535   2.527  19.963  0.00  0.00    +0.000 C 
ATOM     18  C   UNL     1       2.185   3.755  21.566  0.00  0.00    +0.000 C 
ATOM     19  O   UNL     1       1.822   2.687  22.046  0.00  0.00    +0.000 OA
ENDBRANCH  10  16
BRANCH   1  21
ATOM     20  C   UNL     1       7.196   4.778  14.603  0.00  0.00    +0.000 C 
ATOM     21  O   UNL     1       7.456   4.760  15.959  0.00  0.00    +0.000 OA
ENDBRANCH   1  21
TORSDOF 3
ENDMDL
MODEL 4
REMARK VINA RESULT:      -5.2      8.395     10.451
REMARK  Name = 
REMARK  5 active torsions:
REMARK  status: ('A' for Active; 'I' for Inactive)
REMARK    1  A    between atoms: C_1  and  O_2
REMARK    2  A    between atoms: O_2  and  C_3
REMARK    3  A    between atoms: C_11  and  N_12
REMARK    4  A    between atoms: C_17  and  N_18
REMARK    5  A    between atoms: N_18  and  C_19
REMARK                            x       y       z     vdW  Elec       q    Type
REMARK                         _______ _______ _______ _____ _____    ______ ____
ROOT
ATOM      1  C   UNL     1       7.002   5.249  15.083  0.00  0.00    +0.000 A 
ATOM      2  C   UNL     1       5.706   5.440  14.570  0.00  0.00    +0.000 A 
ATOM      3  C   UNL     1       4.614   5.533  15.422  0.00  0.00    +0.000 A 
ATOM      4  C   UNL     1       4.787   5.422  16.812  0.00  0.00    +0.000 A 
ATOM      5  C   UNL     1       6.087   5.238  17.344  0.00  0.00    +0.000 A 
ATOM      6  C   UNL     1       7.182   5.156  16.469  0.00  0.00    +0.000 A 
ATOM      7  C   UNL     1       6.325   5.083  18.832  0.00  0.00    +0.000 C 
ATOM      8  C   UNL     1       5.057   5.252  19.685  0.00  0.00    +0.000 C 
ATOM      9  C   UNL     1       3.811   4.632  18.993  0.00  0.00    +0.000 C 
ATOM     10  C   UNL     1       3.571   5.516  17.713  0.00  0.00    +0.000 C 
ENDROOT
BRANCH   9  11
ATOM     11  N   UNL     1       4.015   3.180  18.642  0.00  0.00    +0.000 NA
ATOM     12  C   UNL     1       3.089   2.674  17.601  0.00  0.00    +0.000 C 
ATOM     13  C   UNL     1       1.824   2.303  18.337  0.00  0.00    +0.000 C 
ATOM     14  C   UNL     1       2.395   1.551  19.508  0.00  0.00    +0.000 C 
ATOM     15  C   UNL     1       3.736   2.255  19.773  0.00  0.00    +0.000 C 
ENDBRANCH   9  11
BRANCH  10  16
ATOM     16  N   UNL     1       3.220   6.916  18.041  0.00  0.00    +0.000 N 
ATOM     17  C   UNL     1       3.798   8.079  17.359  0.00  0.00    +0.000 C 
ATOM     18  C   UNL     1       2.278   7.139  19.004  0.00  0.00    +0.000 C 
ATOM     19  O   UNL     1       1.936   8.276  19.306  0.00  0.00    +0.000 OA
ENDBRANCH  10  16
BRANCH   1  21
ATOM     20  C   UNL     1       8.078   5.318  12.906  0.00  0.00    +0.000 C 
ATOM     21  O   UNL     1       8.089   5.135  14.274  0.00  0.00    +0.000 OA
ENDBRANCH   1  21
TORSDOF 3
ENDMDL
MODEL 5
REMARK VINA RESULT:      -5.1      8.964     10.834
REMARK  Name = 
REMARK  5 active torsions:
REMARK  status: ('A' for Active; 'I' for Inactive)
REMARK    1  A    between atoms: C_1  and  O_2
REMARK    2  A    between atoms: O_2  and  C_3
REMARK    3  A    between atoms: C_11  and  N_12
REMARK    4  A    between atoms: C_17  and  N_18
REMARK    5  A    between atoms: N_18  and  C_19
REMARK                            x       y       z     vdW  Elec       q    Type
REMARK                         _______ _______ _______ _____ _____    ______ ____
ROOT
ATOM      1  C   UNL     1      -3.497  10.954  17.490  0.00  0.00    +0.000 A 
ATOM      2  C   UNL     1      -2.526  10.107  16.922  0.00  0.00    +0.000 A 
ATOM      3  C   UNL     1      -1.263   9.998  17.488  0.00  0.00    +0.000 A 
ATOM      4  C   UNL     1      -0.931  10.744  18.631  0.00  0.00    +0.000 A 
ATOM      5  C   UNL     1      -1.901  11.594  19.221  0.00  0.00    +0.000 A 
ATOM      6  C   UNL     1      -3.176  11.686  18.641  0.00  0.00    +0.000 A 
ATOM      7  C   UNL     1      -1.585  12.442  20.435  0.00  0.00    +0.000 C 
ATOM      8  C   UNL     1      -0.179  12.205  21.010  0.00  0.00    +0.000 C 
ATOM      9  C   UNL     1       0.870  11.974  19.886  0.00  0.00    +0.000 C 
ATOM     10  C   UNL     1       0.460  10.610  19.218  0.00  0.00    +0.000 C 
ENDROOT
BRANCH   9  11
ATOM     11  N   UNL     1       0.897  13.103  18.886  0.00  0.00    +0.000 NA
ATOM     12  C   UNL     1       2.087  13.102  18.005  0.00  0.00    +0.000 C 
ATOM     13  C   UNL     1       3.172  13.796  18.794  0.00  0.00    +0.000 C 
ATOM     14  C   UNL     1       2.413  14.984  19.319  0.00  0.00    +0.000 C 
ATOM     15  C   UNL     1       0.986  14.447  19.518  0.00  0.00    +0.000 C 
ENDBRANCH   9  11
BRANCH  10  16
ATOM     16  N   UNL     1       0.573   9.461  20.144  0.00  0.00    +0.000 N 
ATOM     17  C   UNL     1      -0.369   9.207  21.240  0.00  0.00    +0.000 C 
ATOM     18  C   UNL     1       1.584   8.566  19.946  0.00  0.00    +0.000 C 
ATOM     19  O   UNL     1       1.717   7.587  20.672  0.00  0.00    +0.000 OA
ENDBRANCH  10  16
BRANCH   1  21
ATOM     20  C   UNL     1      -5.641  12.079  17.297  0.00  0.00    +0.000 C 
ATOM     21  O   UNL     1      -4.735  11.098  16.948  0.00  0.00    +0.000 OA
ENDBRANCH   1  21
TORSDOF 3
ENDMDL
MODEL 6
REMARK VINA RESULT:      -5.1      8.378     10.625
REMARK  Name = 
REMARK  5 active torsions:
REMARK  status: ('A' for Active; 'I' for Inactive)
REMARK    1  A    between atoms: C_1  and  O_2
REMARK    2  A    between atoms: O_2  and  C_3
REMARK    3  A    between atoms: C_11  and  N_12
REMARK    4  A    between atoms: C_17  and  N_18
REMARK    5  A    between atoms: N_18  and  C_19
REMARK                            x       y       z     vdW  Elec       q    Type
REMARK                         _______ _______ _______ _____ _____    ______ ____
ROOT
ATOM      1  C   UNL     1       2.592  14.013  18.558  0.00  0.00    +0.000 A 
ATOM      2  C   UNL     1       1.648  14.444  19.508  0.00  0.00    +0.000 A 
ATOM      3  C   UNL     1       0.702  13.564  20.016  0.00  0.00    +0.000 A 
ATOM      4  C   UNL     1       0.666  12.230  19.576  0.00  0.00    +0.000 A 
ATOM      5  C   UNL     1       1.616  11.778  18.627  0.00  0.00    +0.000 A 
ATOM      6  C   UNL     1       2.572  12.678  18.129  0.00  0.00    +0.000 A 
ATOM      7  C   UNL     1       1.602  10.359  18.097  0.00  0.00    +0.000 C 
ATOM      8  C   UNL     1       0.549   9.457  18.764  0.00  0.00    +0.000 C 
ATOM      9  C   UNL     1      -0.769  10.230  19.053  0.00  0.00    +0.000 C 
ATOM     10  C   UNL     1      -0.387  11.298  20.144  0.00  0.00    +0.000 C 
ENDROOT
BRANCH   9  11
ATOM     11  N   UNL     1      -1.339  10.872  17.813  0.00  0.00    +0.000 NA
ATOM     12  C   UNL     1      -2.543  11.699  18.061  0.00  0.00    +0.000 C 
ATOM     13  C   UNL     1      -3.701  10.729  18.072  0.00  0.00    +0.000 C 
ATOM     14  C   UNL     1      -3.382   9.905  16.855  0.00  0.00    +0.000 C 
ATOM     15  C   UNL     1      -1.845   9.888  16.819  0.00  0.00    +0.000 C 
ENDBRANCH   9  11
BRANCH  10  16
ATOM     16  N   UNL     1       0.033  10.684  21.423  0.00  0.00    +0.000 N 
ATOM     17  C   UNL     1       1.257   9.890  21.580  0.00  0.00    +0.000 C 
ATOM     18  C   UNL     1      -0.736  10.903  22.530  0.00  0.00    +0.000 C 
ATOM     19  O   UNL     1      -0.429  10.433  23.619  0.00  0.00    +0.000 OA
ENDBRANCH  10  16
BRANCH   1  21
ATOM     20  C   UNL     1       4.883  14.657  18.072  0.00  0.00    +0.000 C 
ATOM     21  O   UNL     1       3.517  14.855  18.027  0.00  0.00    +0.000 OA
ENDBRANCH   1  21
TORSDOF 3
ENDMDL
MODEL 7
REMARK VINA RESULT:      -5.1      8.105      9.663
REMARK  Name = 
REMARK  5 active torsions:
REMARK  status: ('A' for Active; 'I' for Inactive)
REMARK    1  A    between atoms: C_1  and  O_2
REMARK    2  A    between atoms: O_2  and  C_3
REMARK    3  A    between atoms: C_11  and  N_12
REMARK    4  A    between atoms: C_17  and  N_18
REMARK    5  A    between atoms: N_18  and  C_19
REMARK                            x       y       z     vdW  Elec       q    Type
REMARK                         _______ _______ _______ _____ _____    ______ ____
ROOT
ATOM      1  C   UNL     1       2.192   7.325  19.543  0.00  0.00    +0.000 A 
ATOM      2  C   UNL     1       2.535   7.960  18.335  0.00  0.00    +0.000 A 
ATOM      3  C   UNL     1       2.051   9.228  18.040  0.00  0.00    +0.000 A 
ATOM      4  C   UNL     1       1.198   9.889  18.939  0.00  0.00    +0.000 A 
ATOM      5  C   UNL     1       0.851   9.266  20.164  0.00  0.00    +0.000 A 
ATOM      6  C   UNL     1       1.356   7.988  20.451  0.00  0.00    +0.000 A 
ATOM      7  C   UNL     1      -0.089   9.922  21.154  0.00  0.00    +0.000 C 
ATOM      8  C   UNL     1      -0.523  11.341  20.752  0.00  0.00    +0.000 C 
ATOM      9  C   UNL     1      -0.746  11.462  19.218  0.00  0.00    +0.000 C 
ATOM     10  C   UNL     1       0.679  11.268  18.580  0.00  0.00    +0.000 C 
ENDROOT
BRANCH   9  11
ATOM     11  N   UNL     1      -1.735  10.447  18.702  0.00  0.00    +0.000 NA
ATOM     12  C   UNL     1      -1.568  10.115  17.268  0.00  0.00    +0.000 C 
ATOM     13  C   UNL     1      -2.309  11.195  16.517  0.00  0.00    +0.000 C 
ATOM     14  C   UNL     1      -3.587  11.253  17.308  0.00  0.00    +0.000 C 
ATOM     15  C   UNL     1      -3.144  10.923  18.743  0.00  0.00    +0.000 C 
ENDBRANCH   9  11
BRANCH  10  16
ATOM     16  N   UNL     1       1.626  12.342  18.956  0.00  0.00    +0.000 N 
ATOM     17  C   UNL     1       1.657  12.970  20.281  0.00  0.00    +0.000 C 
ATOM     18  C   UNL     1       2.549  12.743  18.033  0.00  0.00    +0.000 C 
ATOM     19  O   UNL     1       3.368  13.617  18.293  0.00  0.00    +0.000 OA
ENDBRANCH  10  16
BRANCH   1  21
ATOM     20  C   UNL     1       1.957   5.175  20.651  0.00  0.00    +0.000 C 
ATOM     21  O   UNL     1       2.633   6.077  19.852  0.00  0.00    +0.000 OA
ENDBRANCH   1  21
TORSDOF 3
ENDMDL
MODEL 8
REMARK VINA RESULT:      -5.0      8.694     11.243
REMARK  Name = 
REMARK  5 active torsions:
REMARK  status: ('A' for Active; 'I' for Inactive)
REMARK    1  A    between atoms: C_1  and  O_2
REMARK    2  A    between atoms: O_2  and  C_3
REMARK    3  A    between atoms: C_11  and  N_12
REMARK    4  A    between atoms: C_17  and  N_18
REMARK    5  A    between atoms: N_18  and  C_19
REMARK                            x       y       z     vdW  Elec       q    Type
REMARK                         _______ _______ _______ _____ _____    ______ ____
ROOT
ATOM      1  C   UNL     1       2.367   7.376  18.565  0.00  0.00    +0.000 A 
ATOM      2  C   UNL     1       1.564   6.316  18.103  0.00  0.00    +0.000 A 
ATOM      3  C   UNL     1       2.139   5.124  17.684  0.00  0.00    +0.000 A 
ATOM      4  C   UNL     1       3.534   4.963  17.701  0.00  0.00    +0.000 A 
ATOM      5  C   UNL     1       4.356   6.018  18.173  0.00  0.00    +0.000 A 
ATOM      6  C   UNL     1       3.758   7.214  18.602  0.00  0.00    +0.000 A 
ATOM      7  C   UNL     1       5.866   5.908  18.185  0.00  0.00    +0.000 C 
ATOM      8  C   UNL     1       6.392   4.530  17.749  0.00  0.00    +0.000 C 
ATOM      9  C   UNL     1       5.543   3.929  16.594  0.00  0.00    +0.000 C 
ATOM     10  C   UNL     1       4.129   3.652  17.226  0.00  0.00    +0.000 C 
ENDROOT
BRANCH   9  11
ATOM     11  N   UNL     1       5.456   4.855  15.406  0.00  0.00    +0.000 NA
ATOM     12  C   UNL     1       5.016   4.193  14.156  0.00  0.00    +0.000 C 
ATOM     13  C   UNL     1       6.264   3.580  13.567  0.00  0.00    +0.000 C 
ATOM     14  C   UNL     1       7.230   4.724  13.715  0.00  0.00    +0.000 C 
ATOM     15  C   UNL     1       6.770   5.423  15.005  0.00  0.00    +0.000 C 
ENDBRANCH   9  11
BRANCH  10  16
ATOM     16  N   UNL     1       4.170   2.631  18.297  0.00  0.00    +0.000 N 
ATOM     17  C   UNL     1       3.780   1.231  18.098  0.00  0.00    +0.000 C 
ATOM     18  C   UNL     1       4.634   3.000  19.527  0.00  0.00    +0.000 C 
ATOM     19  O   UNL     1       4.705   2.194  20.447  0.00  0.00    +0.000 OA
ENDBRANCH  10  16
BRANCH   1  21
ATOM     20  C   UNL     1       1.446   9.578  18.113  0.00  0.00    +0.000 C 
ATOM     21  O   UNL     1       1.836   8.562  18.963  0.00  0.00    +0.000 OA
ENDBRANCH   1  21
TORSDOF 3
ENDMDL
MODEL 9
REMARK VINA RESULT:      -4.9      9.266     11.122
REMARK  Name = 
REMARK  5 active torsions:
REMARK  status: ('A' for Active; 'I' for Inactive)
REMARK    1  A    between atoms: C_1  and  O_2
REMARK    2  A    between atoms: O_2  and  C_3
REMARK    3  A    between atoms: C_11  and  N_12
REMARK    4  A    between atoms: C_17  and  N_18
REMARK    5  A    between atoms: N_18  and  C_19
REMARK                            x       y       z     vdW  Elec       q    Type
REMARK                         _______ _______ _______ _____ _____    ______ ____
ROOT
ATOM      1  C   UNL     1      -2.989  10.620  17.018  0.00  0.00    +0.000 A 
ATOM      2  C   UNL     1      -1.756   9.945  17.086  0.00  0.00    +0.000 A 
ATOM      3  C   UNL     1      -0.869  10.195  18.125  0.00  0.00    +0.000 A 
ATOM      4  C   UNL     1      -1.185  11.138  19.117  0.00  0.00    +0.000 A 
ATOM      5  C   UNL     1      -2.427  11.819  19.067  0.00  0.00    +0.000 A 
ATOM      6  C   UNL     1      -3.316  11.549  18.015  0.00  0.00    +0.000 A 
ATOM      7  C   UNL     1      -2.803  12.867  20.094  0.00  0.00    +0.000 C 
ATOM      8  C   UNL     1      -1.774  13.027  21.225  0.00  0.00    +0.000 C 
ATOM      9  C   UNL     1      -0.317  12.890  20.700  0.00  0.00    +0.000 C 
ATOM     10  C   UNL     1      -0.189  11.394  20.231  0.00  0.00    +0.000 C 
ENDROOT
BRANCH   9  11
ATOM     11  N   UNL     1      -0.019  13.857  19.582  0.00  0.00    +0.000 NA
ATOM     12  C   UNL     1       1.291  13.638  18.926  0.00  0.00    +0.000 C 
ATOM     13  C   UNL     1       2.299  14.354  19.794  0.00  0.00    +0.000 C 
ATOM     14  C   UNL     1       1.588  15.661  20.020  0.00  0.00    +0.000 C 
ATOM     15  C   UNL     1       0.101  15.268  20.039  0.00  0.00    +0.000 C 
ENDBRANCH   9  11
BRANCH  10  16
ATOM     16  N   UNL     1      -0.329  10.430  21.345  0.00  0.00    +0.000 N 
ATOM     17  C   UNL     1      -0.234   8.976  21.177  0.00  0.00    +0.000 C 
ATOM     18  C   UNL     1      -0.516  10.920  22.605  0.00  0.00    +0.000 C 
ATOM     19  O   UNL     1      -0.623  10.170  23.569  0.00  0.00    +0.000 OA
ENDBRANCH  10  16
BRANCH   1  21
ATOM     20  C   UNL     1      -3.520  10.208  14.683  0.00  0.00    +0.000 C 
ATOM     21  O   UNL     1      -3.870  10.413  16.003  0.00  0.00    +0.000 OA
ENDBRANCH   1  21
TORSDOF 3
ENDMDL
