MODEL 1
REMARK VINA RESULT:      -6.5      0.000      0.000
REMARK  Name = 
REMARK  7 active torsions:
REMARK  status: ('A' for Active; 'I' for Inactive)
REMARK    1  A    between atoms: C_1  and  C_2
REMARK    2  A    between atoms: C_2  and  N_3
REMARK    3  A    between atoms: N_6  and  C_7
REMARK    4  A    between atoms: C_7  and  C_8
REMARK    5  A    between atoms: C_8  and  C_9
REMARK    6  A    between atoms: C_9  and  N_10
REMARK    7  A    between atoms: C_11  and  C_13
REMARK                            x       y       z     vdW  Elec       q    Type
REMARK                         _______ _______ _______ _____ _____    ______ ____
ROOT
ATOM      1  N   UNL     1       6.263   6.342  15.929  0.00  0.00    +0.000 N 
ATOM      2  C   UNL     1       6.953   5.206  15.602  0.00  0.00    +0.000 C 
ATOM      3  O   UNL     1       7.847   4.725  16.300  0.00  0.00    +0.000 OA
ATOM      4  H   UNL     1       5.474   6.624  15.361  0.00  0.00    +0.000 HD
ENDROOT
BRANCH   2   5
ATOM      5  C   UNL     1       6.618   4.558  14.305  0.00  0.00    +0.000 A 
ATOM      6  C   UNL     1       5.460   3.758  14.299  0.00  0.00    +0.000 A 
ATOM      7  C   UNL     1       5.060   3.100  13.136  0.00  0.00    +0.000 A 
ATOM      8  C   UNL     1       5.810   3.251  11.980  0.00  0.00    +0.000 A 
ATOM      9  F   UNL     1       5.428   2.623  10.859  0.00  0.00    +0.000 F 
ATOM     10  C   UNL     1       6.948   4.044  11.957  0.00  0.00    +0.000 A 
ATOM     11  C   UNL     1       7.357   4.706  13.120  0.00  0.00    +0.000 A 
ATOM     12 CL   UNL     1       8.763   5.705  12.978  0.00  0.00    +0.000 Cl
ENDBRANCH   2   5
BRANCH   1  13
ATOM     13  C   UNL     1       6.433   6.996  17.204  0.00  0.00    +0.000 C 
BRANCH  13  14
ATOM     14  C   UNL     1       5.220   6.773  18.098  0.00  0.00    +0.000 C 
BRANCH  14  15
ATOM     15  C   UNL     1       4.174   5.903  17.405  0.00  0.00    +0.000 C 
BRANCH  15  19
ATOM     16  N   UNL     1       1.565   4.172  19.418  0.00  0.00    +0.000 NA
ATOM     17  C   UNL     1       2.742   4.881  19.977  0.00  0.00    +0.000 C 
ATOM     18  C   UNL     1       4.092   4.425  19.371  0.00  0.00    +0.000 C 
ATOM     19  N   UNL     1       4.149   4.511  17.894  0.00  0.00    +0.000 NA
ATOM     20  C   UNL     1       2.977   3.797  17.337  0.00  0.00    +0.000 C 
ATOM     21  C   UNL     1       1.628   4.256  17.941  0.00  0.00    +0.000 C 
BRANCH  16  23
ATOM     22  C   UNL     1       1.465   2.678  21.429  0.00  0.00    +0.000 C 
ATOM     23  C   UNL     1       1.537   2.785  19.911  0.00  0.00    +0.000 C 
ENDBRANCH  16  23
ENDBRANCH  15  19
ENDBRANCH  14  15
ENDBRANCH  13  14
ENDBRANCH   1  13
TORSDOF 6
ENDMDL
MODEL 2
REMARK VINA RESULT:      -6.4      1.405      1.715
REMARK  Name = 
REMARK  7 active torsions:
REMARK  status: ('A' for Active; 'I' for Inactive)
REMARK    1  A    between atoms: C_1  and  C_2
REMARK    2  A    between atoms: C_2  and  N_3
REMARK    3  A    between atoms: N_6  and  C_7
REMARK    4  A    between atoms: C_7  and  C_8
REMARK    5  A    between atoms: C_8  and  C_9
REMARK    6  A    between atoms: C_9  and  N_10
REMARK    7  A    between atoms: C_11  and  C_13
REMARK                            x       y       z     vdW  Elec       q    Type
REMARK                         _______ _______ _______ _____ _____    ______ ____
ROOT
ATOM      1  N   UNL     1       7.195   4.428  17.017  0.00  0.00    +0.000 N 
ATOM      2  C   UNL     1       7.264   5.227  15.907  0.00  0.00    +0.000 C 
ATOM      3  O   UNL     1       7.671   6.389  15.927  0.00  0.00    +0.000 OA
ATOM      4  H   UNL     1       6.946   3.453  16.911  0.00  0.00    +0.000 HD
ENDROOT
BRANCH   2   5
ATOM      5  C   UNL     1       6.772   4.653  14.626  0.00  0.00    +0.000 A 
ATOM      6  C   UNL     1       5.577   3.914  14.701  0.00  0.00    +0.000 A 
ATOM      7  C   UNL     1       5.032   3.329  13.559  0.00  0.00    +0.000 A 
ATOM      8  C   UNL     1       5.676   3.491  12.342  0.00  0.00    +0.000 A 
ATOM      9  F   UNL     1       5.156   2.933  11.240  0.00  0.00    +0.000 F 
ATOM     10  C   UNL     1       6.849   4.226  12.239  0.00  0.00    +0.000 A 
ATOM     11  C   UNL     1       7.402   4.815  13.381  0.00  0.00    +0.000 A 
ATOM     12 CL   UNL     1       8.841   5.746  13.141  0.00  0.00    +0.000 Cl
ENDBRANCH   2   5
BRANCH   1  13
ATOM     13  C   UNL     1       7.736   4.842  18.289  0.00  0.00    +0.000 C 
BRANCH  13  14
ATOM     14  C   UNL     1       6.674   5.534  19.134  0.00  0.00    +0.000 C 
BRANCH  14  15
ATOM     15  C   UNL     1       5.274   5.278  18.582  0.00  0.00    +0.000 C 
BRANCH  15  19
ATOM     16  N   UNL     1       2.578   2.818  17.854  0.00  0.00    +0.000 NA
ATOM     17  C   UNL     1       2.380   4.280  17.996  0.00  0.00    +0.000 C 
ATOM     18  C   UNL     1       2.960   4.865  19.308  0.00  0.00    +0.000 C 
ATOM     19  N   UNL     1       4.393   4.560  19.522  0.00  0.00    +0.000 NA
ATOM     20  C   UNL     1       4.587   3.098  19.387  0.00  0.00    +0.000 C 
ATOM     21  C   UNL     1       4.011   2.515  18.073  0.00  0.00    +0.000 C 
BRANCH  16  23
ATOM     22  C   UNL     1       0.312   2.728  18.924  0.00  0.00    +0.000 C 
ATOM     23  C   UNL     1       1.694   2.101  18.789  0.00  0.00    +0.000 C 
ENDBRANCH  16  23
ENDBRANCH  15  19
ENDBRANCH  14  15
ENDBRANCH  13  14
ENDBRANCH   1  13
TORSDOF 6
ENDMDL
MODEL 3
REMARK VINA RESULT:      -6.4      1.357      1.747
REMARK  Name = 
REMARK  7 active torsions:
REMARK  status: ('A' for Active; 'I' for Inactive)
REMARK    1  A    between atoms: C_1  and  C_2
REMARK    2  A    between atoms: C_2  and  N_3
REMARK    3  A    between atoms: N_6  and  C_7
REMARK    4  A    between atoms: C_7  and  C_8
REMARK    5  A    between atoms: C_8  and  C_9
REMARK    6  A    between atoms: C_9  and  N_10
REMARK    7  A    between atoms: C_11  and  C_13
REMARK                            x       y       z     vdW  Elec       q    Type
REMARK                         _______ _______ _______ _____ _____    ______ ____
ROOT
ATOM      1  N   UNL     1       7.294   5.102  16.648  0.00  0.00    +0.000 N 
ATOM      2  C   UNL     1       6.540   5.636  15.638  0.00  0.00    +0.000 C 
ATOM      3  O   UNL     1       5.949   6.713  15.724  0.00  0.00    +0.000 OA
ATOM      4  H   UNL     1       7.833   4.264  16.474  0.00  0.00    +0.000 HD
ENDROOT
BRANCH   2   5
ATOM      5  C   UNL     1       6.407   4.833  14.392  0.00  0.00    +0.000 A 
ATOM      6  C   UNL     1       5.260   4.022  14.304  0.00  0.00    +0.000 A 
ATOM      7  C   UNL     1       5.042   3.225  13.181  0.00  0.00    +0.000 A 
ATOM      8  C   UNL     1       5.963   3.246  12.145  0.00  0.00    +0.000 A 
ATOM      9  F   UNL     1       5.756   2.483  11.062  0.00  0.00    +0.000 F 
ATOM     10  C   UNL     1       7.094   4.047  12.203  0.00  0.00    +0.000 A 
ATOM     11  C   UNL     1       7.322   4.848  13.327  0.00  0.00    +0.000 A 
ATOM     12 CL   UNL     1       8.737   5.842  13.284  0.00  0.00    +0.000 Cl
ENDBRANCH   2   5
BRANCH   1  13
ATOM     13  C   UNL     1       7.575   5.835  17.859  0.00  0.00    +0.000 C 
BRANCH  13  14
ATOM     14  C   UNL     1       6.564   5.499  18.947  0.00  0.00    +0.000 C 
BRANCH  14  15
ATOM     15  C   UNL     1       5.747   4.263  18.582  0.00  0.00    +0.000 C 
BRANCH  15  19
ATOM     16  N   UNL     1       2.751   2.158  19.252  0.00  0.00    +0.000 NA
ATOM     17  C   UNL     1       3.518   2.169  17.983  0.00  0.00    +0.000 C 
ATOM     18  C   UNL     1       3.710   3.584  17.381  0.00  0.00    +0.000 C 
ATOM     19  N   UNL     1       4.327   4.555  18.312  0.00  0.00    +0.000 NA
ATOM     20  C   UNL     1       3.555   4.549  19.576  0.00  0.00    +0.000 C 
ATOM     21  C   UNL     1       3.367   3.135  20.179  0.00  0.00    +0.000 C 
BRANCH  16  23
ATOM     22  C   UNL     1       0.615   3.126  20.139  0.00  0.00    +0.000 C 
ATOM     23  C   UNL     1       1.332   2.445  18.981  0.00  0.00    +0.000 C 
ENDBRANCH  16  23
ENDBRANCH  15  19
ENDBRANCH  14  15
ENDBRANCH  13  14
ENDBRANCH   1  13
TORSDOF 6
ENDMDL
MODEL 4
REMARK VINA RESULT:      -6.4      6.482      8.351
REMARK  Name = 
REMARK  7 active torsions:
REMARK  status: ('A' for Active; 'I' for Inactive)
REMARK    1  A    between atoms: C_1  and  C_2
REMARK    2  A    between atoms: C_2  and  N_3
REMARK    3  A    between atoms: N_6  and  C_7
REMARK    4  A    between atoms: C_7  and  C_8
REMARK    5  A    between atoms: C_8  and  C_9
REMARK    6  A    between atoms: C_9  and  N_10
REMARK    7  A    between atoms: C_11  and  C_13
REMARK                            x       y       z     vdW  Elec       q    Type
REMARK                         _______ _______ _______ _____ _____    ______ ____
ROOT
ATOM      1  N   UNL     1       8.999  10.551  18.262  0.00  0.00    +0.000 N 
ATOM      2  C   UNL     1       9.783  11.413  18.982  0.00  0.00    +0.000 C 
ATOM      3  O   UNL     1      10.176  11.183  20.126  0.00  0.00    +0.000 OA
ATOM      4  H   UNL     1       8.796  10.758  17.293  0.00  0.00    +0.000 HD
ENDROOT
BRANCH   2   5
ATOM      5  C   UNL     1      10.128  12.711  18.343  0.00  0.00    +0.000 A 
ATOM      6  C   UNL     1      11.130  12.664  17.356  0.00  0.00    +0.000 A 
ATOM      7  C   UNL     1      11.533  13.825  16.699  0.00  0.00    +0.000 A 
ATOM      8  C   UNL     1      10.929  15.031  17.021  0.00  0.00    +0.000 A 
ATOM      9  F   UNL     1      11.311  16.150  16.391  0.00  0.00    +0.000 F 
ATOM     10  C   UNL     1       9.930  15.102  17.982  0.00  0.00    +0.000 A 
ATOM     11  C   UNL     1       9.521  13.941  18.647  0.00  0.00    +0.000 A 
ATOM     12 CL   UNL     1       8.240  14.127  19.795  0.00  0.00    +0.000 Cl
ENDBRANCH   2   5
BRANCH   1  13
ATOM     13  C   UNL     1       8.686   9.226  18.740  0.00  0.00    +0.000 C 
BRANCH  13  14
ATOM     14  C   UNL     1       7.944   8.425  17.678  0.00  0.00    +0.000 C 
BRANCH  14  15
ATOM     15  C   UNL     1       7.764   6.971  18.106  0.00  0.00    +0.000 C 
BRANCH  15  19
ATOM     16  N   UNL     1       4.637   4.951  18.090  0.00  0.00    +0.000 NA
ATOM     17  C   UNL     1       5.969   4.455  18.512  0.00  0.00    +0.000 C 
ATOM     18  C   UNL     1       7.086   4.694  17.465  0.00  0.00    +0.000 C 
ATOM     19  N   UNL     1       7.221   6.107  17.041  0.00  0.00    +0.000 NA
ATOM     20  C   UNL     1       5.891   6.598  16.613  0.00  0.00    +0.000 C 
ATOM     21  C   UNL     1       4.777   6.362  17.661  0.00  0.00    +0.000 C 
BRANCH  16  23
ATOM     22  C   UNL     1       3.484   2.791  17.553  0.00  0.00    +0.000 C 
ATOM     23  C   UNL     1       4.094   4.084  17.030  0.00  0.00    +0.000 C 
ENDBRANCH  16  23
ENDBRANCH  15  19
ENDBRANCH  14  15
ENDBRANCH  13  14
ENDBRANCH   1  13
TORSDOF 6
ENDMDL
MODEL 5
REMARK VINA RESULT:      -6.3      0.716      1.336
REMARK  Name = 
REMARK  7 active torsions:
REMARK  status: ('A' for Active; 'I' for Inactive)
REMARK    1  A    between atoms: C_1  and  C_2
REMARK    2  A    between atoms: C_2  and  N_3
REMARK    3  A    between atoms: N_6  and  C_7
REMARK    4  A    between atoms: C_7  and  C_8
REMARK    5  A    between atoms: C_8  and  C_9
REMARK    6  A    between atoms: C_9  and  N_10
REMARK    7  A    between atoms: C_11  and  C_13
REMARK                            x       y       z     vdW  Elec       q    Type
REMARK                         _______ _______ _______ _____ _____    ______ ____
ROOT
ATOM      1  N   UNL     1       5.906   6.394  15.824  0.00  0.00    +0.000 N 
ATOM      2  C   UNL     1       6.762   5.362  15.549  0.00  0.00    +0.000 C 
ATOM      3  O   UNL     1       7.701   5.041  16.279  0.00  0.00    +0.000 OA
ATOM      4  H   UNL     1       5.098   6.538  15.232  0.00  0.00    +0.000 HD
ENDROOT
BRANCH   2   5
ATOM      5  C   UNL     1       6.555   4.629  14.271  0.00  0.00    +0.000 A 
ATOM      6  C   UNL     1       5.431   3.785  14.221  0.00  0.00    +0.000 A 
ATOM      7  C   UNL     1       5.148   3.048  13.072  0.00  0.00    +0.000 A 
ATOM      8  C   UNL     1       5.983   3.164  11.970  0.00  0.00    +0.000 A 
ATOM      9  F   UNL     1       5.715   2.459  10.862  0.00  0.00    +0.000 F 
ATOM     10  C   UNL     1       7.091   3.999  11.990  0.00  0.00    +0.000 A 
ATOM     11  C   UNL     1       7.382   4.740  13.141  0.00  0.00    +0.000 A 
ATOM     12 CL   UNL     1       8.759   5.784  13.050  0.00  0.00    +0.000 Cl
ENDBRANCH   2   5
BRANCH   1  13
ATOM     13  C   UNL     1       5.949   7.107  17.077  0.00  0.00    +0.000 C 
BRANCH  13  14
ATOM     14  C   UNL     1       4.581   7.115  17.748  0.00  0.00    +0.000 C 
BRANCH  14  15
ATOM     15  C   UNL     1       3.868   5.778  17.566  0.00  0.00    +0.000 C 
BRANCH  15  19
ATOM     16  N   UNL     1       2.519   2.811  19.363  0.00  0.00    +0.000 NA
ATOM     17  C   UNL     1       2.182   3.188  17.969  0.00  0.00    +0.000 C 
ATOM     18  C   UNL     1       1.695   4.651  17.817  0.00  0.00    +0.000 C 
ATOM     19  N   UNL     1       2.633   5.657  18.364  0.00  0.00    +0.000 NA
ATOM     20  C   UNL     1       2.962   5.283  19.759  0.00  0.00    +0.000 C 
ATOM     21  C   UNL     1       3.452   3.822  19.909  0.00  0.00    +0.000 C 
BRANCH  16  23
ATOM     22  C   UNL     1       1.533   2.573  21.656  0.00  0.00    +0.000 C 
ATOM     23  C   UNL     1       1.285   2.684  20.157  0.00  0.00    +0.000 C 
ENDBRANCH  16  23
ENDBRANCH  15  19
ENDBRANCH  14  15
ENDBRANCH  13  14
ENDBRANCH   1  13
TORSDOF 6
ENDMDL
MODEL 6
REMARK VINA RESULT:      -6.3      5.724      7.331
REMARK  Name = 
REMARK  7 active torsions:
REMARK  status: ('A' for Active; 'I' for Inactive)
REMARK    1  A    between atoms: C_1  and  C_2
REMARK    2  A    between atoms: C_2  and  N_3
REMARK    3  A    between atoms: N_6  and  C_7
REMARK    4  A    between atoms: C_7  and  C_8
REMARK    5  A    between atoms: C_8  and  C_9
REMARK    6  A    between atoms: C_9  and  N_10
REMARK    7  A    between atoms: C_11  and  C_13
REMARK                            x       y       z     vdW  Elec       q    Type
REMARK                         _______ _______ _______ _____ _____    ______ ____
ROOT
ATOM      1  N   UNL     1       1.986   7.447  17.893  0.00  0.00    +0.000 N 
ATOM      2  C   UNL     1       2.959   6.494  18.039  0.00  0.00    +0.000 C 
ATOM      3  O   UNL     1       4.158   6.711  17.863  0.00  0.00    +0.000 OA
ATOM      4  H   UNL     1       1.034   7.226  18.151  0.00  0.00    +0.000 HD
ENDROOT
BRANCH   2   5
ATOM      5  C   UNL     1       2.514   5.117  18.388  0.00  0.00    +0.000 A 
ATOM      6  C   UNL     1       2.751   4.130  17.415  0.00  0.00    +0.000 A 
ATOM      7  C   UNL     1       2.368   2.808  17.639  0.00  0.00    +0.000 A 
ATOM      8  C   UNL     1       1.758   2.473  18.839  0.00  0.00    +0.000 A 
ATOM      9  F   UNL     1       1.390   1.204  19.061  0.00  0.00    +0.000 F 
ATOM     10  C   UNL     1       1.526   3.427  19.820  0.00  0.00    +0.000 A 
ATOM     11  C   UNL     1       1.906   4.756  19.601  0.00  0.00    +0.000 A 
ATOM     12 CL   UNL     1       1.612   5.859  20.902  0.00  0.00    +0.000 Cl
ENDBRANCH   2   5
BRANCH   1  13
ATOM     13  C   UNL     1       2.307   8.833  17.655  0.00  0.00    +0.000 C 
BRANCH  13  14
ATOM     14  C   UNL     1       1.429   9.748  18.498  0.00  0.00    +0.000 C 
BRANCH  14  15
ATOM     15  C   UNL     1       1.172   9.151  19.879  0.00  0.00    +0.000 C 
BRANCH  15  19
ATOM     16  N   UNL     1      -0.156  11.139  22.732  0.00  0.00    +0.000 NA
ATOM     17  C   UNL     1       0.243   9.713  22.800  0.00  0.00    +0.000 C 
ATOM     18  C   UNL     1      -0.426   8.824  21.722  0.00  0.00    +0.000 C 
ATOM     19  N   UNL     1      -0.222   9.304  20.336  0.00  0.00    +0.000 NA
ATOM     20  C   UNL     1      -0.629  10.727  20.267  0.00  0.00    +0.000 C 
ATOM     21  C   UNL     1       0.043  11.615  21.343  0.00  0.00    +0.000 C 
BRANCH  16  23
ATOM     22  C   UNL     1      -2.045  12.731  23.164  0.00  0.00    +0.000 C 
ATOM     23  C   UNL     1      -1.547  11.292  23.193  0.00  0.00    +0.000 C 
ENDBRANCH  16  23
ENDBRANCH  15  19
ENDBRANCH  14  15
ENDBRANCH  13  14
ENDBRANCH   1  13
TORSDOF 6
ENDMDL
MODEL 7
REMARK VINA RESULT:      -6.3      5.320      8.332
REMARK  Name = 
REMARK  7 active torsions:
REMARK  status: ('A' for Active; 'I' for Inactive)
REMARK    1  A    between atoms: C_1  and  C_2
REMARK    2  A    between atoms: C_2  and  N_3
REMARK    3  A    between atoms: N_6  and  C_7
REMARK    4  A    between atoms: C_7  and  C_8
REMARK    5  A    between atoms: C_8  and  C_9
REMARK    6  A    between atoms: C_9  and  N_10
REMARK    7  A    between atoms: C_11  and  C_13
REMARK                            x       y       z     vdW  Elec       q    Type
REMARK                         _______ _______ _______ _____ _____    ______ ____
ROOT
ATOM      1  N   UNL     1       7.055   7.042  17.984  0.00  0.00    +0.000 N 
ATOM      2  C   UNL     1       6.822   5.750  18.374  0.00  0.00    +0.000 C 
ATOM      3  O   UNL     1       7.673   5.033  18.902  0.00  0.00    +0.000 OA
ATOM      4  H   UNL     1       6.284   7.605  17.650  0.00  0.00    +0.000 HD
ENDROOT
BRANCH   2   5
ATOM      5  C   UNL     1       5.472   5.189  18.096  0.00  0.00    +0.000 A 
ATOM      6  C   UNL     1       4.463   5.529  19.015  0.00  0.00    +0.000 A 
ATOM      7  C   UNL     1       3.164   5.052  18.850  0.00  0.00    +0.000 A 
ATOM      8  C   UNL     1       2.872   4.243  17.762  0.00  0.00    +0.000 A 
ATOM      9  F   UNL     1       1.625   3.783  17.597  0.00  0.00    +0.000 F 
ATOM     10  C   UNL     1       3.847   3.903  16.834  0.00  0.00    +0.000 A 
ATOM     11  C   UNL     1       5.154   4.378  16.995  0.00  0.00    +0.000 A 
ATOM     12 CL   UNL     1       6.285   3.934  15.762  0.00  0.00    +0.000 Cl
ENDBRANCH   2   5
BRANCH   1  13
ATOM     13  C   UNL     1       8.290   7.720  18.293  0.00  0.00    +0.000 C 
BRANCH  13  14
ATOM     14  C   UNL     1       8.188   9.208  17.982  0.00  0.00    +0.000 C 
BRANCH  14  15
ATOM     15  C   UNL     1       9.095  10.028  18.894  0.00  0.00    +0.000 C 
BRANCH  15  19
ATOM     16  N   UNL     1      10.334  13.269  20.241  0.00  0.00    +0.000 NA
ATOM     17  C   UNL     1       9.004  13.058  19.621  0.00  0.00    +0.000 C 
ATOM     18  C   UNL     1       9.065  12.395  18.222  0.00  0.00    +0.000 C 
ATOM     19  N   UNL     1       9.807  11.114  18.194  0.00  0.00    +0.000 NA
ATOM     20  C   UNL     1      11.138  11.329  18.807  0.00  0.00    +0.000 C 
ATOM     21  C   UNL     1      11.075  11.988  20.207  0.00  0.00    +0.000 C 
BRANCH  16  23
ATOM     22  C   UNL     1      10.297  15.686  19.576  0.00  0.00    +0.000 C 
ATOM     23  C   UNL     1      11.041  14.358  19.545  0.00  0.00    +0.000 C 
ENDBRANCH  16  23
ENDBRANCH  15  19
ENDBRANCH  14  15
ENDBRANCH  13  14
ENDBRANCH   1  13
TORSDOF 6
ENDMDL
MODEL 8
REMARK VINA RESULT:      -6.2      1.159      1.273
REMARK  Name = 
REMARK  7 active torsions:
REMARK  status: ('A' for Active; 'I' for Inactive)
REMARK    1  A    between atoms: C_1  and  C_2
REMARK    2  A    between atoms: C_2  and  N_3
REMARK    3  A    between atoms: N_6  and  C_7
REMARK    4  A    between atoms: C_7  and  C_8
REMARK    5  A    between atoms: C_8  and  C_9
REMARK    6  A    between atoms: C_9  and  N_10
REMARK    7  A    between atoms: C_11  and  C_13
REMARK                            x       y       z     vdW  Elec       q    Type
REMARK                         _______ _______ _______ _____ _____    ______ ____
ROOT
ATOM      1  N   UNL     1       7.057   4.437  16.949  0.00  0.00    +0.000 N 
ATOM      2  C   UNL     1       7.193   5.212  15.828  0.00  0.00    +0.000 C 
ATOM      3  O   UNL     1       7.644   6.359  15.843  0.00  0.00    +0.000 OA
ATOM      4  H   UNL     1       6.774   3.470  16.851  0.00  0.00    +0.000 HD
ENDROOT
BRANCH   2   5
ATOM      5  C   UNL     1       6.722   4.634  14.541  0.00  0.00    +0.000 A 
ATOM      6  C   UNL     1       5.521   3.905  14.597  0.00  0.00    +0.000 A 
ATOM      7  C   UNL     1       4.994   3.317  13.448  0.00  0.00    +0.000 A 
ATOM      8  C   UNL     1       5.664   3.467  12.243  0.00  0.00    +0.000 A 
ATOM      9  F   UNL     1       5.161   2.905  11.134  0.00  0.00    +0.000 F 
ATOM     10  C   UNL     1       6.843   4.192  12.158  0.00  0.00    +0.000 A 
ATOM     11  C   UNL     1       7.379   4.783  13.308  0.00  0.00    +0.000 A 
ATOM     12 CL   UNL     1       8.829   5.703  13.091  0.00  0.00    +0.000 Cl
ENDBRANCH   2   5
BRANCH   1  13
ATOM     13  C   UNL     1       7.571   4.853  18.231  0.00  0.00    +0.000 C 
BRANCH  13  14
ATOM     14  C   UNL     1       6.460   5.420  19.105  0.00  0.00    +0.000 C 
BRANCH  14  15
ATOM     15  C   UNL     1       5.089   5.197  18.473  0.00  0.00    +0.000 C 
BRANCH  15  19
ATOM     16  N   UNL     1       1.617   4.366  19.526  0.00  0.00    +0.000 NA
ATOM     17  C   UNL     1       2.742   4.650  20.449  0.00  0.00    +0.000 C 
ATOM     18  C   UNL     1       4.004   3.793  20.178  0.00  0.00    +0.000 C 
ATOM     19  N   UNL     1       4.503   3.880  18.787  0.00  0.00    +0.000 NA
ATOM     20  C   UNL     1       3.380   3.588  17.867  0.00  0.00    +0.000 C 
ATOM     21  C   UNL     1       2.120   4.448  18.136  0.00  0.00    +0.000 C 
BRANCH  16  23
ATOM     22  C   UNL     1       0.606   2.260  18.615  0.00  0.00    +0.000 C 
ATOM     23  C   UNL     1       1.029   3.053  19.845  0.00  0.00    +0.000 C 
ENDBRANCH  16  23
ENDBRANCH  15  19
ENDBRANCH  14  15
ENDBRANCH  13  14
ENDBRANCH   1  13
TORSDOF 6
ENDMDL
MODEL 9
REMARK VINA RESULT:      -6.2      5.859      7.592
REMARK  Name = 
REMARK  7 active torsions:
REMARK  status: ('A' for Active; 'I' for Inactive)
REMARK    1  A    between atoms: C_1  and  C_2
REMARK    2  A    between atoms: C_2  and  N_3
REMARK    3  A    between atoms: N_6  and  C_7
REMARK    4  A    between atoms: C_7  and  C_8
REMARK    5  A    between atoms: C_8  and  C_9
REMARK    6  A    between atoms: C_9  and  N_10
REMARK    7  A    between atoms: C_11  and  C_13
REMARK                            x       y       z     vdW  Elec       q    Type
REMARK                         _______ _______ _______ _____ _____    ______ ____
ROOT
ATOM      1  N   UNL     1       8.826   9.590  18.051  0.00  0.00    +0.000 N 
ATOM      2  C   UNL     1       9.307  10.474  18.979  0.00  0.00    +0.000 C 
ATOM      3  O   UNL     1       9.134  10.350  20.192  0.00  0.00    +0.000 OA
ATOM      4  H   UNL     1       9.090   9.698  17.080  0.00  0.00    +0.000 HD
ENDROOT
BRANCH   2   5
ATOM      5  C   UNL     1      10.036  11.666  18.468  0.00  0.00    +0.000 A 
ATOM      6  C   UNL     1      11.412  11.717  18.762  0.00  0.00    +0.000 A 
ATOM      7  C   UNL     1      12.187  12.793  18.334  0.00  0.00    +0.000 A 
ATOM      8  C   UNL     1      11.591  13.812  17.606  0.00  0.00    +0.000 A 
ATOM      9  F   UNL     1      12.332  14.848  17.190  0.00  0.00    +0.000 F 
ATOM     10  C   UNL     1      10.239  13.778  17.293  0.00  0.00    +0.000 A 
ATOM     11  C   UNL     1       9.454  12.702  17.720  0.00  0.00    +0.000 A 
ATOM     12 CL   UNL     1       7.791  12.731  17.242  0.00  0.00    +0.000 Cl
ENDBRANCH   2   5
BRANCH   1  13
ATOM     13  C   UNL     1       8.193   8.351  18.434  0.00  0.00    +0.000 C 
BRANCH  13  14
ATOM     14  C   UNL     1       7.615   7.635  17.220  0.00  0.00    +0.000 C 
BRANCH  14  15
ATOM     15  C   UNL     1       6.299   6.941  17.560  0.00  0.00    +0.000 C 
BRANCH  15  19
ATOM     16  N   UNL     1       3.848   4.285  18.449  0.00  0.00    +0.000 NA
ATOM     17  C   UNL     1       5.136   4.522  19.144  0.00  0.00    +0.000 C 
ATOM     18  C   UNL     1       6.360   4.565  18.195  0.00  0.00    +0.000 C 
ATOM     19  N   UNL     1       6.232   5.544  17.092  0.00  0.00    +0.000 NA
ATOM     20  C   UNL     1       4.949   5.301  16.394  0.00  0.00    +0.000 C 
ATOM     21  C   UNL     1       3.726   5.262  17.343  0.00  0.00    +0.000 C 
BRANCH  16  23
ATOM     22  C   UNL     1       2.441   2.218  18.265  0.00  0.00    +0.000 C 
ATOM     23  C   UNL     1       3.780   2.888  17.987  0.00  0.00    +0.000 C 
ENDBRANCH  16  23
ENDBRANCH  15  19
ENDBRANCH  14  15
ENDBRANCH  13  14
ENDBRANCH   1  13
TORSDOF 6
ENDMDL
