MODEL 1
REMARK VINA RESULT:      -8.1      0.000      0.000
REMARK  Name = 
REMARK  7 active torsions:
REMARK  status: ('A' for Active; 'I' for Inactive)
REMARK    1  A    between atoms: C_1  and  C_2
REMARK    2  A    between atoms: C_2  and  C_3
REMARK    3  A    between atoms: C_2  and  C_19
REMARK    4  A    between atoms: C_3  and  N_4
REMARK    5  A    between atoms: N_4  and  S_5
REMARK    6  A    between atoms: S_5  and  C_8
REMARK    7  A    between atoms: N_17  and  C_18
REMARK                            x       y       z     vdW  Elec       q    Type
REMARK                         _______ _______ _______ _____ _____    ______ ____
ROOT
ATOM      1  S   UNL     1       3.725   3.330  18.706  0.00  0.00    +0.000 S 
ATOM      2  O   UNL     1       3.838   3.251  17.282  0.00  0.00    +0.000 OA
ATOM      3  O   UNL     1       3.051   2.303  19.488  0.00  0.00    +0.000 OA
ENDROOT
BRANCH   1   4
ATOM      4  C   UNL     1       2.983   4.895  19.105  0.00  0.00    +0.000 A 
ATOM      5  C   UNL     1       2.437   5.111  20.390  0.00  0.00    +0.000 A 
ATOM      6  C   UNL     1       1.889   6.357  20.719  0.00  0.00    +0.000 A 
ATOM      7  C   UNL     1       1.910   7.346  19.753  0.00  0.00    +0.000 A 
ATOM      8  C   UNL     1       2.445   7.125  18.484  0.00  0.00    +0.000 A 
ATOM      9  C   UNL     1       2.978   5.898  18.131  0.00  0.00    +0.000 A 
ATOM     10  C   UNL     1       2.353   8.382  17.673  0.00  0.00    +0.000 C 
ATOM     11  C   UNL     1       1.680   9.356  18.644  0.00  0.00    +0.000 C 
ATOM     12  O   UNL     1       1.403  10.521  18.402  0.00  0.00    +0.000 OA
ATOM     13  N   UNL     1       1.457   8.664  19.838  0.00  0.00    +0.000 N 
ATOM     14  C   UNL     1       0.845   9.238  21.006  0.00  0.00    +0.000 C 
ENDBRANCH   1   4
BRANCH   1  15
ATOM     15  N   UNL     1       5.311   3.444  19.335  0.00  0.00    +0.000 NA
ATOM     16  H   UNL     1       5.310   3.030  20.266  0.00  0.00    +0.000 HD
BRANCH  15  17
ATOM     17  C   UNL     1       5.826   4.838  19.329  0.00  0.00    +0.000 C 
BRANCH  17  19
ATOM     18  C   UNL     1       7.820   6.306  18.836  0.00  0.00    +0.000 C 
ATOM     19  C   UNL     1       7.032   5.059  18.393  0.00  0.00    +0.000 C 
BRANCH  19  20
ATOM     20  C   UNL     1       6.618   5.132  16.922  0.00  0.00    +0.000 A 
ATOM     21  C   UNL     1       5.790   6.166  16.450  0.00  0.00    +0.000 A 
ATOM     22  C   UNL     1       5.298   6.148  15.138  0.00  0.00    +0.000 A 
ATOM     23  C   UNL     1       5.666   5.133  14.262  0.00  0.00    +0.000 A 
ATOM     24  C   UNL     1       6.549   4.151  14.686  0.00  0.00    +0.000 A 
ATOM     25  C   UNL     1       7.023   4.155  15.997  0.00  0.00    +0.000 A 
ENDBRANCH  19  20
ENDBRANCH  17  19
ENDBRANCH  15  17
ENDBRANCH   1  15
TORSDOF 5
ENDMDL
MODEL 2
REMARK VINA RESULT:      -8.0      1.039      2.337
REMARK  Name = 
REMARK  7 active torsions:
REMARK  status: ('A' for Active; 'I' for Inactive)
REMARK    1  A    between atoms: C_1  and  C_2
REMARK    2  A    between atoms: C_2  and  C_3
REMARK    3  A    between atoms: C_2  and  C_19
REMARK    4  A    between atoms: C_3  and  N_4
REMARK    5  A    between atoms: N_4  and  S_5
REMARK    6  A    between atoms: S_5  and  C_8
REMARK    7  A    between atoms: N_17  and  C_18
REMARK                            x       y       z     vdW  Elec       q    Type
REMARK                         _______ _______ _______ _____ _____    ______ ____
ROOT
ATOM      1  S   UNL     1       3.670   3.335  18.793  0.00  0.00    +0.000 S 
ATOM      2  O   UNL     1       2.681   2.333  19.051  0.00  0.00    +0.000 OA
ATOM      3  O   UNL     1       4.990   3.296  19.406  0.00  0.00    +0.000 OA
ENDROOT
BRANCH   1   4
ATOM      4  C   UNL     1       2.946   4.916  19.157  0.00  0.00    +0.000 A 
ATOM      5  C   UNL     1       2.342   5.145  20.414  0.00  0.00    +0.000 A 
ATOM      6  C   UNL     1       1.808   6.403  20.717  0.00  0.00    +0.000 A 
ATOM      7  C   UNL     1       1.900   7.392  19.754  0.00  0.00    +0.000 A 
ATOM      8  C   UNL     1       2.492   7.159  18.513  0.00  0.00    +0.000 A 
ATOM      9  C   UNL     1       3.013   5.920  18.185  0.00  0.00    +0.000 A 
ATOM     10  C   UNL     1       2.471   8.418  17.700  0.00  0.00    +0.000 C 
ATOM     11  C   UNL     1       1.773   9.407  18.638  0.00  0.00    +0.000 C 
ATOM     12  O   UNL     1       1.537  10.579  18.384  0.00  0.00    +0.000 OA
ATOM     13  N   UNL     1       1.475   8.721  19.818  0.00  0.00    +0.000 N 
ATOM     14  C   UNL     1       0.820   9.308  20.956  0.00  0.00    +0.000 C 
ENDBRANCH   1   4
BRANCH   1  15
ATOM     15  N   UNL     1       3.928   3.368  17.104  0.00  0.00    +0.000 NA
ATOM     16  H   UNL     1       3.514   2.526  16.706  0.00  0.00    +0.000 HD
BRANCH  15  17
ATOM     17  C   UNL     1       5.363   3.522  16.751  0.00  0.00    +0.000 C 
BRANCH  17  19
ATOM     18  C   UNL     1       6.415   4.647  14.750  0.00  0.00    +0.000 C 
ATOM     19  C   UNL     1       5.708   4.877  16.100  0.00  0.00    +0.000 C 
BRANCH  19  20
ATOM     20  C   UNL     1       6.525   5.776  17.031  0.00  0.00    +0.000 A 
ATOM     21  C   UNL     1       6.704   7.142  16.754  0.00  0.00    +0.000 A 
ATOM     22  C   UNL     1       7.568   7.925  17.530  0.00  0.00    +0.000 A 
ATOM     23  C   UNL     1       8.224   7.373  18.626  0.00  0.00    +0.000 A 
ATOM     24  C   UNL     1       7.994   6.048  18.964  0.00  0.00    +0.000 A 
ATOM     25  C   UNL     1       7.151   5.262  18.181  0.00  0.00    +0.000 A 
ENDBRANCH  19  20
ENDBRANCH  17  19
ENDBRANCH  15  17
ENDBRANCH   1  15
TORSDOF 5
ENDMDL
MODEL 3
REMARK VINA RESULT:      -7.9      1.563      3.036
REMARK  Name = 
REMARK  7 active torsions:
REMARK  status: ('A' for Active; 'I' for Inactive)
REMARK    1  A    between atoms: C_1  and  C_2
REMARK    2  A    between atoms: C_2  and  C_3
REMARK    3  A    between atoms: C_2  and  C_19
REMARK    4  A    between atoms: C_3  and  N_4
REMARK    5  A    between atoms: N_4  and  S_5
REMARK    6  A    between atoms: S_5  and  C_8
REMARK    7  A    between atoms: N_17  and  C_18
REMARK                            x       y       z     vdW  Elec       q    Type
REMARK                         _______ _______ _______ _____ _____    ______ ____
ROOT
ATOM      1  S   UNL     1       2.573   4.221  19.124  0.00  0.00    +0.000 S 
ATOM      2  O   UNL     1       1.346   3.528  19.376  0.00  0.00    +0.000 OA
ATOM      3  O   UNL     1       3.790   3.937  19.871  0.00  0.00    +0.000 OA
ENDROOT
BRANCH   1   4
ATOM      4  C   UNL     1       2.248   5.963  19.252  0.00  0.00    +0.000 A 
ATOM      5  C   UNL     1       2.355   6.788  18.110  0.00  0.00    +0.000 A 
ATOM      6  C   UNL     1       2.059   8.153  18.200  0.00  0.00    +0.000 A 
ATOM      7  C   UNL     1       1.660   8.647  19.428  0.00  0.00    +0.000 A 
ATOM      8  C   UNL     1       1.561   7.829  20.555  0.00  0.00    +0.000 A 
ATOM      9  C   UNL     1       1.863   6.481  20.493  0.00  0.00    +0.000 A 
ATOM     10  C   UNL     1       1.080   8.636  21.722  0.00  0.00    +0.000 C 
ATOM     11  C   UNL     1       0.927  10.035  21.119  0.00  0.00    +0.000 C 
ATOM     12  O   UNL     1       0.551  11.030  21.721  0.00  0.00    +0.000 OA
ATOM     13  N   UNL     1       1.288   9.949  19.772  0.00  0.00    +0.000 N 
ATOM     14  C   UNL     1       1.273  11.056  18.854  0.00  0.00    +0.000 C 
ENDBRANCH   1   4
BRANCH   1  15
ATOM     15  N   UNL     1       2.958   3.984  17.475  0.00  0.00    +0.000 NA
ATOM     16  H   UNL     1       2.461   3.156  17.152  0.00  0.00    +0.000 HD
BRANCH  15  17
ATOM     17  C   UNL     1       4.423   3.900  17.240  0.00  0.00    +0.000 C 
BRANCH  17  19
ATOM     18  C   UNL     1       5.533   4.705  15.119  0.00  0.00    +0.000 C 
ATOM     19  C   UNL     1       5.013   5.123  16.508  0.00  0.00    +0.000 C 
BRANCH  19  20
ATOM     20  C   UNL     1       6.089   5.829  17.336  0.00  0.00    +0.000 A 
ATOM     21  C   UNL     1       6.547   7.113  16.993  0.00  0.00    +0.000 A 
ATOM     22  C   UNL     1       7.630   7.693  17.666  0.00  0.00    +0.000 A 
ATOM     23  C   UNL     1       8.237   7.027  18.727  0.00  0.00    +0.000 A 
ATOM     24  C   UNL     1       7.744   5.796  19.133  0.00  0.00    +0.000 A 
ATOM     25  C   UNL     1       6.680   5.209  18.451  0.00  0.00    +0.000 A 
ENDBRANCH  19  20
ENDBRANCH  17  19
ENDBRANCH  15  17
ENDBRANCH   1  15
TORSDOF 5
ENDMDL
MODEL 4
REMARK VINA RESULT:      -7.9      1.270      2.542
REMARK  Name = 
REMARK  7 active torsions:
REMARK  status: ('A' for Active; 'I' for Inactive)
REMARK    1  A    between atoms: C_1  and  C_2
REMARK    2  A    between atoms: C_2  and  C_3
REMARK    3  A    between atoms: C_2  and  C_19
REMARK    4  A    between atoms: C_3  and  N_4
REMARK    5  A    between atoms: N_4  and  S_5
REMARK    6  A    between atoms: S_5  and  C_8
REMARK    7  A    between atoms: N_17  and  C_18
REMARK                            x       y       z     vdW  Elec       q    Type
REMARK                         _______ _______ _______ _____ _____    ______ ____
ROOT
ATOM      1  S   UNL     1       3.083   4.014  18.963  0.00  0.00    +0.000 S 
ATOM      2  O   UNL     1       2.060   3.068  19.287  0.00  0.00    +0.000 OA
ATOM      3  O   UNL     1       4.424   3.927  19.524  0.00  0.00    +0.000 OA
ENDROOT
BRANCH   1   4
ATOM      4  C   UNL     1       2.450   5.637  19.313  0.00  0.00    +0.000 A 
ATOM      5  C   UNL     1       1.898   5.922  20.582  0.00  0.00    +0.000 A 
ATOM      6  C   UNL     1       1.436   7.211  20.873  0.00  0.00    +0.000 A 
ATOM      7  C   UNL     1       1.546   8.174  19.887  0.00  0.00    +0.000 A 
ATOM      8  C   UNL     1       2.087   7.886  18.634  0.00  0.00    +0.000 A 
ATOM      9  C   UNL     1       2.536   6.616  18.318  0.00  0.00    +0.000 A 
ATOM     10  C   UNL     1       2.102   9.127  17.794  0.00  0.00    +0.000 C 
ATOM     11  C   UNL     1       1.484  10.170  18.731  0.00  0.00    +0.000 C 
ATOM     12  O   UNL     1       1.297  11.346  18.458  0.00  0.00    +0.000 OA
ATOM     13  N   UNL     1       1.189   9.523  19.935  0.00  0.00    +0.000 N 
ATOM     14  C   UNL     1       0.599  10.166  21.078  0.00  0.00    +0.000 C 
ENDBRANCH   1   4
BRANCH   1  15
ATOM     15  N   UNL     1       3.273   3.994  17.265  0.00  0.00    +0.000 NA
ATOM     16  H   UNL     1       2.547   3.395  16.875  0.00  0.00    +0.000 HD
BRANCH  15  17
ATOM     17  C   UNL     1       4.638   3.582  16.850  0.00  0.00    +0.000 C 
BRANCH  17  19
ATOM     18  C   UNL     1       6.069   3.990  14.809  0.00  0.00    +0.000 C 
ATOM     19  C   UNL     1       5.395   4.647  16.029  0.00  0.00    +0.000 C 
BRANCH  19  20
ATOM     20  C   UNL     1       6.391   5.436  16.881  0.00  0.00    +0.000 A 
ATOM     21  C   UNL     1       7.142   4.809  17.890  0.00  0.00    +0.000 A 
ATOM     22  C   UNL     1       7.943   5.560  18.761  0.00  0.00    +0.000 A 
ATOM     23  C   UNL     1       8.051   6.938  18.604  0.00  0.00    +0.000 A 
ATOM     24  C   UNL     1       7.383   7.562  17.561  0.00  0.00    +0.000 A 
ATOM     25  C   UNL     1       6.569   6.819  16.708  0.00  0.00    +0.000 A 
ENDBRANCH  19  20
ENDBRANCH  17  19
ENDBRANCH  15  17
ENDBRANCH   1  15
TORSDOF 5
ENDMDL
MODEL 5
REMARK VINA RESULT:      -7.9      1.703      3.226
REMARK  Name = 
REMARK  7 active torsions:
REMARK  status: ('A' for Active; 'I' for Inactive)
REMARK    1  A    between atoms: C_1  and  C_2
REMARK    2  A    between atoms: C_2  and  C_3
REMARK    3  A    between atoms: C_2  and  C_19
REMARK    4  A    between atoms: C_3  and  N_4
REMARK    5  A    between atoms: N_4  and  S_5
REMARK    6  A    between atoms: S_5  and  C_8
REMARK    7  A    between atoms: N_17  and  C_18
REMARK                            x       y       z     vdW  Elec       q    Type
REMARK                         _______ _______ _______ _____ _____    ______ ____
ROOT
ATOM      1  S   UNL     1       2.821   4.761  19.057  0.00  0.00    +0.000 S 
ATOM      2  O   UNL     1       1.701   3.946  19.418  0.00  0.00    +0.000 OA
ATOM      3  O   UNL     1       4.131   4.590  19.669  0.00  0.00    +0.000 OA
ENDROOT
BRANCH   1   4
ATOM      4  C   UNL     1       2.341   6.460  19.258  0.00  0.00    +0.000 A 
ATOM      5  C   UNL     1       2.369   7.337  18.151  0.00  0.00    +0.000 A 
ATOM      6  C   UNL     1       1.952   8.666  18.298  0.00  0.00    +0.000 A 
ATOM      7  C   UNL     1       1.516   9.071  19.547  0.00  0.00    +0.000 A 
ATOM      8  C   UNL     1       1.497   8.202  20.638  0.00  0.00    +0.000 A 
ATOM      9  C   UNL     1       1.918   6.889  20.520  0.00  0.00    +0.000 A 
ATOM     10  C   UNL     1       0.951   8.913  21.839  0.00  0.00    +0.000 C 
ATOM     11  C   UNL     1       0.670  10.317  21.295  0.00  0.00    +0.000 C 
ATOM     12  O   UNL     1       0.210  11.247  21.938  0.00  0.00    +0.000 OA
ATOM     13  N   UNL     1       1.031  10.319  19.944  0.00  0.00    +0.000 N 
ATOM     14  C   UNL     1       0.912  11.457  19.073  0.00  0.00    +0.000 C 
ENDBRANCH   1   4
BRANCH   1  15
ATOM     15  N   UNL     1       3.053   4.585  17.373  0.00  0.00    +0.000 NA
ATOM     16  H   UNL     1       2.239   4.104  16.992  0.00  0.00    +0.000 HD
BRANCH  15  17
ATOM     17  C   UNL     1       4.329   3.898  17.043  0.00  0.00    +0.000 C 
BRANCH  17  19
ATOM     18  C   UNL     1       5.928   3.810  15.091  0.00  0.00    +0.000 C 
ATOM     19  C   UNL     1       5.274   4.723  16.146  0.00  0.00    +0.000 C 
BRANCH  19  20
ATOM     20  C   UNL     1       6.313   5.499  16.958  0.00  0.00    +0.000 A 
ATOM     21  C   UNL     1       7.085   4.866  17.947  0.00  0.00    +0.000 A 
ATOM     22  C   UNL     1       7.929   5.608  18.783  0.00  0.00    +0.000 A 
ATOM     23  C   UNL     1       8.058   6.983  18.612  0.00  0.00    +0.000 A 
ATOM     24  C   UNL     1       7.367   7.611  17.587  0.00  0.00    +0.000 A 
ATOM     25  C   UNL     1       6.511   6.878  16.768  0.00  0.00    +0.000 A 
ENDBRANCH  19  20
ENDBRANCH  17  19
ENDBRANCH  15  17
ENDBRANCH   1  15
TORSDOF 5
ENDMDL
MODEL 6
REMARK VINA RESULT:      -7.7      3.207      4.809
REMARK  Name = 
REMARK  7 active torsions:
REMARK  status: ('A' for Active; 'I' for Inactive)
REMARK    1  A    between atoms: C_1  and  C_2
REMARK    2  A    between atoms: C_2  and  C_3
REMARK    3  A    between atoms: C_2  and  C_19
REMARK    4  A    between atoms: C_3  and  N_4
REMARK    5  A    between atoms: N_4  and  S_5
REMARK    6  A    between atoms: S_5  and  C_8
REMARK    7  A    between atoms: N_17  and  C_18
REMARK                            x       y       z     vdW  Elec       q    Type
REMARK                         _______ _______ _______ _____ _____    ______ ____
ROOT
ATOM      1  S   UNL     1       7.085   5.382  17.159  0.00  0.00    +0.000 S 
ATOM      2  O   UNL     1       7.823   4.181  16.914  0.00  0.00    +0.000 OA
ATOM      3  O   UNL     1       7.641   6.491  17.921  0.00  0.00    +0.000 OA
ENDROOT
BRANCH   1   4
ATOM      4  C   UNL     1       5.540   4.925  17.908  0.00  0.00    +0.000 A 
ATOM      5  C   UNL     1       5.095   5.590  19.072  0.00  0.00    +0.000 A 
ATOM      6  C   UNL     1       3.859   5.260  19.640  0.00  0.00    +0.000 A 
ATOM      7  C   UNL     1       3.107   4.278  19.022  0.00  0.00    +0.000 A 
ATOM      8  C   UNL     1       3.554   3.619  17.876  0.00  0.00    +0.000 A 
ATOM      9  C   UNL     1       4.778   3.918  17.306  0.00  0.00    +0.000 A 
ATOM     10  C   UNL     1       2.518   2.636  17.423  0.00  0.00    +0.000 C 
ATOM     11  C   UNL     1       1.415   2.807  18.473  0.00  0.00    +0.000 C 
ATOM     12  O   UNL     1       0.359   2.194  18.499  0.00  0.00    +0.000 OA
ATOM     13  N   UNL     1       1.845   3.789  19.370  0.00  0.00    +0.000 N 
ATOM     14  C   UNL     1       1.084   4.244  20.502  0.00  0.00    +0.000 C 
ENDBRANCH   1   4
BRANCH   1  15
ATOM     15  N   UNL     1       6.641   6.022  15.637  0.00  0.00    +0.000 NA
ATOM     16  H   UNL     1       6.044   6.833  15.799  0.00  0.00    +0.000 HD
BRANCH  15  17
ATOM     17  C   UNL     1       6.003   5.010  14.758  0.00  0.00    +0.000 C 
BRANCH  17  19
ATOM     18  C   UNL     1       7.902   5.426  13.146  0.00  0.00    +0.000 C 
ATOM     19  C   UNL     1       6.968   4.357  13.746  0.00  0.00    +0.000 C 
BRANCH  19  20
ATOM     20  C   UNL     1       6.228   3.567  12.665  0.00  0.00    +0.000 A 
ATOM     21  C   UNL     1       4.903   3.879  12.314  0.00  0.00    +0.000 A 
ATOM     22  C   UNL     1       4.184   3.065  11.430  0.00  0.00    +0.000 A 
ATOM     23  C   UNL     1       4.790   1.961  10.840  0.00  0.00    +0.000 A 
ATOM     24  C   UNL     1       6.123   1.687  11.110  0.00  0.00    +0.000 A 
ATOM     25  C   UNL     1       6.833   2.483  12.006  0.00  0.00    +0.000 A 
ENDBRANCH  19  20
ENDBRANCH  17  19
ENDBRANCH  15  17
ENDBRANCH   1  15
TORSDOF 5
ENDMDL
MODEL 7
REMARK VINA RESULT:      -7.7      2.466      4.642
REMARK  Name = 
REMARK  7 active torsions:
REMARK  status: ('A' for Active; 'I' for Inactive)
REMARK    1  A    between atoms: C_1  and  C_2
REMARK    2  A    between atoms: C_2  and  C_3
REMARK    3  A    between atoms: C_2  and  C_19
REMARK    4  A    between atoms: C_3  and  N_4
REMARK    5  A    between atoms: N_4  and  S_5
REMARK    6  A    between atoms: S_5  and  C_8
REMARK    7  A    between atoms: N_17  and  C_18
REMARK                            x       y       z     vdW  Elec       q    Type
REMARK                         _______ _______ _______ _____ _____    ______ ____
ROOT
ATOM      1  S   UNL     1       5.783   4.807  17.664  0.00  0.00    +0.000 S 
ATOM      2  O   UNL     1       6.219   4.150  18.859  0.00  0.00    +0.000 OA
ATOM      3  O   UNL     1       6.715   5.466  16.759  0.00  0.00    +0.000 OA
ENDROOT
BRANCH   1   4
ATOM      4  C   UNL     1       4.536   5.988  18.119  0.00  0.00    +0.000 A 
ATOM      5  C   UNL     1       4.247   7.076  17.265  0.00  0.00    +0.000 A 
ATOM      6  C   UNL     1       3.237   7.983  17.603  0.00  0.00    +0.000 A 
ATOM      7  C   UNL     1       2.545   7.770  18.781  0.00  0.00    +0.000 A 
ATOM      8  C   UNL     1       2.838   6.698  19.624  0.00  0.00    +0.000 A 
ATOM      9  C   UNL     1       3.842   5.797  19.319  0.00  0.00    +0.000 A 
ATOM     10  C   UNL     1       1.909   6.712  20.799  0.00  0.00    +0.000 C 
ATOM     11  C   UNL     1       1.046   7.948  20.526  0.00  0.00    +0.000 C 
ATOM     12  O   UNL     1       0.139   8.351  21.238  0.00  0.00    +0.000 OA
ATOM     13  N   UNL     1       1.489   8.506  19.323  0.00  0.00    +0.000 N 
ATOM     14  C   UNL     1       0.925   9.682  18.718  0.00  0.00    +0.000 C 
ENDBRANCH   1   4
BRANCH   1  15
ATOM     15  N   UNL     1       4.945   3.649  16.727  0.00  0.00    +0.000 NA
ATOM     16  H   UNL     1       4.203   4.132  16.222  0.00  0.00    +0.000 HD
BRANCH  15  17
ATOM     17  C   UNL     1       4.438   2.516  17.542  0.00  0.00    +0.000 C 
BRANCH  17  19
ATOM     18  C   UNL     1       2.268   3.531  16.745  0.00  0.00    +0.000 C 
ATOM     19  C   UNL     1       2.900   2.461  17.655  0.00  0.00    +0.000 C 
BRANCH  19  20
ATOM     20  C   UNL     1       2.422   2.581  19.104  0.00  0.00    +0.000 A 
ATOM     21  C   UNL     1       1.092   2.922  19.405  0.00  0.00    +0.000 A 
ATOM     22  C   UNL     1       0.697   3.171  20.726  0.00  0.00    +0.000 A 
ATOM     23  C   UNL     1       1.605   3.031  21.770  0.00  0.00    +0.000 A 
ATOM     24  C   UNL     1       2.899   2.613  21.499  0.00  0.00    +0.000 A 
ATOM     25  C   UNL     1       3.300   2.386  20.184  0.00  0.00    +0.000 A 
ENDBRANCH  19  20
ENDBRANCH  17  19
ENDBRANCH  15  17
ENDBRANCH   1  15
TORSDOF 5
ENDMDL
MODEL 8
REMARK VINA RESULT:      -7.6      1.455      2.114
REMARK  Name = 
REMARK  7 active torsions:
REMARK  status: ('A' for Active; 'I' for Inactive)
REMARK    1  A    between atoms: C_1  and  C_2
REMARK    2  A    between atoms: C_2  and  C_3
REMARK    3  A    between atoms: C_2  and  C_19
REMARK    4  A    between atoms: C_3  and  N_4
REMARK    5  A    between atoms: N_4  and  S_5
REMARK    6  A    between atoms: S_5  and  C_8
REMARK    7  A    between atoms: N_17  and  C_18
REMARK                            x       y       z     vdW  Elec       q    Type
REMARK                         _______ _______ _______ _____ _____    ______ ____
ROOT
ATOM      1  S   UNL     1       3.737   3.929  18.670  0.00  0.00    +0.000 S 
ATOM      2  O   UNL     1       2.820   2.847  18.865  0.00  0.00    +0.000 OA
ATOM      3  O   UNL     1       5.052   3.952  19.295  0.00  0.00    +0.000 OA
ENDROOT
BRANCH   1   4
ATOM      4  C   UNL     1       2.899   5.434  19.104  0.00  0.00    +0.000 A 
ATOM      5  C   UNL     1       2.287   5.562  20.371  0.00  0.00    +0.000 A 
ATOM      6  C   UNL     1       1.662   6.762  20.730  0.00  0.00    +0.000 A 
ATOM      7  C   UNL     1       1.676   7.797  19.813  0.00  0.00    +0.000 A 
ATOM      8  C   UNL     1       2.277   7.663  18.561  0.00  0.00    +0.000 A 
ATOM      9  C   UNL     1       2.887   6.482  18.178  0.00  0.00    +0.000 A 
ATOM     10  C   UNL     1       2.158   8.952  17.805  0.00  0.00    +0.000 C 
ATOM     11  C   UNL     1       1.393   9.844  18.788  0.00  0.00    +0.000 C 
ATOM     12  O   UNL     1       1.069  11.005  18.586  0.00  0.00    +0.000 OA
ATOM     13  N   UNL     1       1.152   9.086  19.937  0.00  0.00    +0.000 N 
ATOM     14  C   UNL     1       0.461   9.572  21.100  0.00  0.00    +0.000 C 
ENDBRANCH   1   4
BRANCH   1  15
ATOM     15  N   UNL     1       4.006   4.067  16.987  0.00  0.00    +0.000 NA
ATOM     16  H   UNL     1       3.357   3.440  16.513  0.00  0.00    +0.000 HD
BRANCH  15  17
ATOM     17  C   UNL     1       5.421   3.814  16.614  0.00  0.00    +0.000 C 
BRANCH  17  19
ATOM     18  C   UNL     1       5.191   6.235  15.934  0.00  0.00    +0.000 C 
ATOM     19  C   UNL     1       6.098   4.990  15.880  0.00  0.00    +0.000 C 
BRANCH  19  20
ATOM     20  C   UNL     1       6.492   4.628  14.446  0.00  0.00    +0.000 A 
ATOM     21  C   UNL     1       7.532   5.303  13.784  0.00  0.00    +0.000 A 
ATOM     22  C   UNL     1       7.793   5.067  12.428  0.00  0.00    +0.000 A 
ATOM     23  C   UNL     1       7.059   4.115  11.727  0.00  0.00    +0.000 A 
ATOM     24  C   UNL     1       6.086   3.379  12.387  0.00  0.00    +0.000 A 
ATOM     25  C   UNL     1       5.812   3.628  13.730  0.00  0.00    +0.000 A 
ENDBRANCH  19  20
ENDBRANCH  17  19
ENDBRANCH  15  17
ENDBRANCH   1  15
TORSDOF 5
ENDMDL
MODEL 9
REMARK VINA RESULT:      -7.5      2.658      5.637
REMARK  Name = 
REMARK  7 active torsions:
REMARK  status: ('A' for Active; 'I' for Inactive)
REMARK    1  A    between atoms: C_1  and  C_2
REMARK    2  A    between atoms: C_2  and  C_3
REMARK    3  A    between atoms: C_2  and  C_19
REMARK    4  A    between atoms: C_3  and  N_4
REMARK    5  A    between atoms: N_4  and  S_5
REMARK    6  A    between atoms: S_5  and  C_8
REMARK    7  A    between atoms: N_17  and  C_18
REMARK                            x       y       z     vdW  Elec       q    Type
REMARK                         _______ _______ _______ _____ _____    ______ ____
ROOT
ATOM      1  S   UNL     1       4.100   2.196  20.170  0.00  0.00    +0.000 S 
ATOM      2  O   UNL     1       5.092   1.684  21.065  0.00  0.00    +0.000 OA
ATOM      3  O   UNL     1       3.283   1.324  19.338  0.00  0.00    +0.000 OA
ENDROOT
BRANCH   1   4
ATOM      4  C   UNL     1       4.890   3.381  19.107  0.00  0.00    +0.000 A 
ATOM      5  C   UNL     1       5.430   4.568  19.649  0.00  0.00    +0.000 A 
ATOM      6  C   UNL     1       6.089   5.483  18.820  0.00  0.00    +0.000 A 
ATOM      7  C   UNL     1       6.191   5.177  17.475  0.00  0.00    +0.000 A 
ATOM      8  C   UNL     1       5.651   4.006  16.943  0.00  0.00    +0.000 A 
ATOM      9  C   UNL     1       4.982   3.095  17.740  0.00  0.00    +0.000 A 
ATOM     10  C   UNL     1       5.943   3.938  15.475  0.00  0.00    +0.000 C 
ATOM     11  C   UNL     1       6.715   5.238  15.229  0.00  0.00    +0.000 C 
ATOM     12  O   UNL     1       7.160   5.605  14.152  0.00  0.00    +0.000 OA
ATOM     13  N   UNL     1       6.814   5.901  16.455  0.00  0.00    +0.000 N 
ATOM     14  C   UNL     1       7.477   7.163  16.645  0.00  0.00    +0.000 C 
ENDBRANCH   1   4
BRANCH   1  15
ATOM     15  N   UNL     1       3.009   3.127  21.100  0.00  0.00    +0.000 NA
ATOM     16  H   UNL     1       3.355   3.152  22.059  0.00  0.00    +0.000 HD
BRANCH  15  17
ATOM     17  C   UNL     1       1.613   2.628  21.009  0.00  0.00    +0.000 C 
BRANCH  17  19
ATOM     18  C   UNL     1       0.458   2.434  18.772  0.00  0.00    +0.000 C 
ATOM     19  C   UNL     1       0.749   3.365  19.965  0.00  0.00    +0.000 C 
BRANCH  19  20
ATOM     20  C   UNL     1       1.377   4.688  19.522  0.00  0.00    +0.000 A 
ATOM     21  C   UNL     1       1.809   4.882  18.199  0.00  0.00    +0.000 A 
ATOM     22  C   UNL     1       2.512   6.038  17.836  0.00  0.00    +0.000 A 
ATOM     23  C   UNL     1       2.746   7.042  18.771  0.00  0.00    +0.000 A 
ATOM     24  C   UNL     1       2.254   6.903  20.060  0.00  0.00    +0.000 A 
ATOM     25  C   UNL     1       1.573   5.745  20.428  0.00  0.00    +0.000 A 
ENDBRANCH  19  20
ENDBRANCH  17  19
ENDBRANCH  15  17
ENDBRANCH   1  15
TORSDOF 5
ENDMDL
