MODEL 1
REMARK VINA RESULT:      -8.5      0.000      0.000
REMARK  Name = 
REMARK  2 active torsions:
REMARK  status: ('A' for Active; 'I' for Inactive)
REMARK    1  A    between atoms: C_6  and  N_7
REMARK    2  A    between atoms: N_7  and  C_8
REMARK                            x       y       z     vdW  Elec       q    Type
REMARK                         _______ _______ _______ _____ _____    ______ ____
ROOT
ATOM      1  C   UNL     1       6.228   4.527  17.743  0.00  0.00    +0.000 A 
ATOM      2  N   UNL     1       6.740   5.654  18.329  0.00  0.00    +0.000 N 
ATOM      3  C   UNL     1       7.451   6.596  17.620  0.00  0.00    +0.000 A 
ATOM      4  N   UNL     1       7.655   6.470  16.271  0.00  0.00    +0.000 NA
ATOM      5  C   UNL     1       7.135   5.386  15.658  0.00  0.00    +0.000 A 
ATOM      6  C   UNL     1       7.108   5.002  14.343  0.00  0.00    +0.000 A 
ATOM      7  C   UNL     1       7.626   5.583  13.189  0.00  0.00    +0.000 A 
ATOM      8  C   UNL     1       7.395   4.926  11.966  0.00  0.00    +0.000 A 
ATOM      9  C   UNL     1       6.659   3.719  11.925  0.00  0.00    +0.000 A 
ATOM     10  C   UNL     1       6.147   3.154  13.107  0.00  0.00    +0.000 A 
ATOM     11  C   UNL     1       6.386   3.818  14.306  0.00  0.00    +0.000 A 
ATOM     12  N   UNL     1       5.956   3.431  15.530  0.00  0.00    +0.000 NA
ATOM     13  C   UNL     1       6.417   4.383  16.371  0.00  0.00    +0.000 A 
ATOM     14  H   UNL     1       6.603   5.802  19.355  0.00  0.00    +0.000 HD
ENDROOT
BRANCH   1  15
ATOM     15  N   UNL     1       5.475   3.582  18.504  0.00  0.00    +0.000 N 
ATOM     16  H   UNL     1       5.984   2.797  18.938  0.00  0.00    +0.000 HD
BRANCH  15  22
ATOM     17 BR   UNL     1       1.350   2.655  21.753  0.00  0.00    +0.000 Br
ATOM     18  C   UNL     1       2.112   3.315  20.130  0.00  0.00    +0.000 A 
ATOM     19  C   UNL     1       1.304   3.923  19.166  0.00  0.00    +0.000 A 
ATOM     20  C   UNL     1       1.873   4.424  17.991  0.00  0.00    +0.000 A 
ATOM     21  C   UNL     1       3.253   4.323  17.778  0.00  0.00    +0.000 A 
ATOM     22  C   UNL     1       4.069   3.689  18.727  0.00  0.00    +0.000 A 
ATOM     23  C   UNL     1       3.486   3.194  19.910  0.00  0.00    +0.000 A 
ENDBRANCH  15  22
ENDBRANCH   1  15
TORSDOF 2
ENDMDL
MODEL 2
REMARK VINA RESULT:      -8.2      1.415      1.658
REMARK  Name = 
REMARK  2 active torsions:
REMARK  status: ('A' for Active; 'I' for Inactive)
REMARK    1  A    between atoms: C_6  and  N_7
REMARK    2  A    between atoms: N_7  and  C_8
REMARK                            x       y       z     vdW  Elec       q    Type
REMARK                         _______ _______ _______ _____ _____    ______ ____
ROOT
ATOM      1  C   UNL     1       6.032   4.510  18.033  0.00  0.00    +0.000 A 
ATOM      2  N   UNL     1       6.618   5.581  18.655  0.00  0.00    +0.000 N 
ATOM      3  C   UNL     1       7.425   6.472  17.983  0.00  0.00    +0.000 A 
ATOM      4  N   UNL     1       7.657   6.352  16.639  0.00  0.00    +0.000 NA
ATOM      5  C   UNL     1       7.068   5.325  15.991  0.00  0.00    +0.000 A 
ATOM      6  C   UNL     1       7.048   4.967  14.669  0.00  0.00    +0.000 A 
ATOM      7  C   UNL     1       7.646   5.521  13.540  0.00  0.00    +0.000 A 
ATOM      8  C   UNL     1       7.398   4.907  12.299  0.00  0.00    +0.000 A 
ATOM      9  C   UNL     1       6.566   3.765  12.215  0.00  0.00    +0.000 A 
ATOM     10  C   UNL     1       5.975   3.225  13.371  0.00  0.00    +0.000 A 
ATOM     11  C   UNL     1       6.233   3.847  14.589  0.00  0.00    +0.000 A 
ATOM     12  N   UNL     1       5.737   3.477  15.793  0.00  0.00    +0.000 NA
ATOM     13  C   UNL     1       6.249   4.374  16.664  0.00  0.00    +0.000 A 
ATOM     14  H   UNL     1       6.464   5.723  19.679  0.00  0.00    +0.000 HD
ENDROOT
BRANCH   1  15
ATOM     15  N   UNL     1       5.182   3.618  18.755  0.00  0.00    +0.000 N 
ATOM     16  H   UNL     1       5.486   2.638  18.857  0.00  0.00    +0.000 HD
BRANCH  15  22
ATOM     17 BR   UNL     1       1.882   7.611  20.018  0.00  0.00    +0.000 Br
ATOM     18  C   UNL     1       2.380   5.767  20.002  0.00  0.00    +0.000 A 
ATOM     19  C   UNL     1       1.545   4.805  20.574  0.00  0.00    +0.000 A 
ATOM     20  C   UNL     1       1.904   3.454  20.538  0.00  0.00    +0.000 A 
ATOM     21  C   UNL     1       3.101   3.060  19.926  0.00  0.00    +0.000 A 
ATOM     22  C   UNL     1       3.960   4.021  19.373  0.00  0.00    +0.000 A 
ATOM     23  C   UNL     1       3.583   5.378  19.410  0.00  0.00    +0.000 A 
ENDBRANCH  15  22
ENDBRANCH   1  15
TORSDOF 2
ENDMDL
MODEL 3
REMARK VINA RESULT:      -8.2      5.287      8.348
REMARK  Name = 
REMARK  2 active torsions:
REMARK  status: ('A' for Active; 'I' for Inactive)
REMARK    1  A    between atoms: C_6  and  N_7
REMARK    2  A    between atoms: N_7  and  C_8
REMARK                            x       y       z     vdW  Elec       q    Type
REMARK                         _______ _______ _______ _____ _____    ______ ____
ROOT
ATOM      1  C   UNL     1       2.298   7.554  19.556  0.00  0.00    +0.000 A 
ATOM      2  N   UNL     1       2.528   7.948  18.264  0.00  0.00    +0.000 N 
ATOM      3  C   UNL     1       1.920   9.054  17.712  0.00  0.00    +0.000 A 
ATOM      4  N   UNL     1       1.075   9.844  18.444  0.00  0.00    +0.000 NA
ATOM      5  C   UNL     1       0.854   9.501  19.731  0.00  0.00    +0.000 A 
ATOM      6  C   UNL     1       0.128  10.099  20.727  0.00  0.00    +0.000 A 
ATOM      7  C   UNL     1      -0.650  11.253  20.753  0.00  0.00    +0.000 A 
ATOM      8  C   UNL     1      -1.256  11.607  21.972  0.00  0.00    +0.000 A 
ATOM      9  C   UNL     1      -1.070  10.809  23.126  0.00  0.00    +0.000 A 
ATOM     10  C   UNL     1      -0.278   9.648  23.072  0.00  0.00    +0.000 A 
ATOM     11  C   UNL     1       0.311   9.315  21.856  0.00  0.00    +0.000 A 
ATOM     12  N   UNL     1       1.114   8.249  21.626  0.00  0.00    +0.000 NA
ATOM     13  C   UNL     1       1.448   8.349  20.321  0.00  0.00    +0.000 A 
ATOM     14  H   UNL     1       3.173   7.384  17.666  0.00  0.00    +0.000 HD
ENDROOT
BRANCH   1  15
ATOM     15  N   UNL     1       2.963   6.415  20.104  0.00  0.00    +0.000 N 
ATOM     16  H   UNL     1       3.825   6.573  20.648  0.00  0.00    +0.000 HD
BRANCH  15  22
ATOM     17 BR   UNL     1       3.756   1.507  18.177  0.00  0.00    +0.000 Br
ATOM     18  C   UNL     1       2.734   2.804  19.138  0.00  0.00    +0.000 A 
ATOM     19  C   UNL     1       1.521   2.449  19.731  0.00  0.00    +0.000 A 
ATOM     20  C   UNL     1       0.789   3.398  20.453  0.00  0.00    +0.000 A 
ATOM     21  C   UNL     1       1.272   4.705  20.586  0.00  0.00    +0.000 A 
ATOM     22  C   UNL     1       2.476   5.080  19.972  0.00  0.00    +0.000 A 
ATOM     23  C   UNL     1       3.207   4.113  19.253  0.00  0.00    +0.000 A 
ENDBRANCH  15  22
ENDBRANCH   1  15
TORSDOF 2
ENDMDL
MODEL 4
REMARK VINA RESULT:      -8.1      3.634      4.931
REMARK  Name = 
REMARK  2 active torsions:
REMARK  status: ('A' for Active; 'I' for Inactive)
REMARK    1  A    between atoms: C_6  and  N_7
REMARK    2  A    between atoms: N_7  and  C_8
REMARK                            x       y       z     vdW  Elec       q    Type
REMARK                         _______ _______ _______ _____ _____    ______ ____
ROOT
ATOM      1  C   UNL     1       2.564   5.418  19.173  0.00  0.00    +0.000 A 
ATOM      2  N   UNL     1       1.557   4.491  19.107  0.00  0.00    +0.000 N 
ATOM      3  C   UNL     1       1.514   3.518  18.134  0.00  0.00    +0.000 A 
ATOM      4  N   UNL     1       2.504   3.404  17.194  0.00  0.00    +0.000 NA
ATOM      5  C   UNL     1       3.527   4.282  17.252  0.00  0.00    +0.000 A 
ATOM      6  C   UNL     1       4.677   4.399  16.517  0.00  0.00    +0.000 A 
ATOM      7  C   UNL     1       5.178   3.670  15.442  0.00  0.00    +0.000 A 
ATOM      8  C   UNL     1       6.430   4.047  14.922  0.00  0.00    +0.000 A 
ATOM      9  C   UNL     1       7.144   5.132  15.482  0.00  0.00    +0.000 A 
ATOM     10  C   UNL     1       6.615   5.852  16.568  0.00  0.00    +0.000 A 
ATOM     11  C   UNL     1       5.376   5.464  17.067  0.00  0.00    +0.000 A 
ATOM     12  N   UNL     1       4.727   6.028  18.113  0.00  0.00    +0.000 NA
ATOM     13  C   UNL     1       3.585   5.315  18.232  0.00  0.00    +0.000 A 
ATOM     14  H   UNL     1       0.782   4.529  19.807  0.00  0.00    +0.000 HD
ENDROOT
BRANCH   1  15
ATOM     15  N   UNL     1       2.589   6.400  20.209  0.00  0.00    +0.000 N 
ATOM     16  H   UNL     1       3.185   6.220  21.031  0.00  0.00    +0.000 HD
BRANCH  15  22
ATOM     17 BR   UNL     1      -0.414   9.988  22.767  0.00  0.00    +0.000 Br
ATOM     18  C   UNL     1       0.487   9.332  21.216  0.00  0.00    +0.000 A 
ATOM     19  C   UNL     1       0.461  10.059  20.024  0.00  0.00    +0.000 A 
ATOM     20  C   UNL     1       1.143   9.585  18.899  0.00  0.00    +0.000 A 
ATOM     21  C   UNL     1       1.857   8.381  18.963  0.00  0.00    +0.000 A 
ATOM     22  C   UNL     1       1.866   7.629  20.147  0.00  0.00    +0.000 A 
ATOM     23  C   UNL     1       1.181   8.122  21.276  0.00  0.00    +0.000 A 
ENDBRANCH  15  22
ENDBRANCH   1  15
TORSDOF 2
ENDMDL
MODEL 5
REMARK VINA RESULT:      -7.9      5.495      8.540
REMARK  Name = 
REMARK  2 active torsions:
REMARK  status: ('A' for Active; 'I' for Inactive)
REMARK    1  A    between atoms: C_6  and  N_7
REMARK    2  A    between atoms: N_7  and  C_8
REMARK                            x       y       z     vdW  Elec       q    Type
REMARK                         _______ _______ _______ _____ _____    ______ ____
ROOT
ATOM      1  C   UNL     1       2.216   7.691  19.357  0.00  0.00    +0.000 A 
ATOM      2  N   UNL     1       2.492   8.225  18.126  0.00  0.00    +0.000 N 
ATOM      3  C   UNL     1       1.950   9.418  17.702  0.00  0.00    +0.000 A 
ATOM      4  N   UNL     1       1.127  10.156  18.511  0.00  0.00    +0.000 NA
ATOM      5  C   UNL     1       0.862   9.672  19.742  0.00  0.00    +0.000 A 
ATOM      6  C   UNL     1       0.144  10.182  20.792  0.00  0.00    +0.000 A 
ATOM      7  C   UNL     1      -0.579  11.362  20.945  0.00  0.00    +0.000 A 
ATOM      8  C   UNL     1      -1.194  11.596  22.188  0.00  0.00    +0.000 A 
ATOM      9  C   UNL     1      -1.072  10.657  23.240  0.00  0.00    +0.000 A 
ATOM     10  C   UNL     1      -0.335   9.473  23.058  0.00  0.00    +0.000 A 
ATOM     11  C   UNL     1       0.264   9.260  21.821  0.00  0.00    +0.000 A 
ATOM     12  N   UNL     1       1.020   8.191  21.477  0.00  0.00    +0.000 NA
ATOM     13  C   UNL     1       1.388   8.429  20.198  0.00  0.00    +0.000 A 
ATOM     14  H   UNL     1       3.123   7.706  17.474  0.00  0.00    +0.000 HD
ENDROOT
BRANCH   1  15
ATOM     15  N   UNL     1       2.814   6.462  19.774  0.00  0.00    +0.000 N 
ATOM     16  H   UNL     1       2.760   6.213  20.773  0.00  0.00    +0.000 HD
BRANCH  15  22
ATOM     17 BR   UNL     1       7.351   4.695  17.601  0.00  0.00    +0.000 Br
ATOM     18  C   UNL     1       5.453   4.662  17.820  0.00  0.00    +0.000 A 
ATOM     19  C   UNL     1       4.678   3.734  17.122  0.00  0.00    +0.000 A 
ATOM     20  C   UNL     1       3.292   3.701  17.305  0.00  0.00    +0.000 A 
ATOM     21  C   UNL     1       2.677   4.594  18.191  0.00  0.00    +0.000 A 
ATOM     22  C   UNL     1       3.443   5.549  18.876  0.00  0.00    +0.000 A 
ATOM     23  C   UNL     1       4.840   5.568  18.688  0.00  0.00    +0.000 A 
ENDBRANCH  15  22
ENDBRANCH   1  15
TORSDOF 2
ENDMDL
MODEL 6
REMARK VINA RESULT:      -7.9      2.835      6.725
REMARK  Name = 
REMARK  2 active torsions:
REMARK  status: ('A' for Active; 'I' for Inactive)
REMARK    1  A    between atoms: C_6  and  N_7
REMARK    2  A    between atoms: N_7  and  C_8
REMARK                            x       y       z     vdW  Elec       q    Type
REMARK                         _______ _______ _______ _____ _____    ______ ____
ROOT
ATOM      1  C   UNL     1       5.268   5.201  16.763  0.00  0.00    +0.000 A 
ATOM      2  N   UNL     1       5.192   6.557  16.583  0.00  0.00    +0.000 N 
ATOM      3  C   UNL     1       4.222   7.327  17.185  0.00  0.00    +0.000 A 
ATOM      4  N   UNL     1       3.296   6.776  18.031  0.00  0.00    +0.000 NA
ATOM      5  C   UNL     1       3.365   5.447  18.254  0.00  0.00    +0.000 A 
ATOM      6  C   UNL     1       2.645   4.617  19.073  0.00  0.00    +0.000 A 
ATOM      7  C   UNL     1       1.579   4.851  19.938  0.00  0.00    +0.000 A 
ATOM      8  C   UNL     1       1.075   3.757  20.665  0.00  0.00    +0.000 A 
ATOM      9  C   UNL     1       1.641   2.469  20.514  0.00  0.00    +0.000 A 
ATOM     10  C   UNL     1       2.716   2.261  19.632  0.00  0.00    +0.000 A 
ATOM     11  C   UNL     1       3.201   3.355  18.922  0.00  0.00    +0.000 A 
ATOM     12  N   UNL     1       4.235   3.342  18.048  0.00  0.00    +0.000 NA
ATOM     13  C   UNL     1       4.341   4.622  17.626  0.00  0.00    +0.000 A 
ATOM     14  H   UNL     1       5.881   7.027  15.954  0.00  0.00    +0.000 HD
ENDROOT
BRANCH   1  15
ATOM     15  N   UNL     1       6.301   4.435  16.141  0.00  0.00    +0.000 N 
ATOM     16  H   UNL     1       6.897   3.849  16.743  0.00  0.00    +0.000 HD
BRANCH  15  22
ATOM     17 BR   UNL     1       4.583   2.875  11.340  0.00  0.00    +0.000 Br
ATOM     18  C   UNL     1       5.834   3.750  12.489  0.00  0.00    +0.000 A 
ATOM     19  C   UNL     1       6.957   4.386  11.955  0.00  0.00    +0.000 A 
ATOM     20  C   UNL     1       7.856   5.044  12.800  0.00  0.00    +0.000 A 
ATOM     21  C   UNL     1       7.633   5.071  14.182  0.00  0.00    +0.000 A 
ATOM     22  C   UNL     1       6.523   4.412  14.731  0.00  0.00    +0.000 A 
ATOM     23  C   UNL     1       5.621   3.758  13.869  0.00  0.00    +0.000 A 
ENDBRANCH  15  22
ENDBRANCH   1  15
TORSDOF 2
ENDMDL
MODEL 7
REMARK VINA RESULT:      -7.9      1.033      1.091
REMARK  Name = 
REMARK  2 active torsions:
REMARK  status: ('A' for Active; 'I' for Inactive)
REMARK    1  A    between atoms: C_6  and  N_7
REMARK    2  A    between atoms: N_7  and  C_8
REMARK                            x       y       z     vdW  Elec       q    Type
REMARK                         _______ _______ _______ _____ _____    ______ ____
ROOT
ATOM      1  C   UNL     1       6.327   4.798  17.988  0.00  0.00    +0.000 A 
ATOM      2  N   UNL     1       6.925   5.930  18.476  0.00  0.00    +0.000 N 
ATOM      3  C   UNL     1       7.655   6.781  17.676  0.00  0.00    +0.000 A 
ATOM      4  N   UNL     1       7.793   6.555  16.333  0.00  0.00    +0.000 NA
ATOM      5  C   UNL     1       7.188   5.465  15.815  0.00  0.00    +0.000 A 
ATOM      6  C   UNL     1       7.084   4.998  14.532  0.00  0.00    +0.000 A 
ATOM      7  C   UNL     1       7.582   5.471  13.321  0.00  0.00    +0.000 A 
ATOM      8  C   UNL     1       7.263   4.750  12.155  0.00  0.00    +0.000 A 
ATOM      9  C   UNL     1       6.462   3.586  12.226  0.00  0.00    +0.000 A 
ATOM     10  C   UNL     1       5.971   3.131  13.462  0.00  0.00    +0.000 A 
ATOM     11  C   UNL     1       6.298   3.857  14.603  0.00  0.00    +0.000 A 
ATOM     12  N   UNL     1       5.901   3.576  15.867  0.00  0.00    +0.000 NA
ATOM     13  C   UNL     1       6.448   4.554  16.622  0.00  0.00    +0.000 A 
ATOM     14  H   UNL     1       6.841   6.153  19.494  0.00  0.00    +0.000 HD
ENDROOT
BRANCH   1  15
ATOM     15  N   UNL     1       5.558   3.949  18.841  0.00  0.00    +0.000 N 
ATOM     16  H   UNL     1       6.031   3.139  19.270  0.00  0.00    +0.000 HD
BRANCH  15  22
ATOM     17 BR   UNL     1       0.572   2.061  18.944  0.00  0.00    +0.000 Br
ATOM     18  C   UNL     1       1.872   3.427  19.251  0.00  0.00    +0.000 A 
ATOM     19  C   UNL     1       1.493   4.651  19.806  0.00  0.00    +0.000 A 
ATOM     20  C   UNL     1       2.453   5.637  20.049  0.00  0.00    +0.000 A 
ATOM     21  C   UNL     1       3.799   5.401  19.742  0.00  0.00    +0.000 A 
ATOM     22  C   UNL     1       4.187   4.185  19.159  0.00  0.00    +0.000 A 
ATOM     23  C   UNL     1       3.210   3.197  18.924  0.00  0.00    +0.000 A 
ENDBRANCH  15  22
ENDBRANCH   1  15
TORSDOF 2
ENDMDL
MODEL 8
REMARK VINA RESULT:      -7.7      2.444      2.685
REMARK  Name = 
REMARK  2 active torsions:
REMARK  status: ('A' for Active; 'I' for Inactive)
REMARK    1  A    between atoms: C_6  and  N_7
REMARK    2  A    between atoms: N_7  and  C_8
REMARK                            x       y       z     vdW  Elec       q    Type
REMARK                         _______ _______ _______ _____ _____    ______ ____
ROOT
ATOM      1  C   UNL     1       5.342   5.350  17.455  0.00  0.00    +0.000 A 
ATOM      2  N   UNL     1       6.202   6.235  18.051  0.00  0.00    +0.000 N 
ATOM      3  C   UNL     1       7.355   6.669  17.437  0.00  0.00    +0.000 A 
ATOM      4  N   UNL     1       7.686   6.262  16.172  0.00  0.00    +0.000 NA
ATOM      5  C   UNL     1       6.844   5.416  15.545  0.00  0.00    +0.000 A 
ATOM      6  C   UNL     1       6.853   4.880  14.284  0.00  0.00    +0.000 A 
ATOM      7  C   UNL     1       7.744   5.004  13.222  0.00  0.00    +0.000 A 
ATOM      8  C   UNL     1       7.439   4.324  12.028  0.00  0.00    +0.000 A 
ATOM      9  C   UNL     1       6.262   3.545  11.925  0.00  0.00    +0.000 A 
ATOM     10  C   UNL     1       5.379   3.437  13.013  0.00  0.00    +0.000 A 
ATOM     11  C   UNL     1       5.699   4.117  14.185  0.00  0.00    +0.000 A 
ATOM     12  N   UNL     1       4.960   4.140  15.319  0.00  0.00    +0.000 NA
ATOM     13  C   UNL     1       5.657   4.930  16.165  0.00  0.00    +0.000 A 
ATOM     14  H   UNL     1       5.989   6.583  19.013  0.00  0.00    +0.000 HD
ENDROOT
BRANCH   1  15
ATOM     15  N   UNL     1       4.143   4.937  18.112  0.00  0.00    +0.000 N 
ATOM     16  H   UNL     1       3.909   3.933  18.103  0.00  0.00    +0.000 HD
BRANCH  15  22
ATOM     17 BR   UNL     1       1.628   9.638  18.159  0.00  0.00    +0.000 Br
ATOM     18  C   UNL     1       2.084   7.954  18.937  0.00  0.00    +0.000 A 
ATOM     19  C   UNL     1       1.559   7.584  20.177  0.00  0.00    +0.000 A 
ATOM     20  C   UNL     1       1.879   6.340  20.730  0.00  0.00    +0.000 A 
ATOM     21  C   UNL     1       2.724   5.460  20.042  0.00  0.00    +0.000 A 
ATOM     22  C   UNL     1       3.278   5.833  18.809  0.00  0.00    +0.000 A 
ATOM     23  C   UNL     1       2.943   7.086  18.259  0.00  0.00    +0.000 A 
ENDBRANCH  15  22
ENDBRANCH   1  15
TORSDOF 2
ENDMDL
MODEL 9
REMARK VINA RESULT:      -7.6      4.399      5.880
REMARK  Name = 
REMARK  2 active torsions:
REMARK  status: ('A' for Active; 'I' for Inactive)
REMARK    1  A    between atoms: C_6  and  N_7
REMARK    2  A    between atoms: N_7  and  C_8
REMARK                            x       y       z     vdW  Elec       q    Type
REMARK                         _______ _______ _______ _____ _____    ______ ____
ROOT
ATOM      1  C   UNL     1       2.080   6.286  20.146  0.00  0.00    +0.000 A 
ATOM      2  N   UNL     1       1.275   5.260  20.569  0.00  0.00    +0.000 N 
ATOM      3  C   UNL     1       1.230   4.045  19.922  0.00  0.00    +0.000 A 
ATOM      4  N   UNL     1       2.020   3.786  18.834  0.00  0.00    +0.000 NA
ATOM      5  C   UNL     1       2.848   4.765  18.413  0.00  0.00    +0.000 A 
ATOM      6  C   UNL     1       3.788   4.805  17.418  0.00  0.00    +0.000 A 
ATOM      7  C   UNL     1       4.199   3.860  16.481  0.00  0.00    +0.000 A 
ATOM      8  C   UNL     1       5.230   4.223  15.595  0.00  0.00    +0.000 A 
ATOM      9  C   UNL     1       5.819   5.508  15.664  0.00  0.00    +0.000 A 
ATOM     10  C   UNL     1       5.384   6.443  16.620  0.00  0.00    +0.000 A 
ATOM     11  C   UNL     1       4.364   6.065  17.487  0.00  0.00    +0.000 A 
ATOM     12  N   UNL     1       3.836   6.826  18.474  0.00  0.00    +0.000 NA
ATOM     13  C   UNL     1       2.897   6.040  19.047  0.00  0.00    +0.000 A 
ATOM     14  H   UNL     1       0.659   5.404  21.401  0.00  0.00    +0.000 HD
ENDROOT
BRANCH   1  15
ATOM     15  N   UNL     1       2.118   7.526  20.854  0.00  0.00    +0.000 N 
ATOM     16  H   UNL     1       2.854   7.654  21.565  0.00  0.00    +0.000 HD
BRANCH  15  22
ATOM     17 BR   UNL     1      -1.216  11.169  22.864  0.00  0.00    +0.000 Br
ATOM     18  C   UNL     1      -0.326  10.308  21.409  0.00  0.00    +0.000 A 
ATOM     19  C   UNL     1      -0.533  10.743  20.098  0.00  0.00    +0.000 A 
ATOM     20  C   UNL     1       0.140  10.123  19.040  0.00  0.00    +0.000 A 
ATOM     21  C   UNL     1       1.026   9.068  19.291  0.00  0.00    +0.000 A 
ATOM     22  C   UNL     1       1.220   8.606  20.601  0.00  0.00    +0.000 A 
ATOM     23  C   UNL     1       0.541   9.243  21.659  0.00  0.00    +0.000 A 
ENDBRANCH  15  22
ENDBRANCH   1  15
TORSDOF 2
ENDMDL
