MODEL 1
REMARK VINA RESULT:      -6.8      0.000      0.000
REMARK  Name = 
REMARK  18 active torsions:
REMARK  status: ('A' for Active; 'I' for Inactive)
REMARK    1  A    between atoms: C_1  and  C_2
REMARK    2  A    between atoms: C_2  and  O_4
REMARK    3  A    between atoms: O_4  and  C_5
REMARK    4  A    between atoms: C_5  and  C_6
REMARK    5  A    between atoms: C_8  and  O_9
REMARK    6  A    between atoms: O_9  and  C_10
REMARK    7  A    between atoms: C_10  and  C_11
REMARK    8  A    between atoms: C_10  and  C_12
REMARK    9  A    between atoms: C_10  and  C_13
REMARK   10  A    between atoms: C_14  and  O_15
REMARK   11  A    between atoms: O_15  and  C_16
REMARK   12  A    between atoms: C_16  and  C_17
REMARK   13  A    between atoms: C_19  and  O_20
REMARK   14  A    between atoms: O_20  and  C_21
REMARK   15  A    between atoms: C_21  and  C_22
REMARK   16  A    between atoms: C_24  and  O_25
REMARK   17  A    between atoms: O_25  and  C_26
REMARK   18  A    between atoms: C_26  and  C_27
REMARK                            x       y       z     vdW  Elec       q    Type
REMARK                         _______ _______ _______ _____ _____    ______ ____
ROOT
ATOM      1  C   UNL     1       4.693   4.397  16.359  0.00  0.00    +0.000 C 
ATOM      2  O   UNL     1       4.955   5.804  16.264  0.00  0.00    +0.000 OA
ATOM      3  C   UNL     1       4.856   6.473  17.518  0.00  0.00    +0.000 C 
ATOM      4  C   UNL     1       3.349   6.409  17.884  0.00  0.00    +0.000 C 
ATOM      5  C   UNL     1       2.942   4.947  18.145  0.00  0.00    +0.000 C 
ATOM      6  C   UNL     1       3.295   4.052  16.916  0.00  0.00    +0.000 C 
ENDROOT
BRANCH   1   7
ATOM      7  C   UNL     1       4.961   3.850  14.950  0.00  0.00    +0.000 C 
BRANCH   7   8
ATOM      8  O   UNL     1       6.352   3.638  14.686  0.00  0.00    +0.000 OA
BRANCH   8  10
ATOM      9  C   UNL     1       6.495   3.675  12.352  0.00  0.00    +0.000 C 
ATOM     10  C   UNL     1       6.856   4.344  13.641  0.00  0.00    +0.000 C 
ATOM     11  O   UNL     1       7.486   5.388  13.712  0.00  0.00    +0.000 OA
ENDBRANCH   8  10
ENDBRANCH   7   8
ENDBRANCH   1   7
BRANCH   3  12
ATOM     12  O   UNL     1       5.712   5.878  18.491  0.00  0.00    +0.000 OA
BRANCH  12  13
ATOM     13  C   UNL     1       7.143   5.908  18.297  0.00  0.00    +0.000 C 
ATOM     14  C   UNL     1       7.602   7.188  17.596  0.00  0.00    +0.000 C 
ATOM     15  C   UNL     1       7.736   5.868  19.718  0.00  0.00    +0.000 C 
ATOM     16  C   UNL     1       7.730   4.701  17.554  0.00  0.00    +0.000 C 
ENDBRANCH  12  13
ENDBRANCH   3  12
BRANCH   4  17
ATOM     17  O   UNL     1       2.920   7.407  18.841  0.00  0.00    +0.000 OA
BRANCH  17  18
ATOM     18  C   UNL     1       2.149   8.459  18.496  0.00  0.00    +0.000 C 
ATOM     19  C   UNL     1       1.316   8.878  19.679  0.00  0.00    +0.000 C 
ATOM     20  O   UNL     1       2.113   8.998  17.403  0.00  0.00    +0.000 OA
ENDBRANCH  17  18
ENDBRANCH   4  17
BRANCH   5  21
ATOM     21  O   UNL     1       1.556   4.789  18.561  0.00  0.00    +0.000 OA
BRANCH  21  22
ATOM     22  C   UNL     1       1.262   4.090  19.688  0.00  0.00    +0.000 C 
ATOM     23  C   UNL     1       1.847   4.761  20.896  0.00  0.00    +0.000 C 
ATOM     24  O   UNL     1       0.618   3.053  19.727  0.00  0.00    +0.000 OA
ENDBRANCH  21  22
ENDBRANCH   5  21
BRANCH   6  25
ATOM     25  O   UNL     1       3.335   2.662  17.348  0.00  0.00    +0.000 OA
BRANCH  25  26
ATOM     26  C   UNL     1       3.988   2.377  18.502  0.00  0.00    +0.000 C 
ATOM     27  C   UNL     1       3.648   0.988  18.953  0.00  0.00    +0.000 C 
ATOM     28  O   UNL     1       4.750   3.123  19.097  0.00  0.00    +0.000 OA
ENDBRANCH  25  26
ENDBRANCH   6  25
TORSDOF 11
ENDMDL
MODEL 2
REMARK VINA RESULT:      -6.7      1.503      5.207
REMARK  Name = 
REMARK  18 active torsions:
REMARK  status: ('A' for Active; 'I' for Inactive)
REMARK    1  A    between atoms: C_1  and  C_2
REMARK    2  A    between atoms: C_2  and  O_4
REMARK    3  A    between atoms: O_4  and  C_5
REMARK    4  A    between atoms: C_5  and  C_6
REMARK    5  A    between atoms: C_8  and  O_9
REMARK    6  A    between atoms: O_9  and  C_10
REMARK    7  A    between atoms: C_10  and  C_11
REMARK    8  A    between atoms: C_10  and  C_12
REMARK    9  A    between atoms: C_10  and  C_13
REMARK   10  A    between atoms: C_14  and  O_15
REMARK   11  A    between atoms: O_15  and  C_16
REMARK   12  A    between atoms: C_16  and  C_17
REMARK   13  A    between atoms: C_19  and  O_20
REMARK   14  A    between atoms: O_20  and  C_21
REMARK   15  A    between atoms: C_21  and  C_22
REMARK   16  A    between atoms: C_24  and  O_25
REMARK   17  A    between atoms: O_25  and  C_26
REMARK   18  A    between atoms: C_26  and  C_27
REMARK                            x       y       z     vdW  Elec       q    Type
REMARK                         _______ _______ _______ _____ _____    ______ ____
ROOT
ATOM      1  C   UNL     1       2.924   6.591  17.634  0.00  0.00    +0.000 C 
ATOM      2  O   UNL     1       4.181   7.213  17.336  0.00  0.00    +0.000 OA
ATOM      3  C   UNL     1       5.210   6.272  17.044  0.00  0.00    +0.000 C 
ATOM      4  C   UNL     1       5.476   5.544  18.388  0.00  0.00    +0.000 C 
ATOM      5  C   UNL     1       4.238   4.716  18.782  0.00  0.00    +0.000 C 
ATOM      6  C   UNL     1       2.968   5.623  18.836  0.00  0.00    +0.000 C 
ENDROOT
BRANCH   1   7
ATOM      7  C   UNL     1       1.938   7.755  17.802  0.00  0.00    +0.000 C 
BRANCH   7   8
ATOM      8  O   UNL     1       2.491   9.018  17.412  0.00  0.00    +0.000 OA
BRANCH   8  10
ATOM      9  C   UNL     1       0.904   9.662  19.006  0.00  0.00    +0.000 C 
ATOM     10  C   UNL     1       1.978  10.097  18.058  0.00  0.00    +0.000 C 
ATOM     11  O   UNL     1       2.339  11.256  17.926  0.00  0.00    +0.000 OA
ENDBRANCH   8  10
ENDBRANCH   7   8
ENDBRANCH   1   7
BRANCH   3  12
ATOM     12  O   UNL     1       4.829   5.400  15.981  0.00  0.00    +0.000 OA
BRANCH  12  13
ATOM     13  C   UNL     1       5.847   4.787  15.161  0.00  0.00    +0.000 C 
ATOM     14  C   UNL     1       7.160   5.572  15.189  0.00  0.00    +0.000 C 
ATOM     15  C   UNL     1       6.075   3.398  15.787  0.00  0.00    +0.000 C 
ATOM     16  C   UNL     1       5.453   4.538  13.700  0.00  0.00    +0.000 C 
ENDBRANCH  12  13
ENDBRANCH   3  12
BRANCH   4  17
ATOM     17  O   UNL     1       6.770   4.901  18.478  0.00  0.00    +0.000 OA
BRANCH  17  18
ATOM     18  C   UNL     1       7.839   5.498  19.045  0.00  0.00    +0.000 C 
ATOM     19  C   UNL     1       7.999   6.883  18.475  0.00  0.00    +0.000 C 
ATOM     20  O   UNL     1       8.576   5.009  19.884  0.00  0.00    +0.000 OA
ENDBRANCH  17  18
ENDBRANCH   4  17
BRANCH   5  21
ATOM     21  O   UNL     1       4.413   3.942  20.002  0.00  0.00    +0.000 OA
BRANCH  21  22
ATOM     22  C   UNL     1       4.505   2.588  19.937  0.00  0.00    +0.000 C 
ATOM     23  C   UNL     1       3.778   2.064  18.733  0.00  0.00    +0.000 C 
ATOM     24  O   UNL     1       5.089   1.881  20.744  0.00  0.00    +0.000 OA
ENDBRANCH  21  22
ENDBRANCH   5  21
BRANCH   6  25
ATOM     25  O   UNL     1       1.787   4.774  18.748  0.00  0.00    +0.000 OA
BRANCH  25  26
ATOM     26  C   UNL     1       1.197   4.390  19.907  0.00  0.00    +0.000 C 
ATOM     27  C   UNL     1       1.413   5.432  20.963  0.00  0.00    +0.000 C 
ATOM     28  O   UNL     1       0.572   3.355  20.084  0.00  0.00    +0.000 OA
ENDBRANCH  25  26
ENDBRANCH   6  25
TORSDOF 11
ENDMDL
MODEL 3
REMARK VINA RESULT:      -6.6      0.518      1.052
REMARK  Name = 
REMARK  18 active torsions:
REMARK  status: ('A' for Active; 'I' for Inactive)
REMARK    1  A    between atoms: C_1  and  C_2
REMARK    2  A    between atoms: C_2  and  O_4
REMARK    3  A    between atoms: O_4  and  C_5
REMARK    4  A    between atoms: C_5  and  C_6
REMARK    5  A    between atoms: C_8  and  O_9
REMARK    6  A    between atoms: O_9  and  C_10
REMARK    7  A    between atoms: C_10  and  C_11
REMARK    8  A    between atoms: C_10  and  C_12
REMARK    9  A    between atoms: C_10  and  C_13
REMARK   10  A    between atoms: C_14  and  O_15
REMARK   11  A    between atoms: O_15  and  C_16
REMARK   12  A    between atoms: C_16  and  C_17
REMARK   13  A    between atoms: C_19  and  O_20
REMARK   14  A    between atoms: O_20  and  C_21
REMARK   15  A    between atoms: C_21  and  C_22
REMARK   16  A    between atoms: C_24  and  O_25
REMARK   17  A    between atoms: O_25  and  C_26
REMARK   18  A    between atoms: C_26  and  C_27
REMARK                            x       y       z     vdW  Elec       q    Type
REMARK                         _______ _______ _______ _____ _____    ______ ____
ROOT
ATOM      1  C   UNL     1       4.754   4.378  16.362  0.00  0.00    +0.000 C 
ATOM      2  O   UNL     1       5.005   5.786  16.249  0.00  0.00    +0.000 OA
ATOM      3  C   UNL     1       4.926   6.466  17.499  0.00  0.00    +0.000 C 
ATOM      4  C   UNL     1       3.426   6.396  17.894  0.00  0.00    +0.000 C 
ATOM      5  C   UNL     1       3.034   4.933  18.177  0.00  0.00    +0.000 C 
ATOM      6  C   UNL     1       3.369   4.030  16.949  0.00  0.00    +0.000 C 
ENDROOT
BRANCH   1   7
ATOM      7  C   UNL     1       4.998   3.820  14.954  0.00  0.00    +0.000 C 
BRANCH   7   8
ATOM      8  O   UNL     1       6.387   3.629  14.659  0.00  0.00    +0.000 OA
BRANCH   8  10
ATOM      9  C   UNL     1       6.503   3.669  12.323  0.00  0.00    +0.000 C 
ATOM     10  C   UNL     1       6.858   4.349  13.608  0.00  0.00    +0.000 C 
ATOM     11  O   UNL     1       7.458   5.411  13.673  0.00  0.00    +0.000 OA
ENDBRANCH   8  10
ENDBRANCH   7   8
ENDBRANCH   1   7
BRANCH   3  12
ATOM     12  O   UNL     1       5.804   5.885  18.461  0.00  0.00    +0.000 OA
BRANCH  12  13
ATOM     13  C   UNL     1       7.231   6.062  18.323  0.00  0.00    +0.000 C 
ATOM     14  C   UNL     1       7.949   6.027  19.673  0.00  0.00    +0.000 C 
ATOM     15  C   UNL     1       7.696   4.866  17.471  0.00  0.00    +0.000 C 
ATOM     16  C   UNL     1       7.666   7.322  17.565  0.00  0.00    +0.000 C 
ENDBRANCH  12  13
ENDBRANCH   3  12
BRANCH   4  17
ATOM     17  O   UNL     1       3.010   7.400  18.850  0.00  0.00    +0.000 OA
BRANCH  17  18
ATOM     18  C   UNL     1       2.189   8.419  18.521  0.00  0.00    +0.000 C 
ATOM     19  C   UNL     1       1.373   8.812  19.724  0.00  0.00    +0.000 C 
ATOM     20  O   UNL     1       2.102   8.949  17.427  0.00  0.00    +0.000 OA
ENDBRANCH  17  18
ENDBRANCH   4  17
BRANCH   5  21
ATOM     21  O   UNL     1       1.657   4.771  18.620  0.00  0.00    +0.000 OA
BRANCH  21  22
ATOM     22  C   UNL     1       1.393   4.508  19.926  0.00  0.00    +0.000 C 
ATOM     23  C   UNL     1       0.665   3.203  20.069  0.00  0.00    +0.000 C 
ATOM     24  O   UNL     1       1.696   5.228  20.866  0.00  0.00    +0.000 OA
ENDBRANCH  21  22
ENDBRANCH   5  21
BRANCH   6  25
ATOM     25  O   UNL     1       3.426   2.644  17.393  0.00  0.00    +0.000 OA
BRANCH  25  26
ATOM     26  C   UNL     1       4.052   2.381  18.567  0.00  0.00    +0.000 C 
ATOM     27  C   UNL     1       3.467   1.151  19.195  0.00  0.00    +0.000 C 
ATOM     28  O   UNL     1       4.964   3.032  19.055  0.00  0.00    +0.000 OA
ENDBRANCH  25  26
ENDBRANCH   6  25
TORSDOF 11
ENDMDL
MODEL 4
REMARK VINA RESULT:      -6.5      1.396      4.444
REMARK  Name = 
REMARK  18 active torsions:
REMARK  status: ('A' for Active; 'I' for Inactive)
REMARK    1  A    between atoms: C_1  and  C_2
REMARK    2  A    between atoms: C_2  and  O_4
REMARK    3  A    between atoms: O_4  and  C_5
REMARK    4  A    between atoms: C_5  and  C_6
REMARK    5  A    between atoms: C_8  and  O_9
REMARK    6  A    between atoms: O_9  and  C_10
REMARK    7  A    between atoms: C_10  and  C_11
REMARK    8  A    between atoms: C_10  and  C_12
REMARK    9  A    between atoms: C_10  and  C_13
REMARK   10  A    between atoms: C_14  and  O_15
REMARK   11  A    between atoms: O_15  and  C_16
REMARK   12  A    between atoms: C_16  and  C_17
REMARK   13  A    between atoms: C_19  and  O_20
REMARK   14  A    between atoms: O_20  and  C_21
REMARK   15  A    between atoms: C_21  and  C_22
REMARK   16  A    between atoms: C_24  and  O_25
REMARK   17  A    between atoms: O_25  and  C_26
REMARK   18  A    between atoms: C_26  and  C_27
REMARK                            x       y       z     vdW  Elec       q    Type
REMARK                         _______ _______ _______ _____ _____    ______ ____
ROOT
ATOM      1  C   UNL     1       4.601   6.512  17.589  0.00  0.00    +0.000 C 
ATOM      2  O   UNL     1       3.256   6.449  17.093  0.00  0.00    +0.000 OA
ATOM      3  C   UNL     1       2.282   6.447  18.132  0.00  0.00    +0.000 C 
ATOM      4  C   UNL     1       2.468   5.084  18.850  0.00  0.00    +0.000 C 
ATOM      5  C   UNL     1       3.840   5.051  19.550  0.00  0.00    +0.000 C 
ATOM      6  C   UNL     1       4.983   5.348  18.529  0.00  0.00    +0.000 C 
ENDROOT
BRANCH   1   7
ATOM      7  C   UNL     1       5.479   6.620  16.335  0.00  0.00    +0.000 C 
BRANCH   7   8
ATOM      8  O   UNL     1       5.327   5.507  15.447  0.00  0.00    +0.000 OA
BRANCH   8  10
ATOM      9  C   UNL     1       6.195   3.846  14.046  0.00  0.00    +0.000 C 
ATOM     10  C   UNL     1       6.483   5.029  14.917  0.00  0.00    +0.000 C 
ATOM     11  O   UNL     1       7.599   5.495  15.084  0.00  0.00    +0.000 OA
ENDBRANCH   8  10
ENDBRANCH   7   8
ENDBRANCH   1   7
BRANCH   3  12
ATOM     12  O   UNL     1       2.437   7.576  18.990  0.00  0.00    +0.000 OA
BRANCH  12  13
ATOM     13  C   UNL     1       1.693   8.785  18.720  0.00  0.00    +0.000 C 
ATOM     14  C   UNL     1       0.559   8.551  17.720  0.00  0.00    +0.000 C 
ATOM     15  C   UNL     1       1.094   9.192  20.079  0.00  0.00    +0.000 C 
ATOM     16  C   UNL     1       2.530   9.979  18.245  0.00  0.00    +0.000 C 
ENDBRANCH  12  13
ENDBRANCH   3  12
BRANCH   4  17
ATOM     17  O   UNL     1       1.317   4.641  19.608  0.00  0.00    +0.000 OA
BRANCH  17  18
ATOM     18  C   UNL     1       0.956   3.344  19.688  0.00  0.00    +0.000 C 
ATOM     19  C   UNL     1       1.033   2.891  21.123  0.00  0.00    +0.000 C 
ATOM     20  O   UNL     1       0.622   2.630  18.758  0.00  0.00    +0.000 OA
ENDBRANCH  17  18
ENDBRANCH   4  17
BRANCH   5  21
ATOM     21  O   UNL     1       4.083   3.833  20.309  0.00  0.00    +0.000 OA
BRANCH  21  22
ATOM     22  C   UNL     1       4.338   2.669  19.656  0.00  0.00    +0.000 C 
ATOM     23  C   UNL     1       4.967   1.668  20.581  0.00  0.00    +0.000 C 
ATOM     24  O   UNL     1       4.099   2.455  18.477  0.00  0.00    +0.000 OA
ENDBRANCH  21  22
ENDBRANCH   5  21
BRANCH   6  25
ATOM     25  O   UNL     1       6.169   5.761  19.266  0.00  0.00    +0.000 OA
BRANCH  25  26
ATOM     26  C   UNL     1       7.379   5.526  18.701  0.00  0.00    +0.000 C 
ATOM     27  C   UNL     1       8.174   6.797  18.646  0.00  0.00    +0.000 C 
ATOM     28  O   UNL     1       7.784   4.447  18.297  0.00  0.00    +0.000 OA
ENDBRANCH  25  26
ENDBRANCH   6  25
TORSDOF 11
ENDMDL
MODEL 5
REMARK VINA RESULT:      -6.4      1.753      5.119
REMARK  Name = 
REMARK  18 active torsions:
REMARK  status: ('A' for Active; 'I' for Inactive)
REMARK    1  A    between atoms: C_1  and  C_2
REMARK    2  A    between atoms: C_2  and  O_4
REMARK    3  A    between atoms: O_4  and  C_5
REMARK    4  A    between atoms: C_5  and  C_6
REMARK    5  A    between atoms: C_8  and  O_9
REMARK    6  A    between atoms: O_9  and  C_10
REMARK    7  A    between atoms: C_10  and  C_11
REMARK    8  A    between atoms: C_10  and  C_12
REMARK    9  A    between atoms: C_10  and  C_13
REMARK   10  A    between atoms: C_14  and  O_15
REMARK   11  A    between atoms: O_15  and  C_16
REMARK   12  A    between atoms: C_16  and  C_17
REMARK   13  A    between atoms: C_19  and  O_20
REMARK   14  A    between atoms: O_20  and  C_21
REMARK   15  A    between atoms: C_21  and  C_22
REMARK   16  A    between atoms: C_24  and  O_25
REMARK   17  A    between atoms: O_25  and  C_26
REMARK   18  A    between atoms: C_26  and  C_27
REMARK                            x       y       z     vdW  Elec       q    Type
REMARK                         _______ _______ _______ _____ _____    ______ ____
ROOT
ATOM      1  C   UNL     1       2.650   6.557  18.050  0.00  0.00    +0.000 C 
ATOM      2  O   UNL     1       3.906   7.155  17.698  0.00  0.00    +0.000 OA
ATOM      3  C   UNL     1       4.934   6.195  17.475  0.00  0.00    +0.000 C 
ATOM      4  C   UNL     1       5.207   5.572  18.870  0.00  0.00    +0.000 C 
ATOM      5  C   UNL     1       3.971   4.777  19.332  0.00  0.00    +0.000 C 
ATOM      6  C   UNL     1       2.701   5.685  19.322  0.00  0.00    +0.000 C 
ENDROOT
BRANCH   1   7
ATOM      7  C   UNL     1       1.665   7.731  18.132  0.00  0.00    +0.000 C 
BRANCH   7   8
ATOM      8  O   UNL     1       2.095   8.877  17.389  0.00  0.00    +0.000 OA
BRANCH   8  10
ATOM      9  C   UNL     1       0.275  10.007  18.328  0.00  0.00    +0.000 C 
ATOM     10  C   UNL     1       1.707  10.075  17.899  0.00  0.00    +0.000 C 
ATOM     11  O   UNL     1       2.409  11.066  18.027  0.00  0.00    +0.000 OA
ENDBRANCH   8  10
ENDBRANCH   7   8
ENDBRANCH   1   7
BRANCH   3  12
ATOM     12  O   UNL     1       4.548   5.243  16.485  0.00  0.00    +0.000 OA
BRANCH  12  13
ATOM     13  C   UNL     1       5.563   4.567  15.711  0.00  0.00    +0.000 C 
ATOM     14  C   UNL     1       5.791   3.132  16.189  0.00  0.00    +0.000 C 
ATOM     15  C   UNL     1       5.012   4.540  14.273  0.00  0.00    +0.000 C 
ATOM     16  C   UNL     1       6.918   5.282  15.637  0.00  0.00    +0.000 C 
ENDBRANCH  12  13
ENDBRANCH   3  12
BRANCH   4  17
ATOM     17  O   UNL     1       6.502   4.938  19.003  0.00  0.00    +0.000 OA
BRANCH  17  18
ATOM     18  C   UNL     1       7.551   5.548  19.593  0.00  0.00    +0.000 C 
ATOM     19  C   UNL     1       8.028   6.678  18.719  0.00  0.00    +0.000 C 
ATOM     20  O   UNL     1       8.053   5.244  20.661  0.00  0.00    +0.000 OA
ENDBRANCH  17  18
ENDBRANCH   4  17
BRANCH   5  21
ATOM     21  O   UNL     1       4.153   4.099  20.607  0.00  0.00    +0.000 OA
BRANCH  21  22
ATOM     22  C   UNL     1       3.848   2.780  20.722  0.00  0.00    +0.000 C 
ATOM     23  C   UNL     1       4.465   1.993  19.604  0.00  0.00    +0.000 C 
ATOM     24  O   UNL     1       3.161   2.291  21.607  0.00  0.00    +0.000 OA
ENDBRANCH  21  22
ENDBRANCH   5  21
BRANCH   6  25
ATOM     25  O   UNL     1       1.521   4.832  19.307  0.00  0.00    +0.000 OA
BRANCH  25  26
ATOM     26  C   UNL     1       1.432   3.891  18.334  0.00  0.00    +0.000 C 
ATOM     27  C   UNL     1       0.897   2.613  18.906  0.00  0.00    +0.000 C 
ATOM     28  O   UNL     1       1.732   4.045  17.160  0.00  0.00    +0.000 OA
ENDBRANCH  25  26
ENDBRANCH   6  25
TORSDOF 11
ENDMDL
MODEL 6
REMARK VINA RESULT:      -6.4      1.421      6.206
REMARK  Name = 
REMARK  18 active torsions:
REMARK  status: ('A' for Active; 'I' for Inactive)
REMARK    1  A    between atoms: C_1  and  C_2
REMARK    2  A    between atoms: C_2  and  O_4
REMARK    3  A    between atoms: O_4  and  C_5
REMARK    4  A    between atoms: C_5  and  C_6
REMARK    5  A    between atoms: C_8  and  O_9
REMARK    6  A    between atoms: O_9  and  C_10
REMARK    7  A    between atoms: C_10  and  C_11
REMARK    8  A    between atoms: C_10  and  C_12
REMARK    9  A    between atoms: C_10  and  C_13
REMARK   10  A    between atoms: C_14  and  O_15
REMARK   11  A    between atoms: O_15  and  C_16
REMARK   12  A    between atoms: C_16  and  C_17
REMARK   13  A    between atoms: C_19  and  O_20
REMARK   14  A    between atoms: O_20  and  C_21
REMARK   15  A    between atoms: C_21  and  C_22
REMARK   16  A    between atoms: C_24  and  O_25
REMARK   17  A    between atoms: O_25  and  C_26
REMARK   18  A    between atoms: C_26  and  C_27
REMARK                            x       y       z     vdW  Elec       q    Type
REMARK                         _______ _______ _______ _____ _____    ______ ____
ROOT
ATOM      1  C   UNL     1       3.660   6.674  17.933  0.00  0.00    +0.000 C 
ATOM      2  O   UNL     1       2.454   5.935  17.686  0.00  0.00    +0.000 OA
ATOM      3  C   UNL     1       2.545   4.573  18.097  0.00  0.00    +0.000 C 
ATOM      4  C   UNL     1       3.569   3.932  17.123  0.00  0.00    +0.000 C 
ATOM      5  C   UNL     1       4.963   4.545  17.361  0.00  0.00    +0.000 C 
ATOM      6  C   UNL     1       4.907   6.099  17.228  0.00  0.00    +0.000 C 
ENDROOT
BRANCH   1   7
ATOM      7  C   UNL     1       3.324   8.118  17.537  0.00  0.00    +0.000 C 
BRANCH   7   8
ATOM      8  O   UNL     1       1.939   8.439  17.712  0.00  0.00    +0.000 OA
BRANCH   8  10
ATOM      9  C   UNL     1       0.349   9.884  18.638  0.00  0.00    +0.000 C 
ATOM     10  C   UNL     1       1.678   9.749  17.962  0.00  0.00    +0.000 C 
ATOM     11  O   UNL     1       2.413  10.691  17.712  0.00  0.00    +0.000 OA
ENDBRANCH   8  10
ENDBRANCH   7   8
ENDBRANCH   1   7
BRANCH   3  12
ATOM     12  O   UNL     1       2.913   4.470  19.471  0.00  0.00    +0.000 OA
BRANCH  12  13
ATOM     13  C   UNL     1       1.885   4.333  20.476  0.00  0.00    +0.000 C 
ATOM     14  C   UNL     1       2.354   3.496  21.668  0.00  0.00    +0.000 C 
ATOM     15  C   UNL     1       1.599   5.771  20.948  0.00  0.00    +0.000 C 
ATOM     16  C   UNL     1       0.548   3.772  19.976  0.00  0.00    +0.000 C 
ENDBRANCH  12  13
ENDBRANCH   3  12
BRANCH   4  17
ATOM     17  O   UNL     1       3.478   2.491  17.018  0.00  0.00    +0.000 OA
BRANCH  17  18
ATOM     18  C   UNL     1       2.979   1.722  18.007  0.00  0.00    +0.000 C 
ATOM     19  C   UNL     1       4.104   1.252  18.891  0.00  0.00    +0.000 C 
ATOM     20  O   UNL     1       1.806   1.435  18.174  0.00  0.00    +0.000 OA
ENDBRANCH  17  18
ENDBRANCH   4  17
BRANCH   5  21
ATOM     21  O   UNL     1       6.009   3.959  16.536  0.00  0.00    +0.000 OA
BRANCH  21  22
ATOM     22  C   UNL     1       6.426   4.602  15.414  0.00  0.00    +0.000 C 
ATOM     23  C   UNL     1       5.566   4.234  14.240  0.00  0.00    +0.000 C 
ATOM     24  O   UNL     1       7.373   5.371  15.353  0.00  0.00    +0.000 OA
ENDBRANCH  21  22
ENDBRANCH   5  21
BRANCH   6  25
ATOM     25  O   UNL     1       6.074   6.664  17.892  0.00  0.00    +0.000 OA
BRANCH  25  26
ATOM     26  C   UNL     1       6.603   5.978  18.935  0.00  0.00    +0.000 C 
ATOM     27  C   UNL     1       8.100   6.001  18.856  0.00  0.00    +0.000 C 
ATOM     28  O   UNL     1       5.972   5.424  19.822  0.00  0.00    +0.000 OA
ENDBRANCH  25  26
ENDBRANCH   6  25
TORSDOF 11
ENDMDL
MODEL 7
REMARK VINA RESULT:      -6.4      6.318     11.037
REMARK  Name = 
REMARK  18 active torsions:
REMARK  status: ('A' for Active; 'I' for Inactive)
REMARK    1  A    between atoms: C_1  and  C_2
REMARK    2  A    between atoms: C_2  and  O_4
REMARK    3  A    between atoms: O_4  and  C_5
REMARK    4  A    between atoms: C_5  and  C_6
REMARK    5  A    between atoms: C_8  and  O_9
REMARK    6  A    between atoms: O_9  and  C_10
REMARK    7  A    between atoms: C_10  and  C_11
REMARK    8  A    between atoms: C_10  and  C_12
REMARK    9  A    between atoms: C_10  and  C_13
REMARK   10  A    between atoms: C_14  and  O_15
REMARK   11  A    between atoms: O_15  and  C_16
REMARK   12  A    between atoms: C_16  and  C_17
REMARK   13  A    between atoms: C_19  and  O_20
REMARK   14  A    between atoms: O_20  and  C_21
REMARK   15  A    between atoms: C_21  and  C_22
REMARK   16  A    between atoms: C_24  and  O_25
REMARK   17  A    between atoms: O_25  and  C_26
REMARK   18  A    between atoms: C_26  and  C_27
REMARK                            x       y       z     vdW  Elec       q    Type
REMARK                         _______ _______ _______ _____ _____    ______ ____
ROOT
ATOM      1  C   UNL     1      -2.902  12.396  19.746  0.00  0.00    +0.000 C 
ATOM      2  O   UNL     1      -2.738  12.336  21.170  0.00  0.00    +0.000 OA
ATOM      3  C   UNL     1      -1.378  12.456  21.577  0.00  0.00    +0.000 C 
ATOM      4  C   UNL     1      -0.698  11.153  21.079  0.00  0.00    +0.000 C 
ATOM      5  C   UNL     1      -0.683  11.134  19.539  0.00  0.00    +0.000 C 
ATOM      6  C   UNL     1      -2.129  11.304  18.976  0.00  0.00    +0.000 C 
ENDROOT
BRANCH   1   7
ATOM      7  C   UNL     1      -4.420  12.367  19.523  0.00  0.00    +0.000 C 
BRANCH   7   8
ATOM      8  O   UNL     1      -5.161  12.849  20.650  0.00  0.00    +0.000 OA
BRANCH   8  10
ATOM      9  C   UNL     1      -6.958  11.664  19.733  0.00  0.00    +0.000 C 
ATOM     10  C   UNL     1      -6.257  12.115  20.976  0.00  0.00    +0.000 C 
ATOM     11  O   UNL     1      -6.622  11.827  22.105  0.00  0.00    +0.000 OA
ENDBRANCH   8  10
ENDBRANCH   7   8
ENDBRANCH   1   7
BRANCH   3  12
ATOM     12  O   UNL     1      -0.787  13.648  21.064  0.00  0.00    +0.000 OA
BRANCH  12  13
ATOM     13  C   UNL     1      -0.677  14.813  21.912  0.00  0.00    +0.000 C 
ATOM     14  C   UNL     1       0.681  15.503  21.769  0.00  0.00    +0.000 C 
ATOM     15  C   UNL     1      -1.783  15.765  21.421  0.00  0.00    +0.000 C 
ATOM     16  C   UNL     1      -0.951  14.569  23.401  0.00  0.00    +0.000 C 
ENDBRANCH  12  13
ENDBRANCH   3  12
BRANCH   4  17
ATOM     17  O   UNL     1       0.531  10.816  21.767  0.00  0.00    +0.000 OA
BRANCH  17  18
ATOM     18  C   UNL     1       0.642   9.736  22.567  0.00  0.00    +0.000 C 
ATOM     19  C   UNL     1       1.217   8.588  21.781  0.00  0.00    +0.000 C 
ATOM     20  O   UNL     1       0.326   9.676  23.744  0.00  0.00    +0.000 OA
ENDBRANCH  17  18
ENDBRANCH   4  17
BRANCH   5  21
ATOM     21  O   UNL     1      -0.005   9.977  18.973  0.00  0.00    +0.000 OA
BRANCH  21  22
ATOM     22  C   UNL     1       1.224  10.120  18.413  0.00  0.00    +0.000 C 
ATOM     23  C   UNL     1       1.714   8.812  17.865  0.00  0.00    +0.000 C 
ATOM     24  O   UNL     1       1.858  11.163  18.362  0.00  0.00    +0.000 OA
ENDBRANCH  21  22
ENDBRANCH   5  21
BRANCH   6  25
ATOM     25  O   UNL     1      -2.040  11.738  17.588  0.00  0.00    +0.000 OA
BRANCH  25  26
ATOM     26  C   UNL     1      -2.588  10.939  16.639  0.00  0.00    +0.000 C 
ATOM     27  C   UNL     1      -3.093   9.673  17.263  0.00  0.00    +0.000 C 
ATOM     28  O   UNL     1      -2.673  11.198  15.448  0.00  0.00    +0.000 OA
ENDBRANCH  25  26
ENDBRANCH   6  25
TORSDOF 11
ENDMDL
MODEL 8
REMARK VINA RESULT:      -6.4      1.604      5.359
REMARK  Name = 
REMARK  18 active torsions:
REMARK  status: ('A' for Active; 'I' for Inactive)
REMARK    1  A    between atoms: C_1  and  C_2
REMARK    2  A    between atoms: C_2  and  O_4
REMARK    3  A    between atoms: O_4  and  C_5
REMARK    4  A    between atoms: C_5  and  C_6
REMARK    5  A    between atoms: C_8  and  O_9
REMARK    6  A    between atoms: O_9  and  C_10
REMARK    7  A    between atoms: C_10  and  C_11
REMARK    8  A    between atoms: C_10  and  C_12
REMARK    9  A    between atoms: C_10  and  C_13
REMARK   10  A    between atoms: C_14  and  O_15
REMARK   11  A    between atoms: O_15  and  C_16
REMARK   12  A    between atoms: C_16  and  C_17
REMARK   13  A    between atoms: C_19  and  O_20
REMARK   14  A    between atoms: O_20  and  C_21
REMARK   15  A    between atoms: C_21  and  C_22
REMARK   16  A    between atoms: C_24  and  O_25
REMARK   17  A    between atoms: O_25  and  C_26
REMARK   18  A    between atoms: C_26  and  C_27
REMARK                            x       y       z     vdW  Elec       q    Type
REMARK                         _______ _______ _______ _____ _____    ______ ____
ROOT
ATOM      1  C   UNL     1       2.941   6.085  17.733  0.00  0.00    +0.000 C 
ATOM      2  O   UNL     1       4.231   6.710  17.666  0.00  0.00    +0.000 OA
ATOM      3  C   UNL     1       5.287   5.778  17.449  0.00  0.00    +0.000 C 
ATOM      4  C   UNL     1       5.356   4.943  18.756  0.00  0.00    +0.000 C 
ATOM      5  C   UNL     1       4.071   4.107  18.903  0.00  0.00    +0.000 C 
ATOM      6  C   UNL     1       2.810   5.026  18.848  0.00  0.00    +0.000 C 
ENDROOT
BRANCH   1   7
ATOM      7  C   UNL     1       1.947   7.248  17.852  0.00  0.00    +0.000 C 
BRANCH   7   8
ATOM      8  O   UNL     1       2.371   8.257  18.776  0.00  0.00    +0.000 OA
BRANCH   8  10
ATOM      9  C   UNL     1       0.748   9.876  18.308  0.00  0.00    +0.000 C 
ATOM     10  C   UNL     1       1.370   8.984  19.336  0.00  0.00    +0.000 C 
ATOM     11  O   UNL     1       0.993   8.918  20.496  0.00  0.00    +0.000 OA
ENDBRANCH   8  10
ENDBRANCH   7   8
ENDBRANCH   1   7
BRANCH   3  12
ATOM     12  O   UNL     1       5.057   4.998  16.277  0.00  0.00    +0.000 OA
BRANCH  12  13
ATOM     13  C   UNL     1       5.751   5.325  15.054  0.00  0.00    +0.000 C 
ATOM     14  C   UNL     1       5.502   4.291  13.955  0.00  0.00    +0.000 C 
ATOM     15  C   UNL     1       5.163   6.680  14.617  0.00  0.00    +0.000 C 
ATOM     16  C   UNL     1       7.264   5.540  15.194  0.00  0.00    +0.000 C 
ENDBRANCH  12  13
ENDBRANCH   3  12
BRANCH   4  17
ATOM     17  O   UNL     1       6.621   4.275  18.976  0.00  0.00    +0.000 OA
BRANCH  17  18
ATOM     18  C   UNL     1       7.786   4.750  18.492  0.00  0.00    +0.000 C 
ATOM     19  C   UNL     1       7.994   6.160  18.980  0.00  0.00    +0.000 C 
ATOM     20  O   UNL     1       8.562   4.152  17.766  0.00  0.00    +0.000 OA
ENDBRANCH  17  18
ENDBRANCH   4  17
BRANCH   5  21
ATOM     21  O   UNL     1       4.068   3.237  20.070  0.00  0.00    +0.000 OA
BRANCH  21  22
ATOM     22  C   UNL     1       4.429   1.934  19.944  0.00  0.00    +0.000 C 
ATOM     23  C   UNL     1       3.732   1.299  18.776  0.00  0.00    +0.000 C 
ATOM     24  O   UNL     1       5.209   1.345  20.678  0.00  0.00    +0.000 OA
ENDBRANCH  21  22
ENDBRANCH   5  21
BRANCH   6  25
ATOM     25  O   UNL     1       1.650   4.205  18.528  0.00  0.00    +0.000 OA
BRANCH  25  26
ATOM     26  C   UNL     1       0.958   3.657  19.558  0.00  0.00    +0.000 C 
ATOM     27  C   UNL     1       1.022   4.558  20.754  0.00  0.00    +0.000 C 
ATOM     28  O   UNL     1       0.360   2.593  19.532  0.00  0.00    +0.000 OA
ENDBRANCH  25  26
ENDBRANCH   6  25
TORSDOF 11
ENDMDL
MODEL 9
REMARK VINA RESULT:      -6.3      1.481      6.155
REMARK  Name = 
REMARK  18 active torsions:
REMARK  status: ('A' for Active; 'I' for Inactive)
REMARK    1  A    between atoms: C_1  and  C_2
REMARK    2  A    between atoms: C_2  and  O_4
REMARK    3  A    between atoms: O_4  and  C_5
REMARK    4  A    between atoms: C_5  and  C_6
REMARK    5  A    between atoms: C_8  and  O_9
REMARK    6  A    between atoms: O_9  and  C_10
REMARK    7  A    between atoms: C_10  and  C_11
REMARK    8  A    between atoms: C_10  and  C_12
REMARK    9  A    between atoms: C_10  and  C_13
REMARK   10  A    between atoms: C_14  and  O_15
REMARK   11  A    between atoms: O_15  and  C_16
REMARK   12  A    between atoms: C_16  and  C_17
REMARK   13  A    between atoms: C_19  and  O_20
REMARK   14  A    between atoms: O_20  and  C_21
REMARK   15  A    between atoms: C_21  and  C_22
REMARK   16  A    between atoms: C_24  and  O_25
REMARK   17  A    between atoms: O_25  and  C_26
REMARK   18  A    between atoms: C_26  and  C_27
REMARK                            x       y       z     vdW  Elec       q    Type
REMARK                         _______ _______ _______ _____ _____    ______ ____
ROOT
ATOM      1  C   UNL     1       3.496   6.592  17.956  0.00  0.00    +0.000 C 
ATOM      2  O   UNL     1       2.251   5.895  17.799  0.00  0.00    +0.000 OA
ATOM      3  C   UNL     1       2.333   4.524  18.179  0.00  0.00    +0.000 C 
ATOM      4  C   UNL     1       3.252   3.870  17.112  0.00  0.00    +0.000 C 
ATOM      5  C   UNL     1       4.679   4.435  17.243  0.00  0.00    +0.000 C 
ATOM      6  C   UNL     1       4.662   5.993  17.140  0.00  0.00    +0.000 C 
ENDROOT
BRANCH   1   7
ATOM      7  C   UNL     1       3.174   8.053  17.612  0.00  0.00    +0.000 C 
BRANCH   7   8
ATOM      8  O   UNL     1       2.011   8.544  18.288  0.00  0.00    +0.000 OA
BRANCH   8  10
ATOM      9  C   UNL     1       0.254  10.088  18.348  0.00  0.00    +0.000 C 
ATOM     10  C   UNL     1       1.693   9.838  18.023  0.00  0.00    +0.000 C 
ATOM     11  O   UNL     1       2.456  10.698  17.609  0.00  0.00    +0.000 OA
ENDBRANCH   8  10
ENDBRANCH   7   8
ENDBRANCH   1   7
BRANCH   3  12
ATOM     12  O   UNL     1       2.810   4.384  19.516  0.00  0.00    +0.000 OA
BRANCH  12  13
ATOM     13  C   UNL     1       1.874   4.425  20.615  0.00  0.00    +0.000 C 
ATOM     14  C   UNL     1       1.600   5.854  21.085  0.00  0.00    +0.000 C 
ATOM     15  C   UNL     1       0.575   3.819  20.052  0.00  0.00    +0.000 C 
ATOM     16  C   UNL     1       2.253   3.571  21.832  0.00  0.00    +0.000 C 
ENDBRANCH  12  13
ENDBRANCH   3  12
BRANCH   4  17
ATOM     17  O   UNL     1       3.106   2.434  16.993  0.00  0.00    +0.000 OA
BRANCH  17  18
ATOM     18  C   UNL     1       2.771   1.650  18.037  0.00  0.00    +0.000 C 
ATOM     19  C   UNL     1       4.023   1.138  18.700  0.00  0.00    +0.000 C 
ATOM     20  O   UNL     1       1.639   1.379  18.401  0.00  0.00    +0.000 OA
ENDBRANCH  17  18
ENDBRANCH   4  17
BRANCH   5  21
ATOM     21  O   UNL     1       5.634   3.834  16.324  0.00  0.00    +0.000 OA
BRANCH  21  22
ATOM     22  C   UNL     1       5.777   4.338  15.071  0.00  0.00    +0.000 C 
ATOM     23  C   UNL     1       7.151   4.912  14.883  0.00  0.00    +0.000 C 
ATOM     24  O   UNL     1       4.912   4.336  14.208  0.00  0.00    +0.000 OA
ENDBRANCH  21  22
ENDBRANCH   5  21
BRANCH   6  25
ATOM     25  O   UNL     1       5.897   6.510  17.713  0.00  0.00    +0.000 OA
BRANCH  25  26
ATOM     26  C   UNL     1       6.439   5.840  18.760  0.00  0.00    +0.000 C 
ATOM     27  C   UNL     1       7.905   5.627  18.528  0.00  0.00    +0.000 C 
ATOM     28  O   UNL     1       5.841   5.463  19.756  0.00  0.00    +0.000 OA
ENDBRANCH  25  26
ENDBRANCH   6  25
TORSDOF 11
ENDMDL
