MODEL 1
REMARK VINA RESULT:      -7.9      0.000      0.000
REMARK  Name = 
REMARK  8 active torsions:
REMARK  status: ('A' for Active; 'I' for Inactive)
REMARK    1  A    between atoms: C_1  and  C_2
REMARK    2  A    between atoms: C_2  and  N_3
REMARK    3  A    between atoms: N_3  and  C_28
REMARK    4  A    between atoms: C_4  and  C_6
REMARK    5  A    between atoms: C_6  and  C_7
REMARK    6  A    between atoms: C_7  and  N_8
REMARK    7  A    between atoms: C_9  and  C_10
REMARK    8  A    between atoms: C_13  and  N_14
REMARK                            x       y       z     vdW  Elec       q    Type
REMARK                         _______ _______ _______ _____ _____    ______ ____
ROOT
ATOM      1  N   UNL     1       0.843   9.753  19.734  0.00  0.00    +0.000 N 
ATOM      2  C   UNL     1       1.451   8.541  20.047  0.00  0.00    +0.000 A 
ATOM      3  N   UNL     1       1.073   8.157  21.256  0.00  0.00    +0.000 NA
ATOM      4  C   UNL     1       0.298   9.173  21.764  0.00  0.00    +0.000 A 
ATOM      5  C   UNL     1      -0.323   9.293  23.016  0.00  0.00    +0.000 A 
ATOM      6  C   UNL     1      -1.054  10.454  23.308  0.00  0.00    +0.000 A 
ATOM      7  C   UNL     1      -1.173  11.477  22.370  0.00  0.00    +0.000 A 
ATOM      8  C   UNL     1      -0.577  11.367  21.112  0.00  0.00    +0.000 A 
ATOM      9  C   UNL     1       0.155  10.197  20.841  0.00  0.00    +0.000 A 
ENDROOT
BRANCH   2  10
ATOM     10  C   UNL     1       2.286   7.739  19.132  0.00  0.00    +0.000 A 
ATOM     11  C   UNL     1       2.746   6.459  19.470  0.00  0.00    +0.000 A 
ATOM     12  C   UNL     1       3.726   5.811  18.713  0.00  0.00    +0.000 A 
ATOM     13  C   UNL     1       4.204   6.398  17.539  0.00  0.00    +0.000 A 
ATOM     14  C   UNL     1       3.658   7.619  17.116  0.00  0.00    +0.000 A 
ATOM     15  C   UNL     1       2.713   8.285  17.914  0.00  0.00    +0.000 A 
BRANCH  13  16
ATOM     16  N   UNL     1       5.237   5.773  16.794  0.00  0.00    +0.000 N 
ATOM     17  C   UNL     1       5.336   4.456  16.401  0.00  0.00    +0.000 A 
ATOM     18  C   UNL     1       6.530   4.378  15.731  0.00  0.00    +0.000 A 
ATOM     19  N   UNL     1       7.129   5.600  15.728  0.00  0.00    +0.000 NA
ATOM     20  N   UNL     1       6.341   6.444  16.383  0.00  0.00    +0.000 NA
ENDBRANCH  13  16
ENDBRANCH   2  10
BRANCH   1  21
ATOM     21  C   UNL     1       0.890  10.457  18.470  0.00  0.00    +0.000 C 
BRANCH  21  22
ATOM     22  C   UNL     1       1.793  11.695  18.481  0.00  0.00    +0.000 C 
BRANCH  22  24
ATOM     23  N   UNL     1       1.429  14.137  18.914  0.00  0.00    +0.000 N 
ATOM     24  C   UNL     1       0.909  12.921  18.490  0.00  0.00    +0.000 C 
ATOM     25  O   UNL     1      -0.258  12.774  18.134  0.00  0.00    +0.000 OA
BRANCH  23  26
ATOM     26  C   UNL     1       0.658  15.403  18.766  0.00  0.00    +0.000 C 
ATOM     27  C   UNL     1      -0.352  15.646  19.897  0.00  0.00    +0.000 C 
ATOM     28  C   UNL     1       0.216  16.307  21.146  0.00  0.00    +0.000 C 
ATOM     29  C   UNL     1       1.144  17.491  20.872  0.00  0.00    +0.000 C 
ATOM     30  C   UNL     1       2.071  17.382  19.660  0.00  0.00    +0.000 C 
ATOM     31  C   UNL     1       1.464  16.671  18.458  0.00  0.00    +0.000 C 
ENDBRANCH  23  26
BRANCH  23  33
ATOM     32  C   UNL     1       3.888  14.354  18.565  0.00  0.00    +0.000 C 
ATOM     33  C   UNL     1       2.747  14.255  19.564  0.00  0.00    +0.000 C 
ENDBRANCH  23  33
ENDBRANCH  22  24
ENDBRANCH  21  22
ENDBRANCH   1  21
TORSDOF 7
ENDMDL
MODEL 2
REMARK VINA RESULT:      -7.8      2.964      4.299
REMARK  Name = 
REMARK  8 active torsions:
REMARK  status: ('A' for Active; 'I' for Inactive)
REMARK    1  A    between atoms: C_1  and  C_2
REMARK    2  A    between atoms: C_2  and  N_3
REMARK    3  A    between atoms: N_3  and  C_28
REMARK    4  A    between atoms: C_4  and  C_6
REMARK    5  A    between atoms: C_6  and  C_7
REMARK    6  A    between atoms: C_7  and  N_8
REMARK    7  A    between atoms: C_9  and  C_10
REMARK    8  A    between atoms: C_13  and  N_14
REMARK                            x       y       z     vdW  Elec       q    Type
REMARK                         _______ _______ _______ _____ _____    ______ ____
ROOT
ATOM      1  N   UNL     1       0.614   9.693  19.714  0.00  0.00    +0.000 N 
ATOM      2  C   UNL     1       1.395   8.593  20.054  0.00  0.00    +0.000 A 
ATOM      3  N   UNL     1       1.191   8.283  21.325  0.00  0.00    +0.000 NA
ATOM      4  C   UNL     1       0.352   9.247  21.832  0.00  0.00    +0.000 A 
ATOM      5  C   UNL     1      -0.150   9.413  23.132  0.00  0.00    +0.000 A 
ATOM      6  C   UNL     1      -0.984  10.506  23.408  0.00  0.00    +0.000 A 
ATOM      7  C   UNL     1      -1.323  11.416  22.409  0.00  0.00    +0.000 A 
ATOM      8  C   UNL     1      -0.848  11.257  21.106  0.00  0.00    +0.000 A 
ATOM      9  C   UNL     1      -0.009  10.158  20.851  0.00  0.00    +0.000 A 
ENDROOT
BRANCH   2  10
ATOM     10  C   UNL     1       2.226   7.808  19.120  0.00  0.00    +0.000 A 
ATOM     11  C   UNL     1       2.700   6.529  19.438  0.00  0.00    +0.000 A 
ATOM     12  C   UNL     1       3.677   5.898  18.662  0.00  0.00    +0.000 A 
ATOM     13  C   UNL     1       4.135   6.503  17.489  0.00  0.00    +0.000 A 
ATOM     14  C   UNL     1       3.573   7.723  17.086  0.00  0.00    +0.000 A 
ATOM     15  C   UNL     1       2.633   8.371  17.903  0.00  0.00    +0.000 A 
BRANCH  13  16
ATOM     16  N   UNL     1       5.164   5.895  16.724  0.00  0.00    +0.000 N 
ATOM     17  C   UNL     1       5.173   4.651  16.130  0.00  0.00    +0.000 A 
ATOM     18  C   UNL     1       6.407   4.553  15.539  0.00  0.00    +0.000 A 
ATOM     19  N   UNL     1       7.115   5.690  15.775  0.00  0.00    +0.000 NA
ATOM     20  N   UNL     1       6.356   6.501  16.504  0.00  0.00    +0.000 NA
ENDBRANCH  13  16
ENDBRANCH   2  10
BRANCH   1  21
ATOM     21  C   UNL     1       0.447  10.276  18.400  0.00  0.00    +0.000 C 
BRANCH  21  22
ATOM     22  C   UNL     1      -0.892   9.939  17.735  0.00  0.00    +0.000 C 
BRANCH  22  24
ATOM     23  N   UNL     1      -3.156  11.015  17.729  0.00  0.00    +0.000 N 
ATOM     24  C   UNL     1      -1.778  11.161  17.813  0.00  0.00    +0.000 C 
ATOM     25  O   UNL     1      -1.220  12.251  17.929  0.00  0.00    +0.000 OA
BRANCH  23  26
ATOM     26  C   UNL     1      -4.073  12.161  17.987  0.00  0.00    +0.000 C 
ATOM     27  C   UNL     1      -5.430  12.036  17.278  0.00  0.00    +0.000 C 
ATOM     28  C   UNL     1      -6.478  11.218  18.019  0.00  0.00    +0.000 C 
ATOM     29  C   UNL     1      -6.579  11.519  19.515  0.00  0.00    +0.000 C 
ATOM     30  C   UNL     1      -5.273  11.810  20.255  0.00  0.00    +0.000 C 
ATOM     31  C   UNL     1      -4.245  12.592  19.448  0.00  0.00    +0.000 C 
ENDBRANCH  23  26
BRANCH  23  33
ATOM     32  C   UNL     1      -4.040   8.829  18.539  0.00  0.00    +0.000 C 
ATOM     33  C   UNL     1      -3.799   9.745  17.350  0.00  0.00    +0.000 C 
ENDBRANCH  23  33
ENDBRANCH  22  24
ENDBRANCH  21  22
ENDBRANCH   1  21
TORSDOF 7
ENDMDL
MODEL 3
REMARK VINA RESULT:      -7.7      3.447      5.828
REMARK  Name = 
REMARK  8 active torsions:
REMARK  status: ('A' for Active; 'I' for Inactive)
REMARK    1  A    between atoms: C_1  and  C_2
REMARK    2  A    between atoms: C_2  and  N_3
REMARK    3  A    between atoms: N_3  and  C_28
REMARK    4  A    between atoms: C_4  and  C_6
REMARK    5  A    between atoms: C_6  and  C_7
REMARK    6  A    between atoms: C_7  and  N_8
REMARK    7  A    between atoms: C_9  and  C_10
REMARK    8  A    between atoms: C_13  and  N_14
REMARK                            x       y       z     vdW  Elec       q    Type
REMARK                         _______ _______ _______ _____ _____    ______ ____
ROOT
ATOM      1  N   UNL     1       0.085  12.604  18.753  0.00  0.00    +0.000 N 
ATOM      2  C   UNL     1       1.239  11.906  19.094  0.00  0.00    +0.000 A 
ATOM      3  N   UNL     1       2.150  12.753  19.548  0.00  0.00    +0.000 NA
ATOM      4  C   UNL     1       1.616  14.012  19.405  0.00  0.00    +0.000 A 
ATOM      5  C   UNL     1       2.175  15.266  19.696  0.00  0.00    +0.000 A 
ATOM      6  C   UNL     1       1.427  16.425  19.438  0.00  0.00    +0.000 A 
ATOM      7  C   UNL     1       0.142  16.341  18.906  0.00  0.00    +0.000 A 
ATOM      8  C   UNL     1      -0.436  15.100  18.626  0.00  0.00    +0.000 A 
ATOM      9  C   UNL     1       0.332  13.952  18.888  0.00  0.00    +0.000 A 
ENDROOT
BRANCH   2  10
ATOM     10  C   UNL     1       1.390  10.438  19.077  0.00  0.00    +0.000 A 
ATOM     11  C   UNL     1       1.107   9.646  20.198  0.00  0.00    +0.000 A 
ATOM     12  C   UNL     1       1.480   8.301  20.255  0.00  0.00    +0.000 A 
ATOM     13  C   UNL     1       2.069   7.691  19.144  0.00  0.00    +0.000 A 
ATOM     14  C   UNL     1       2.238   8.435  17.968  0.00  0.00    +0.000 A 
ATOM     15  C   UNL     1       1.908   9.800  17.942  0.00  0.00    +0.000 A 
BRANCH  13  16
ATOM     16  N   UNL     1       2.500   6.341  19.212  0.00  0.00    +0.000 N 
ATOM     17  C   UNL     1       2.236   5.402  20.186  0.00  0.00    +0.000 A 
ATOM     18  C   UNL     1       2.904   4.276  19.779  0.00  0.00    +0.000 A 
ATOM     19  N   UNL     1       3.550   4.530  18.609  0.00  0.00    +0.000 NA
ATOM     20  N   UNL     1       3.307   5.791  18.272  0.00  0.00    +0.000 NA
ENDBRANCH  13  16
ENDBRANCH   2  10
BRANCH   1  21
ATOM     21  C   UNL     1      -1.184  12.049  18.333  0.00  0.00    +0.000 C 
BRANCH  21  22
ATOM     22  C   UNL     1      -2.041  11.514  19.485  0.00  0.00    +0.000 C 
BRANCH  22  24
ATOM     23  N   UNL     1      -4.443  12.083  19.047  0.00  0.00    +0.000 N 
ATOM     24  C   UNL     1      -3.237  12.425  19.644  0.00  0.00    +0.000 C 
ATOM     25  O   UNL     1      -3.073  13.457  20.291  0.00  0.00    +0.000 OA
BRANCH  23  26
ATOM     26  C   UNL     1      -5.691  12.847  19.327  0.00  0.00    +0.000 C 
ATOM     27  C   UNL     1      -6.976  12.073  18.999  0.00  0.00    +0.000 C 
ATOM     28  C   UNL     1      -7.471  11.141  20.097  0.00  0.00    +0.000 C 
ATOM     29  C   UNL     1      -7.446  11.744  21.502  0.00  0.00    +0.000 C 
ATOM     30  C   UNL     1      -6.268  12.658  21.845  0.00  0.00    +0.000 C 
ATOM     31  C   UNL     1      -5.787  13.533  20.696  0.00  0.00    +0.000 C 
ENDBRANCH  23  26
BRANCH  23  33
ATOM     32  C   UNL     1      -4.450  11.443  16.637  0.00  0.00    +0.000 C 
ATOM     33  C   UNL     1      -4.566  10.978  18.079  0.00  0.00    +0.000 C 
ENDBRANCH  23  33
ENDBRANCH  22  24
ENDBRANCH  21  22
ENDBRANCH   1  21
TORSDOF 7
ENDMDL
MODEL 4
REMARK VINA RESULT:      -7.7      1.098      1.823
REMARK  Name = 
REMARK  8 active torsions:
REMARK  status: ('A' for Active; 'I' for Inactive)
REMARK    1  A    between atoms: C_1  and  C_2
REMARK    2  A    between atoms: C_2  and  N_3
REMARK    3  A    between atoms: N_3  and  C_28
REMARK    4  A    between atoms: C_4  and  C_6
REMARK    5  A    between atoms: C_6  and  C_7
REMARK    6  A    between atoms: C_7  and  N_8
REMARK    7  A    between atoms: C_9  and  C_10
REMARK    8  A    between atoms: C_13  and  N_14
REMARK                            x       y       z     vdW  Elec       q    Type
REMARK                         _______ _______ _______ _____ _____    ______ ____
ROOT
ATOM      1  N   UNL     1       0.754   9.537  19.751  0.00  0.00    +0.000 N 
ATOM      2  C   UNL     1       1.437   8.390  20.139  0.00  0.00    +0.000 A 
ATOM      3  N   UNL     1       1.151   8.112  21.402  0.00  0.00    +0.000 NA
ATOM      4  C   UNL     1       0.360   9.141  21.857  0.00  0.00    +0.000 A 
ATOM      5  C   UNL     1      -0.190   9.360  23.130  0.00  0.00    +0.000 A 
ATOM      6  C   UNL     1      -0.957  10.513  23.354  0.00  0.00    +0.000 A 
ATOM      7  C   UNL     1      -1.181  11.431  22.330  0.00  0.00    +0.000 A 
ATOM      8  C   UNL     1      -0.656  11.220  21.053  0.00  0.00    +0.000 A 
ATOM      9  C   UNL     1       0.113  10.061  20.851  0.00  0.00    +0.000 A 
ENDROOT
BRANCH   2  10
ATOM     10  C   UNL     1       2.253   7.535  19.255  0.00  0.00    +0.000 A 
ATOM     11  C   UNL     1       2.543   6.200  19.567  0.00  0.00    +0.000 A 
ATOM     12  C   UNL     1       3.507   5.477  18.859  0.00  0.00    +0.000 A 
ATOM     13  C   UNL     1       4.140   6.052  17.754  0.00  0.00    +0.000 A 
ATOM     14  C   UNL     1       3.765   7.341  17.348  0.00  0.00    +0.000 A 
ATOM     15  C   UNL     1       2.835   8.076  18.101  0.00  0.00    +0.000 A 
BRANCH  13  16
ATOM     16  N   UNL     1       5.157   5.345  17.062  0.00  0.00    +0.000 N 
ATOM     17  C   UNL     1       6.520   5.548  17.096  0.00  0.00    +0.000 A 
ATOM     18  C   UNL     1       7.036   4.613  16.235  0.00  0.00    +0.000 A 
ATOM     19  N   UNL     1       6.021   3.882  15.698  0.00  0.00    +0.000 NA
ATOM     20  N   UNL     1       4.879   4.337  16.200  0.00  0.00    +0.000 NA
ENDBRANCH  13  16
ENDBRANCH   2  10
BRANCH   1  21
ATOM     21  C   UNL     1       0.692  10.113  18.423  0.00  0.00    +0.000 C 
BRANCH  21  22
ATOM     22  C   UNL     1       0.417  11.620  18.411  0.00  0.00    +0.000 C 
BRANCH  22  24
ATOM     23  N   UNL     1       1.803  13.707  18.503  0.00  0.00    +0.000 N 
ATOM     24  C   UNL     1       1.738  12.340  18.271  0.00  0.00    +0.000 C 
ATOM     25  O   UNL     1       2.709  11.666  17.929  0.00  0.00    +0.000 OA
BRANCH  23  26
ATOM     26  C   UNL     1       3.108  14.423  18.558  0.00  0.00    +0.000 C 
ATOM     27  C   UNL     1       3.105  15.771  17.823  0.00  0.00    +0.000 C 
ATOM     28  C   UNL     1       2.587  16.952  18.633  0.00  0.00    +0.000 C 
ATOM     29  C   UNL     1       3.118  17.023  20.065  0.00  0.00    +0.000 C 
ATOM     30  C   UNL     1       3.297  15.696  20.806  0.00  0.00    +0.000 C 
ATOM     31  C   UNL     1       3.772  14.541  19.936  0.00  0.00    +0.000 C 
ENDBRANCH  23  26
BRANCH  23  33
ATOM     32  C   UNL     1       0.112  14.585  20.111  0.00  0.00    +0.000 C 
ATOM     33  C   UNL     1       0.600  14.542  18.672  0.00  0.00    +0.000 C 
ENDBRANCH  23  33
ENDBRANCH  22  24
ENDBRANCH  21  22
ENDBRANCH   1  21
TORSDOF 7
ENDMDL
MODEL 5
REMARK VINA RESULT:      -7.7      1.977      2.962
REMARK  Name = 
REMARK  8 active torsions:
REMARK  status: ('A' for Active; 'I' for Inactive)
REMARK    1  A    between atoms: C_1  and  C_2
REMARK    2  A    between atoms: C_2  and  N_3
REMARK    3  A    between atoms: N_3  and  C_28
REMARK    4  A    between atoms: C_4  and  C_6
REMARK    5  A    between atoms: C_6  and  C_7
REMARK    6  A    between atoms: C_7  and  N_8
REMARK    7  A    between atoms: C_9  and  C_10
REMARK    8  A    between atoms: C_13  and  N_14
REMARK                            x       y       z     vdW  Elec       q    Type
REMARK                         _______ _______ _______ _____ _____    ______ ____
ROOT
ATOM      1  N   UNL     1      -0.197  11.047  20.240  0.00  0.00    +0.000 N 
ATOM      2  C   UNL     1      -0.089  10.039  19.288  0.00  0.00    +0.000 A 
ATOM      3  N   UNL     1      -1.136  10.083  18.479  0.00  0.00    +0.000 NA
ATOM      4  C   UNL     1      -1.969  11.059  18.972  0.00  0.00    +0.000 A 
ATOM      5  C   UNL     1      -3.225  11.488  18.515  0.00  0.00    +0.000 A 
ATOM      6  C   UNL     1      -3.897  12.503  19.213  0.00  0.00    +0.000 A 
ATOM      7  C   UNL     1      -3.328  13.089  20.341  0.00  0.00    +0.000 A 
ATOM      8  C   UNL     1      -2.071  12.688  20.800  0.00  0.00    +0.000 A 
ATOM      9  C   UNL     1      -1.417  11.666  20.089  0.00  0.00    +0.000 A 
ENDROOT
BRANCH   2  10
ATOM     10  C   UNL     1       1.067   9.137  19.119  0.00  0.00    +0.000 A 
ATOM     11  C   UNL     1       1.874   9.166  17.973  0.00  0.00    +0.000 A 
ATOM     12  C   UNL     1       2.806   8.158  17.712  0.00  0.00    +0.000 A 
ATOM     13  C   UNL     1       3.017   7.141  18.646  0.00  0.00    +0.000 A 
ATOM     14  C   UNL     1       2.313   7.172  19.858  0.00  0.00    +0.000 A 
ATOM     15  C   UNL     1       1.340   8.160  20.085  0.00  0.00    +0.000 A 
BRANCH  13  16
ATOM     16  N   UNL     1       3.923   6.086  18.365  0.00  0.00    +0.000 N 
ATOM     17  C   UNL     1       4.775   5.432  19.229  0.00  0.00    +0.000 A 
ATOM     18  C   UNL     1       5.437   4.520  18.446  0.00  0.00    +0.000 A 
ATOM     19  N   UNL     1       5.005   4.628  17.160  0.00  0.00    +0.000 NA
ATOM     20  N   UNL     1       4.088   5.588  17.115  0.00  0.00    +0.000 NA
ENDBRANCH  13  16
ENDBRANCH   2  10
BRANCH   1  21
ATOM     21  C   UNL     1       0.788  11.425  21.233  0.00  0.00    +0.000 C 
BRANCH  21  22
ATOM     22  C   UNL     1       1.819  12.441  20.732  0.00  0.00    +0.000 C 
BRANCH  22  24
ATOM     23  N   UNL     1       0.922  14.669  20.016  0.00  0.00    +0.000 N 
ATOM     24  C   UNL     1       1.308  13.827  21.050  0.00  0.00    +0.000 C 
ATOM     25  O   UNL     1       1.278  14.155  22.235  0.00  0.00    +0.000 OA
BRANCH  23  26
ATOM     26  C   UNL     1       0.240  15.966  20.287  0.00  0.00    +0.000 C 
ATOM     27  C   UNL     1       1.209  17.135  20.516  0.00  0.00    +0.000 C 
ATOM     28  C   UNL     1       1.706  17.825  19.253  0.00  0.00    +0.000 C 
ATOM     29  C   UNL     1       0.621  18.108  18.214  0.00  0.00    +0.000 C 
ATOM     30  C   UNL     1      -0.471  17.050  18.044  0.00  0.00    +0.000 C 
ATOM     31  C   UNL     1      -0.895  16.361  19.334  0.00  0.00    +0.000 C 
ENDBRANCH  23  26
BRANCH  23  33
ATOM     32  C   UNL     1       2.637  14.592  18.208  0.00  0.00    +0.000 C 
ATOM     33  C   UNL     1       1.186  14.361  18.599  0.00  0.00    +0.000 C 
ENDBRANCH  23  33
ENDBRANCH  22  24
ENDBRANCH  21  22
ENDBRANCH   1  21
TORSDOF 7
ENDMDL
MODEL 6
REMARK VINA RESULT:      -7.6      4.425      7.794
REMARK  Name = 
REMARK  8 active torsions:
REMARK  status: ('A' for Active; 'I' for Inactive)
REMARK    1  A    between atoms: C_1  and  C_2
REMARK    2  A    between atoms: C_2  and  N_3
REMARK    3  A    between atoms: N_3  and  C_28
REMARK    4  A    between atoms: C_4  and  C_6
REMARK    5  A    between atoms: C_6  and  C_7
REMARK    6  A    between atoms: C_7  and  N_8
REMARK    7  A    between atoms: C_9  and  C_10
REMARK    8  A    between atoms: C_13  and  N_14
REMARK                            x       y       z     vdW  Elec       q    Type
REMARK                         _______ _______ _______ _____ _____    ______ ____
ROOT
ATOM      1  N   UNL     1       2.773  16.287  19.499  0.00  0.00    +0.000 N 
ATOM      2  C   UNL     1       3.599  16.512  18.403  0.00  0.00    +0.000 A 
ATOM      3  N   UNL     1       2.932  17.185  17.479  0.00  0.00    +0.000 NA
ATOM      4  C   UNL     1       1.641  17.306  17.940  0.00  0.00    +0.000 A 
ATOM      5  C   UNL     1       0.520  17.896  17.337  0.00  0.00    +0.000 A 
ATOM      6  C   UNL     1      -0.710  17.872  18.011  0.00  0.00    +0.000 A 
ATOM      7  C   UNL     1      -0.825  17.279  19.266  0.00  0.00    +0.000 A 
ATOM      8  C   UNL     1       0.284  16.702  19.889  0.00  0.00    +0.000 A 
ATOM      9  C   UNL     1       1.507  16.732  19.194  0.00  0.00    +0.000 A 
ENDROOT
BRANCH   2  10
ATOM     10  C   UNL     1       5.034  16.173  18.324  0.00  0.00    +0.000 A 
ATOM     11  C   UNL     1       5.484  14.954  17.801  0.00  0.00    +0.000 A 
ATOM     12  C   UNL     1       6.810  14.540  17.952  0.00  0.00    +0.000 A 
ATOM     13  C   UNL     1       7.743  15.387  18.555  0.00  0.00    +0.000 A 
ATOM     14  C   UNL     1       7.337  16.665  18.966  0.00  0.00    +0.000 A 
ATOM     15  C   UNL     1       5.990  17.048  18.857  0.00  0.00    +0.000 A 
BRANCH  13  16
ATOM     16  N   UNL     1       9.078  14.954  18.760  0.00  0.00    +0.000 N 
ATOM     17  C   UNL     1       9.756  13.931  18.132  0.00  0.00    +0.000 A 
ATOM     18  C   UNL     1      10.998  13.923  18.715  0.00  0.00    +0.000 A 
ATOM     19  N   UNL     1      11.061  14.898  19.661  0.00  0.00    +0.000 NA
ATOM     20  N   UNL     1       9.887  15.518  19.690  0.00  0.00    +0.000 NA
ENDBRANCH  13  16
ENDBRANCH   2  10
BRANCH   1  21
ATOM     21  C   UNL     1       3.143  15.697  20.769  0.00  0.00    +0.000 C 
BRANCH  21  22
ATOM     22  C   UNL     1       3.304  14.174  20.725  0.00  0.00    +0.000 C 
BRANCH  22  24
ATOM     23  N   UNL     1       1.467  12.567  20.155  0.00  0.00    +0.000 N 
ATOM     24  C   UNL     1       1.956  13.551  21.004  0.00  0.00    +0.000 C 
ATOM     25  O   UNL     1       1.335  13.970  21.980  0.00  0.00    +0.000 OA
BRANCH  23  26
ATOM     26  C   UNL     1       0.237  11.795  20.491  0.00  0.00    +0.000 C 
ATOM     27  C   UNL     1      -1.065  12.514  20.109  0.00  0.00    +0.000 C 
ATOM     28  C   UNL     1      -1.514  12.324  18.666  0.00  0.00    +0.000 C 
ATOM     29  C   UNL     1      -1.421  10.886  18.156  0.00  0.00    +0.000 C 
ATOM     30  C   UNL     1      -0.224  10.057  18.627  0.00  0.00    +0.000 C 
ATOM     31  C   UNL     1       0.208  10.323  20.062  0.00  0.00    +0.000 C 
ENDBRANCH  23  26
BRANCH  23  33
ATOM     32  C   UNL     1       1.891  13.328  17.819  0.00  0.00    +0.000 C 
ATOM     33  C   UNL     1       2.100  12.244  18.864  0.00  0.00    +0.000 C 
ENDBRANCH  23  33
ENDBRANCH  22  24
ENDBRANCH  21  22
ENDBRANCH   1  21
TORSDOF 7
ENDMDL
MODEL 7
REMARK VINA RESULT:      -7.6      3.335      6.190
REMARK  Name = 
REMARK  8 active torsions:
REMARK  status: ('A' for Active; 'I' for Inactive)
REMARK    1  A    between atoms: C_1  and  C_2
REMARK    2  A    between atoms: C_2  and  N_3
REMARK    3  A    between atoms: N_3  and  C_28
REMARK    4  A    between atoms: C_4  and  C_6
REMARK    5  A    between atoms: C_6  and  C_7
REMARK    6  A    between atoms: C_7  and  N_8
REMARK    7  A    between atoms: C_9  and  C_10
REMARK    8  A    between atoms: C_13  and  N_14
REMARK                            x       y       z     vdW  Elec       q    Type
REMARK                         _______ _______ _______ _____ _____    ______ ____
ROOT
ATOM      1  N   UNL     1       3.870   5.539  17.956  0.00  0.00    +0.000 N 
ATOM      2  C   UNL     1       5.231   5.314  18.132  0.00  0.00    +0.000 A 
ATOM      3  N   UNL     1       5.453   4.014  18.248  0.00  0.00    +0.000 NA
ATOM      4  C   UNL     1       4.219   3.407  18.247  0.00  0.00    +0.000 A 
ATOM      5  C   UNL     1       3.881   2.051  18.379  0.00  0.00    +0.000 A 
ATOM      6  C   UNL     1       2.528   1.680  18.367  0.00  0.00    +0.000 A 
ATOM      7  C   UNL     1       1.526   2.637  18.220  0.00  0.00    +0.000 A 
ATOM      8  C   UNL     1       1.845   3.988  18.069  0.00  0.00    +0.000 A 
ATOM      9  C   UNL     1       3.206   4.340  18.088  0.00  0.00    +0.000 A 
ENDROOT
BRANCH   2  10
ATOM     10  C   UNL     1       6.287   6.345  18.072  0.00  0.00    +0.000 A 
ATOM     11  C   UNL     1       7.484   6.230  18.792  0.00  0.00    +0.000 A 
ATOM     12  C   UNL     1       8.363   7.308  18.923  0.00  0.00    +0.000 A 
ATOM     13  C   UNL     1       8.104   8.507  18.254  0.00  0.00    +0.000 A 
ATOM     14  C   UNL     1       6.978   8.594  17.423  0.00  0.00    +0.000 A 
ATOM     15  C   UNL     1       6.074   7.522  17.343  0.00  0.00    +0.000 A 
BRANCH  13  16
ATOM     16  N   UNL     1       8.963   9.623  18.425  0.00  0.00    +0.000 N 
ATOM     17  C   UNL     1       9.497  10.126  19.592  0.00  0.00    +0.000 A 
ATOM     18  C   UNL     1      10.233  11.216  19.201  0.00  0.00    +0.000 A 
ATOM     19  N   UNL     1      10.138  11.366  17.852  0.00  0.00    +0.000 NA
ATOM     20  N   UNL     1       9.357  10.398  17.386  0.00  0.00    +0.000 NA
ENDBRANCH  13  16
ENDBRANCH   2  10
BRANCH   1  21
ATOM     21  C   UNL     1       3.219   6.801  17.671  0.00  0.00    +0.000 C 
BRANCH  21  22
ATOM     22  C   UNL     1       2.618   7.484  18.903  0.00  0.00    +0.000 C 
BRANCH  22  24
ATOM     23  N   UNL     1       1.014   9.368  19.305  0.00  0.00    +0.000 N 
ATOM     24  C   UNL     1       1.900   8.733  18.445  0.00  0.00    +0.000 C 
ATOM     25  O   UNL     1       2.125   9.121  17.300  0.00  0.00    +0.000 OA
BRANCH  23  26
ATOM     26  C   UNL     1       0.428  10.697  18.970  0.00  0.00    +0.000 C 
ATOM     27  C   UNL     1      -0.976  10.916  19.552  0.00  0.00    +0.000 C 
ATOM     28  C   UNL     1      -1.013  11.422  20.988  0.00  0.00    +0.000 C 
ATOM     29  C   UNL     1      -0.028  12.553  21.289  0.00  0.00    +0.000 C 
ATOM     30  C   UNL     1       1.342  12.479  20.613  0.00  0.00    +0.000 C 
ATOM     31  C   UNL     1       1.322  11.922  19.196  0.00  0.00    +0.000 C 
ENDBRANCH  23  26
BRANCH  23  33
ATOM     32  C   UNL     1       1.525   9.046  21.724  0.00  0.00    +0.000 C 
ATOM     33  C   UNL     1       0.570   8.767  20.575  0.00  0.00    +0.000 C 
ENDBRANCH  23  33
ENDBRANCH  22  24
ENDBRANCH  21  22
ENDBRANCH   1  21
TORSDOF 7
ENDMDL
MODEL 8
REMARK VINA RESULT:      -7.6      2.829      9.313
REMARK  Name = 
REMARK  8 active torsions:
REMARK  status: ('A' for Active; 'I' for Inactive)
REMARK    1  A    between atoms: C_1  and  C_2
REMARK    2  A    between atoms: C_2  and  N_3
REMARK    3  A    between atoms: N_3  and  C_28
REMARK    4  A    between atoms: C_4  and  C_6
REMARK    5  A    between atoms: C_6  and  C_7
REMARK    6  A    between atoms: C_7  and  N_8
REMARK    7  A    between atoms: C_9  and  C_10
REMARK    8  A    between atoms: C_13  and  N_14
REMARK                            x       y       z     vdW  Elec       q    Type
REMARK                         _______ _______ _______ _____ _____    ______ ____
ROOT
ATOM      1  N   UNL     1       2.285   6.093  18.655  0.00  0.00    +0.000 N 
ATOM      2  C   UNL     1       1.749   6.498  19.872  0.00  0.00    +0.000 A 
ATOM      3  N   UNL     1       1.537   5.438  20.636  0.00  0.00    +0.000 NA
ATOM      4  C   UNL     1       1.844   4.338  19.871  0.00  0.00    +0.000 A 
ATOM      5  C   UNL     1       1.763   2.972  20.181  0.00  0.00    +0.000 A 
ATOM      6  C   UNL     1       2.119   2.027  19.208  0.00  0.00    +0.000 A 
ATOM      7  C   UNL     1       2.557   2.430  17.948  0.00  0.00    +0.000 A 
ATOM      8  C   UNL     1       2.662   3.786  17.628  0.00  0.00    +0.000 A 
ATOM      9  C   UNL     1       2.295   4.716  18.616  0.00  0.00    +0.000 A 
ENDROOT
BRANCH   2  10
ATOM     10  C   UNL     1       1.561   7.897  20.304  0.00  0.00    +0.000 A 
ATOM     11  C   UNL     1       1.575   8.269  21.655  0.00  0.00    +0.000 A 
ATOM     12  C   UNL     1       1.158   9.538  22.067  0.00  0.00    +0.000 A 
ATOM     13  C   UNL     1       0.802  10.500  21.119  0.00  0.00    +0.000 A 
ATOM     14  C   UNL     1       0.910  10.186  19.756  0.00  0.00    +0.000 A 
ATOM     15  C   UNL     1       1.278   8.890  19.357  0.00  0.00    +0.000 A 
BRANCH  13  16
ATOM     16  N   UNL     1       0.327  11.772  21.530  0.00  0.00    +0.000 N 
ATOM     17  C   UNL     1       0.566  13.004  20.961  0.00  0.00    +0.000 A 
ATOM     18  C   UNL     1      -0.106  13.895  21.758  0.00  0.00    +0.000 A 
ATOM     19  N   UNL     1      -0.719  13.225  22.771  0.00  0.00    +0.000 NA
ATOM     20  N   UNL     1      -0.446  11.933  22.632  0.00  0.00    +0.000 NA
ENDBRANCH  13  16
ENDBRANCH   2  10
BRANCH   1  21
ATOM     21  C   UNL     1       2.773   6.939  17.586  0.00  0.00    +0.000 C 
BRANCH  21  22
ATOM     22  C   UNL     1       4.227   7.388  17.762  0.00  0.00    +0.000 C 
BRANCH  22  24
ATOM     23  N   UNL     1       5.877   5.509  17.576  0.00  0.00    +0.000 N 
ATOM     24  C   UNL     1       5.105   6.473  16.940  0.00  0.00    +0.000 C 
ATOM     25  O   UNL     1       5.109   6.645  15.722  0.00  0.00    +0.000 OA
BRANCH  23  26
ATOM     26  C   UNL     1       6.610   4.469  16.802  0.00  0.00    +0.000 C 
ATOM     27  C   UNL     1       5.698   3.390  16.200  0.00  0.00    +0.000 C 
ATOM     28  C   UNL     1       5.073   3.743  14.857  0.00  0.00    +0.000 C 
ATOM     29  C   UNL     1       6.037   4.378  13.854  0.00  0.00    +0.000 C 
ATOM     30  C   UNL     1       7.081   5.347  14.411  0.00  0.00    +0.000 C 
ATOM     31  C   UNL     1       7.636   4.967  15.777  0.00  0.00    +0.000 C 
ENDBRANCH  23  26
BRANCH  23  33
ATOM     32  C   UNL     1       7.495   5.679  19.466  0.00  0.00    +0.000 C 
ATOM     33  C   UNL     1       6.051   5.469  19.039  0.00  0.00    +0.000 C 
ENDBRANCH  23  33
ENDBRANCH  22  24
ENDBRANCH  21  22
ENDBRANCH   1  21
TORSDOF 7
ENDMDL
MODEL 9
REMARK VINA RESULT:      -7.6      3.194      5.531
REMARK  Name = 
REMARK  8 active torsions:
REMARK  status: ('A' for Active; 'I' for Inactive)
REMARK    1  A    between atoms: C_1  and  C_2
REMARK    2  A    between atoms: C_2  and  N_3
REMARK    3  A    between atoms: N_3  and  C_28
REMARK    4  A    between atoms: C_4  and  C_6
REMARK    5  A    between atoms: C_6  and  C_7
REMARK    6  A    between atoms: C_7  and  N_8
REMARK    7  A    between atoms: C_9  and  C_10
REMARK    8  A    between atoms: C_13  and  N_14
REMARK                            x       y       z     vdW  Elec       q    Type
REMARK                         _______ _______ _______ _____ _____    ______ ____
ROOT
ATOM      1  N   UNL     1       0.120  12.183  19.092  0.00  0.00    +0.000 N 
ATOM      2  C   UNL     1       1.308  11.499  18.858  0.00  0.00    +0.000 A 
ATOM      3  N   UNL     1       2.291  12.368  18.686  0.00  0.00    +0.000 NA
ATOM      4  C   UNL     1       1.716  13.617  18.709  0.00  0.00    +0.000 A 
ATOM      5  C   UNL     1       2.300  14.882  18.539  0.00  0.00    +0.000 A 
ATOM      6  C   UNL     1       1.485  16.023  18.586  0.00  0.00    +0.000 A 
ATOM      7  C   UNL     1       0.114  15.912  18.806  0.00  0.00    +0.000 A 
ATOM      8  C   UNL     1      -0.482  14.663  18.995  0.00  0.00    +0.000 A 
ATOM      9  C   UNL     1       0.352  13.532  18.939  0.00  0.00    +0.000 A 
ENDROOT
BRANCH   2  10
ATOM     10  C   UNL     1       1.481  10.034  18.918  0.00  0.00    +0.000 A 
ATOM     11  C   UNL     1       1.280   9.307  20.099  0.00  0.00    +0.000 A 
ATOM     12  C   UNL     1       1.678   7.972  20.211  0.00  0.00    +0.000 A 
ATOM     13  C   UNL     1       2.207   7.305  19.103  0.00  0.00    +0.000 A 
ATOM     14  C   UNL     1       2.291   7.980  17.877  0.00  0.00    +0.000 A 
ATOM     15  C   UNL     1       1.939   9.337  17.792  0.00  0.00    +0.000 A 
BRANCH  13  16
ATOM     16  N   UNL     1       2.662   5.966  19.223  0.00  0.00    +0.000 N 
ATOM     17  C   UNL     1       3.912   5.513  19.587  0.00  0.00    +0.000 A 
ATOM     18  C   UNL     1       3.822   4.146  19.522  0.00  0.00    +0.000 A 
ATOM     19  N   UNL     1       2.570   3.792  19.126  0.00  0.00    +0.000 NA
ATOM     20  N   UNL     1       1.870   4.904  18.938  0.00  0.00    +0.000 NA
ENDBRANCH  13  16
ENDBRANCH   2  10
BRANCH   1  21
ATOM     21  C   UNL     1      -1.164  11.615  19.448  0.00  0.00    +0.000 C 
BRANCH  21  22
ATOM     22  C   UNL     1      -1.692  12.076  20.811  0.00  0.00    +0.000 C 
BRANCH  22  24
ATOM     23  N   UNL     1      -3.701  13.328  21.635  0.00  0.00    +0.000 N 
ATOM     24  C   UNL     1      -3.095  12.602  20.618  0.00  0.00    +0.000 C 
ATOM     25  O   UNL     1      -3.652  12.338  19.554  0.00  0.00    +0.000 OA
BRANCH  23  26
ATOM     26  C   UNL     1      -5.002  14.022  21.423  0.00  0.00    +0.000 C 
ATOM     27  C   UNL     1      -6.218  13.087  21.487  0.00  0.00    +0.000 C 
ATOM     28  C   UNL     1      -6.756  12.815  22.886  0.00  0.00    +0.000 C 
ATOM     29  C   UNL     1      -6.873  14.054  23.774  0.00  0.00    +0.000 C 
ATOM     30  C   UNL     1      -5.771  15.108  23.645  0.00  0.00    +0.000 C 
ATOM     31  C   UNL     1      -5.241  15.303  22.232  0.00  0.00    +0.000 C 
ENDBRANCH  23  26
BRANCH  23  33
ATOM     32  C   UNL     1      -3.417  12.213  23.847  0.00  0.00    +0.000 C 
ATOM     33  C   UNL     1      -3.126  13.433  22.988  0.00  0.00    +0.000 C 
ENDBRANCH  23  33
ENDBRANCH  22  24
ENDBRANCH  21  22
ENDBRANCH   1  21
TORSDOF 7
ENDMDL
