MODEL 1
REMARK VINA RESULT:      -8.1      0.000      0.000
REMARK  Name = 
REMARK  6 active torsions:
REMARK  status: ('A' for Active; 'I' for Inactive)
REMARK    1  A    between atoms: C_2  and  C_20
REMARK    2  A    between atoms: N_3  and  C_4
REMARK    3  A    between atoms: C_8  and  C_9
REMARK    4  A    between atoms: C_13  and  C_14
REMARK    5  A    between atoms: C_24  and  C_25
REMARK    6  A    between atoms: C_30  and  C_31
REMARK                            x       y       z     vdW  Elec       q    Type
REMARK                         _______ _______ _______ _____ _____    ______ ____
ROOT
ATOM      1  O   UNL     1       2.106  10.330  17.669  0.00  0.00    +0.000 OA
ATOM      2  C   UNL     1       1.657   9.199  17.774  0.00  0.00    +0.000 C 
ATOM      3  N   UNL     1       0.316   8.865  17.825  0.00  0.00    +0.000 N 
ATOM      4  H   UNL     1       0.086   7.926  18.107  0.00  0.00    +0.000 HD
ENDROOT
BRANCH   3   5
ATOM      5  C   UNL     1      -0.715   9.819  17.942  0.00  0.00    +0.000 A 
ATOM      6  C   UNL     1      -1.442  10.100  16.775  0.00  0.00    +0.000 A 
ATOM      7  C   UNL     1      -2.448  11.047  16.781  0.00  0.00    +0.000 A 
ATOM      8  C   UNL     1      -2.737  11.715  17.961  0.00  0.00    +0.000 A 
ATOM      9  C   UNL     1      -2.014  11.469  19.158  0.00  0.00    +0.000 A 
ATOM     10  C   UNL     1      -0.964  10.499  19.177  0.00  0.00    +0.000 A 
BRANCH  10  11
ATOM     11  C   UNL     1      -0.210  10.113  20.421  0.00  0.00    +0.000 A 
ATOM     12  C   UNL     1      -0.549   8.992  21.199  0.00  0.00    +0.000 A 
ATOM     13  C   UNL     1       0.056   8.736  22.433  0.00  0.00    +0.000 A 
ATOM     14  C   UNL     1       1.082   9.563  22.839  0.00  0.00    +0.000 A 
ATOM     15  N   UNL     1       1.493  10.621  22.121  0.00  0.00    +0.000 NA
ATOM     16  C   UNL     1       0.825  10.883  20.964  0.00  0.00    +0.000 A 
ENDBRANCH  10  11
BRANCH   9  17
ATOM     17  C   UNL     1      -2.443  12.295  20.357  0.00  0.00    +0.000 C 
ATOM     18  F   UNL     1      -1.628  13.367  20.589  0.00  0.00    +0.000 F 
ATOM     19  F   UNL     1      -3.686  12.831  20.217  0.00  0.00    +0.000 F 
ATOM     20  F   UNL     1      -2.447  11.591  21.520  0.00  0.00    +0.000 F 
ENDBRANCH   9  17
ENDBRANCH   3   5
BRANCH   2  21
ATOM     21  C   UNL     1       2.588   8.051  17.892  0.00  0.00    +0.000 A 
ATOM     22  C   UNL     1       3.782   7.970  17.169  0.00  0.00    +0.000 A 
ATOM     23  C   UNL     1       4.608   6.860  17.331  0.00  0.00    +0.000 A 
ATOM     24  C   UNL     1       4.225   5.818  18.185  0.00  0.00    +0.000 A 
ATOM     25  C   UNL     1       2.989   5.834  18.854  0.00  0.00    +0.000 A 
ATOM     26  C   UNL     1       2.213   7.003  18.741  0.00  0.00    +0.000 A 
BRANCH  25  27
ATOM     27  C   UNL     1       2.450   4.677  19.608  0.00  0.00    +0.000 A 
ATOM     28  N   UNL     1       2.644   4.764  20.953  0.00  0.00    +0.000 NA
ATOM     29  C   UNL     1       2.097   3.823  21.752  0.00  0.00    +0.000 A 
ATOM     30  C   UNL     1       1.354   2.763  21.280  0.00  0.00    +0.000 A 
ATOM     31  C   UNL     1       1.157   2.670  19.910  0.00  0.00    +0.000 A 
ATOM     32  C   UNL     1       1.686   3.645  19.047  0.00  0.00    +0.000 A 
BRANCH  32  33
ATOM     33  C   UNL     1       1.392   3.541  17.580  0.00  0.00    +0.000 C 
ATOM     34  F   UNL     1       0.814   4.672  17.087  0.00  0.00    +0.000 F 
ATOM     35  F   UNL     1       2.513   3.351  16.822  0.00  0.00    +0.000 F 
ENDBRANCH  32  33
ENDBRANCH  25  27
ENDBRANCH   2  21
TORSDOF 6
ENDMDL
MODEL 2
REMARK VINA RESULT:      -7.7      2.630      8.121
REMARK  Name = 
REMARK  6 active torsions:
REMARK  status: ('A' for Active; 'I' for Inactive)
REMARK    1  A    between atoms: C_2  and  C_20
REMARK    2  A    between atoms: N_3  and  C_4
REMARK    3  A    between atoms: C_8  and  C_9
REMARK    4  A    between atoms: C_13  and  C_14
REMARK    5  A    between atoms: C_24  and  C_25
REMARK    6  A    between atoms: C_30  and  C_31
REMARK                            x       y       z     vdW  Elec       q    Type
REMARK                         _______ _______ _______ _____ _____    ______ ____
ROOT
ATOM      1  O   UNL     1       1.377   7.244  17.446  0.00  0.00    +0.000 OA
ATOM      2  C   UNL     1       1.737   7.749  18.498  0.00  0.00    +0.000 C 
ATOM      3  N   UNL     1       2.213   7.063  19.600  0.00  0.00    +0.000 N 
ATOM      4  H   UNL     1       2.290   7.576  20.464  0.00  0.00    +0.000 HD
ENDROOT
BRANCH   3   5
ATOM      5  C   UNL     1       2.176   5.658  19.713  0.00  0.00    +0.000 A 
ATOM      6  C   UNL     1       1.067   5.114  20.380  0.00  0.00    +0.000 A 
ATOM      7  C   UNL     1       0.958   3.750  20.572  0.00  0.00    +0.000 A 
ATOM      8  C   UNL     1       1.960   2.922  20.091  0.00  0.00    +0.000 A 
ATOM      9  C   UNL     1       3.104   3.436  19.426  0.00  0.00    +0.000 A 
ATOM     10  C   UNL     1       3.243   4.843  19.219  0.00  0.00    +0.000 A 
BRANCH  10  11
ATOM     11  C   UNL     1       4.376   5.463  18.446  0.00  0.00    +0.000 A 
ATOM     12  C   UNL     1       4.289   5.762  17.075  0.00  0.00    +0.000 A 
ATOM     13  C   UNL     1       5.397   6.187  16.337  0.00  0.00    +0.000 A 
ATOM     14  C   UNL     1       6.579   6.411  17.009  0.00  0.00    +0.000 A 
ATOM     15  N   UNL     1       6.721   6.198  18.328  0.00  0.00    +0.000 NA
ATOM     16  C   UNL     1       5.641   5.706  18.995  0.00  0.00    +0.000 A 
ENDBRANCH  10  11
BRANCH   9  17
ATOM     17  C   UNL     1       4.114   2.397  18.975  0.00  0.00    +0.000 C 
ATOM     18  F   UNL     1       3.591   1.136  18.904  0.00  0.00    +0.000 F 
ATOM     19  F   UNL     1       4.607   2.636  17.729  0.00  0.00    +0.000 F 
ATOM     20  F   UNL     1       5.184   2.292  19.807  0.00  0.00    +0.000 F 
ENDBRANCH   9  17
ENDBRANCH   3   5
BRANCH   2  21
ATOM     21  C   UNL     1       1.647   9.220  18.672  0.00  0.00    +0.000 A 
ATOM     22  C   UNL     1       2.475  10.112  17.986  0.00  0.00    +0.000 A 
ATOM     23  C   UNL     1       2.334  11.482  18.200  0.00  0.00    +0.000 A 
ATOM     24  C   UNL     1       1.393  11.955  19.124  0.00  0.00    +0.000 A 
ATOM     25  C   UNL     1       0.611  11.074  19.891  0.00  0.00    +0.000 A 
ATOM     26  C   UNL     1       0.711   9.702  19.595  0.00  0.00    +0.000 A 
BRANCH  25  27
ATOM     27  C   UNL     1      -0.252  11.511  21.014  0.00  0.00    +0.000 A 
ATOM     28  N   UNL     1      -0.911  12.678  20.774  0.00  0.00    +0.000 NA
ATOM     29  C   UNL     1      -1.812  13.115  21.681  0.00  0.00    +0.000 A 
ATOM     30  C   UNL     1      -2.098  12.448  22.851  0.00  0.00    +0.000 A 
ATOM     31  C   UNL     1      -1.427  11.260  23.100  0.00  0.00    +0.000 A 
ATOM     32  C   UNL     1      -0.502  10.756  22.168  0.00  0.00    +0.000 A 
BRANCH  32  33
ATOM     33  C   UNL     1       0.152   9.436  22.448  0.00  0.00    +0.000 C 
ATOM     34  F   UNL     1       0.493   9.296  23.760  0.00  0.00    +0.000 F 
ATOM     35  F   UNL     1      -0.657   8.370  22.172  0.00  0.00    +0.000 F 
ENDBRANCH  32  33
ENDBRANCH  25  27
ENDBRANCH   2  21
TORSDOF 6
ENDMDL
MODEL 3
REMARK VINA RESULT:      -7.7      1.810      8.405
REMARK  Name = 
REMARK  6 active torsions:
REMARK  status: ('A' for Active; 'I' for Inactive)
REMARK    1  A    between atoms: C_2  and  C_20
REMARK    2  A    between atoms: N_3  and  C_4
REMARK    3  A    between atoms: C_8  and  C_9
REMARK    4  A    between atoms: C_13  and  C_14
REMARK    5  A    between atoms: C_24  and  C_25
REMARK    6  A    between atoms: C_30  and  C_31
REMARK                            x       y       z     vdW  Elec       q    Type
REMARK                         _______ _______ _______ _____ _____    ______ ____
ROOT
ATOM      1  O   UNL     1       1.581   8.972  17.972  0.00  0.00    +0.000 OA
ATOM      2  C   UNL     1       1.752   8.505  19.087  0.00  0.00    +0.000 C 
ATOM      3  N   UNL     1       2.630   7.486  19.409  0.00  0.00    +0.000 N 
ATOM      4  H   UNL     1       2.533   7.065  20.320  0.00  0.00    +0.000 HD
ENDROOT
BRANCH   3   5
ATOM      5  C   UNL     1       3.322   6.726  18.444  0.00  0.00    +0.000 A 
ATOM      6  C   UNL     1       4.068   7.447  17.499  0.00  0.00    +0.000 A 
ATOM      7  C   UNL     1       4.752   6.793  16.492  0.00  0.00    +0.000 A 
ATOM      8  C   UNL     1       4.696   5.409  16.430  0.00  0.00    +0.000 A 
ATOM      9  C   UNL     1       3.939   4.647  17.358  0.00  0.00    +0.000 A 
ATOM     10  C   UNL     1       3.218   5.299  18.406  0.00  0.00    +0.000 A 
BRANCH  10  11
ATOM     11  C   UNL     1       2.467   4.564  19.483  0.00  0.00    +0.000 A 
ATOM     12  C   UNL     1       2.992   4.355  20.770  0.00  0.00    +0.000 A 
ATOM     13  C   UNL     1       2.354   3.537  21.707  0.00  0.00    +0.000 A 
ATOM     14  C   UNL     1       1.126   3.005  21.377  0.00  0.00    +0.000 A 
ATOM     15  N   UNL     1       0.540   3.205  20.185  0.00  0.00    +0.000 NA
ATOM     16  C   UNL     1       1.231   3.942  19.271  0.00  0.00    +0.000 A 
ENDBRANCH  10  11
BRANCH   9  17
ATOM     17  C   UNL     1       3.970   3.145  17.141  0.00  0.00    +0.000 C 
ATOM     18  F   UNL     1       4.251   2.445  18.281  0.00  0.00    +0.000 F 
ATOM     19  F   UNL     1       2.779   2.643  16.714  0.00  0.00    +0.000 F 
ATOM     20  F   UNL     1       4.908   2.751  16.240  0.00  0.00    +0.000 F 
ENDBRANCH   9  17
ENDBRANCH   3   5
BRANCH   2  21
ATOM     21  C   UNL     1       0.950   9.017  20.225  0.00  0.00    +0.000 A 
ATOM     22  C   UNL     1       0.363   8.175  21.173  0.00  0.00    +0.000 A 
ATOM     23  C   UNL     1      -0.378   8.727  22.217  0.00  0.00    +0.000 A 
ATOM     24  C   UNL     1      -0.561  10.113  22.290  0.00  0.00    +0.000 A 
ATOM     25  C   UNL     1      -0.056  10.974  21.301  0.00  0.00    +0.000 A 
ATOM     26  C   UNL     1       0.759  10.401  20.306  0.00  0.00    +0.000 A 
BRANCH  25  27
ATOM     27  C   UNL     1      -0.385  12.417  21.224  0.00  0.00    +0.000 A 
ATOM     28  N   UNL     1       0.547  13.222  21.804  0.00  0.00    +0.000 NA
ATOM     29  C   UNL     1       0.410  14.561  21.697  0.00  0.00    +0.000 A 
ATOM     30  C   UNL     1      -0.636  15.167  21.036  0.00  0.00    +0.000 A 
ATOM     31  C   UNL     1      -1.589  14.350  20.446  0.00  0.00    +0.000 A 
ATOM     32  C   UNL     1      -1.467  12.952  20.511  0.00  0.00    +0.000 A 
BRANCH  32  33
ATOM     33  C   UNL     1      -2.485  12.109  19.802  0.00  0.00    +0.000 C 
ATOM     34  F   UNL     1      -3.679  12.751  19.660  0.00  0.00    +0.000 F 
ATOM     35  F   UNL     1      -2.109  11.767  18.535  0.00  0.00    +0.000 F 
ENDBRANCH  32  33
ENDBRANCH  25  27
ENDBRANCH   2  21
TORSDOF 6
ENDMDL
MODEL 4
REMARK VINA RESULT:      -7.7      2.360      3.607
REMARK  Name = 
REMARK  6 active torsions:
REMARK  status: ('A' for Active; 'I' for Inactive)
REMARK    1  A    between atoms: C_2  and  C_20
REMARK    2  A    between atoms: N_3  and  C_4
REMARK    3  A    between atoms: C_8  and  C_9
REMARK    4  A    between atoms: C_13  and  C_14
REMARK    5  A    between atoms: C_24  and  C_25
REMARK    6  A    between atoms: C_30  and  C_31
REMARK                            x       y       z     vdW  Elec       q    Type
REMARK                         _______ _______ _______ _____ _____    ______ ____
ROOT
ATOM      1  O   UNL     1      -0.710   9.863  19.345  0.00  0.00    +0.000 OA
ATOM      2  C   UNL     1       0.356   9.678  19.912  0.00  0.00    +0.000 C 
ATOM      3  N   UNL     1       0.751  10.266  21.099  0.00  0.00    +0.000 N 
ATOM      4  H   UNL     1       1.722  10.181  21.355  0.00  0.00    +0.000 HD
ENDROOT
BRANCH   3   5
ATOM      5  C   UNL     1       0.033  11.306  21.725  0.00  0.00    +0.000 A 
ATOM      6  C   UNL     1      -0.906  10.922  22.695  0.00  0.00    +0.000 A 
ATOM      7  C   UNL     1      -1.683  11.867  23.337  0.00  0.00    +0.000 A 
ATOM      8  C   UNL     1      -1.520  13.205  23.014  0.00  0.00    +0.000 A 
ATOM      9  C   UNL     1      -0.593  13.630  22.027  0.00  0.00    +0.000 A 
ATOM     10  C   UNL     1       0.221  12.673  21.344  0.00  0.00    +0.000 A 
BRANCH  10  11
ATOM     11  C   UNL     1       1.290  13.045  20.352  0.00  0.00    +0.000 A 
ATOM     12  C   UNL     1       2.553  13.527  20.740  0.00  0.00    +0.000 A 
ATOM     13  C   UNL     1       3.475  14.018  19.812  0.00  0.00    +0.000 A 
ATOM     14  C   UNL     1       3.161  13.928  18.472  0.00  0.00    +0.000 A 
ATOM     15  N   UNL     1       1.995  13.431  18.028  0.00  0.00    +0.000 NA
ATOM     16  C   UNL     1       1.091  13.039  18.967  0.00  0.00    +0.000 A 
ENDBRANCH  10  11
BRANCH   9  17
ATOM     17  C   UNL     1      -0.548  15.127  21.781  0.00  0.00    +0.000 C 
ATOM     18  F   UNL     1      -0.729  15.461  20.468  0.00  0.00    +0.000 F 
ATOM     19  F   UNL     1      -1.521  15.807  22.447  0.00  0.00    +0.000 F 
ATOM     20  F   UNL     1       0.637  15.694  22.132  0.00  0.00    +0.000 F 
ENDBRANCH   9  17
ENDBRANCH   3   5
BRANCH   2  21
ATOM     21  C   UNL     1       1.363   8.777  19.299  0.00  0.00    +0.000 A 
ATOM     22  C   UNL     1       2.119   9.141  18.181  0.00  0.00    +0.000 A 
ATOM     23  C   UNL     1       3.048   8.243  17.659  0.00  0.00    +0.000 A 
ATOM     24  C   UNL     1       3.194   6.973  18.231  0.00  0.00    +0.000 A 
ATOM     25  C   UNL     1       2.384   6.551  19.299  0.00  0.00    +0.000 A 
ATOM     26  C   UNL     1       1.515   7.505  19.862  0.00  0.00    +0.000 A 
BRANCH  25  27
ATOM     27  C   UNL     1       2.360   5.160  19.810  0.00  0.00    +0.000 A 
ATOM     28  N   UNL     1       2.374   5.077  21.169  0.00  0.00    +0.000 NA
ATOM     29  C   UNL     1       2.242   3.864  21.749  0.00  0.00    +0.000 A 
ATOM     30  C   UNL     1       2.102   2.692  21.038  0.00  0.00    +0.000 A 
ATOM     31  C   UNL     1       2.089   2.773  19.653  0.00  0.00    +0.000 A 
ATOM     32  C   UNL     1       2.196   4.020  19.011  0.00  0.00    +0.000 A 
BRANCH  32  33
ATOM     33  C   UNL     1       2.112   4.066  17.515  0.00  0.00    +0.000 C 
ATOM     34  F   UNL     1       2.252   2.833  16.951  0.00  0.00    +0.000 F 
ATOM     35  F   UNL     1       0.911   4.534  17.061  0.00  0.00    +0.000 F 
ENDBRANCH  32  33
ENDBRANCH  25  27
ENDBRANCH   2  21
TORSDOF 6
ENDMDL
MODEL 5
REMARK VINA RESULT:      -7.6      2.975      4.184
REMARK  Name = 
REMARK  6 active torsions:
REMARK  status: ('A' for Active; 'I' for Inactive)
REMARK    1  A    between atoms: C_2  and  C_20
REMARK    2  A    between atoms: N_3  and  C_4
REMARK    3  A    between atoms: C_8  and  C_9
REMARK    4  A    between atoms: C_13  and  C_14
REMARK    5  A    between atoms: C_24  and  C_25
REMARK    6  A    between atoms: C_30  and  C_31
REMARK                            x       y       z     vdW  Elec       q    Type
REMARK                         _______ _______ _______ _____ _____    ______ ____
ROOT
ATOM      1  O   UNL     1       1.455   9.525  22.306  0.00  0.00    +0.000 OA
ATOM      2  C   UNL     1       1.189   9.776  21.141  0.00  0.00    +0.000 C 
ATOM      3  N   UNL     1       0.498  10.887  20.692  0.00  0.00    +0.000 N 
ATOM      4  H   UNL     1       0.178  10.876  19.737  0.00  0.00    +0.000 HD
ENDROOT
BRANCH   3   5
ATOM      5  C   UNL     1      -0.149  11.796  21.554  0.00  0.00    +0.000 A 
ATOM      6  C   UNL     1      -1.134  11.261  22.399  0.00  0.00    +0.000 A 
ATOM      7  C   UNL     1      -1.849  12.079  23.254  0.00  0.00    +0.000 A 
ATOM      8  C   UNL     1      -1.576  13.438  23.271  0.00  0.00    +0.000 A 
ATOM      9  C   UNL     1      -0.598  14.017  22.420  0.00  0.00    +0.000 A 
ATOM     10  C   UNL     1       0.151  13.195  21.522  0.00  0.00    +0.000 A 
BRANCH  10  11
ATOM     11  C   UNL     1       1.266  13.712  20.653  0.00  0.00    +0.000 A 
ATOM     12  C   UNL     1       2.593  13.824  21.104  0.00  0.00    +0.000 A 
ATOM     13  C   UNL     1       3.583  14.452  20.344  0.00  0.00    +0.000 A 
ATOM     14  C   UNL     1       3.256  14.881  19.075  0.00  0.00    +0.000 A 
ATOM     15  N   UNL     1       2.022  14.759  18.559  0.00  0.00    +0.000 NA
ATOM     16  C   UNL     1       1.066  14.215  19.363  0.00  0.00    +0.000 A 
ENDBRANCH  10  11
BRANCH   9  17
ATOM     17  C   UNL     1      -0.432  15.519  22.551  0.00  0.00    +0.000 C 
ATOM     18  F   UNL     1      -1.291  16.077  23.457  0.00  0.00    +0.000 F 
ATOM     19  F   UNL     1       0.806  15.884  22.981  0.00  0.00    +0.000 F 
ATOM     20  F   UNL     1      -0.658  16.188  21.389  0.00  0.00    +0.000 F 
ENDBRANCH   9  17
ENDBRANCH   3   5
BRANCH   2  21
ATOM     21  C   UNL     1       1.590   8.823  20.077  0.00  0.00    +0.000 A 
ATOM     22  C   UNL     1       1.622   9.172  18.724  0.00  0.00    +0.000 A 
ATOM     23  C   UNL     1       2.010   8.224  17.779  0.00  0.00    +0.000 A 
ATOM     24  C   UNL     1       2.329   6.922  18.182  0.00  0.00    +0.000 A 
ATOM     25  C   UNL     1       2.220   6.521  19.525  0.00  0.00    +0.000 A 
ATOM     26  C   UNL     1       1.909   7.517  20.469  0.00  0.00    +0.000 A 
BRANCH  25  27
ATOM     27  C   UNL     1       2.354   5.115  19.974  0.00  0.00    +0.000 A 
ATOM     28  N   UNL     1       1.236   4.626  20.580  0.00  0.00    +0.000 NA
ATOM     29  C   UNL     1       1.202   3.322  20.929  0.00  0.00    +0.000 A 
ATOM     30  C   UNL     1       2.247   2.450  20.715  0.00  0.00    +0.000 A 
ATOM     31  C   UNL     1       3.388   2.945  20.101  0.00  0.00    +0.000 A 
ATOM     32  C   UNL     1       3.452   4.290  19.696  0.00  0.00    +0.000 A 
BRANCH  32  33
ATOM     33  C   UNL     1       4.679   4.765  18.976  0.00  0.00    +0.000 C 
ATOM     34  F   UNL     1       5.395   5.661  19.712  0.00  0.00    +0.000 F 
ATOM     35  F   UNL     1       5.554   3.757  18.688  0.00  0.00    +0.000 F 
ENDBRANCH  32  33
ENDBRANCH  25  27
ENDBRANCH   2  21
TORSDOF 6
ENDMDL
MODEL 6
REMARK VINA RESULT:      -7.5      2.765      4.074
REMARK  Name = 
REMARK  6 active torsions:
REMARK  status: ('A' for Active; 'I' for Inactive)
REMARK    1  A    between atoms: C_2  and  C_20
REMARK    2  A    between atoms: N_3  and  C_4
REMARK    3  A    between atoms: C_8  and  C_9
REMARK    4  A    between atoms: C_13  and  C_14
REMARK    5  A    between atoms: C_24  and  C_25
REMARK    6  A    between atoms: C_30  and  C_31
REMARK                            x       y       z     vdW  Elec       q    Type
REMARK                         _______ _______ _______ _____ _____    ______ ____
ROOT
ATOM      1  O   UNL     1       0.394  10.605  17.923  0.00  0.00    +0.000 OA
ATOM      2  C   UNL     1       1.110  10.436  18.898  0.00  0.00    +0.000 C 
ATOM      3  N   UNL     1       1.686  11.435  19.660  0.00  0.00    +0.000 N 
ATOM      4  H   UNL     1       2.405  11.163  20.310  0.00  0.00    +0.000 HD
ENDROOT
BRANCH   3   5
ATOM      5  C   UNL     1       1.660  12.798  19.296  0.00  0.00    +0.000 A 
ATOM      6  C   UNL     1       2.663  13.227  18.413  0.00  0.00    +0.000 A 
ATOM      7  C   UNL     1       2.742  14.551  18.026  0.00  0.00    +0.000 A 
ATOM      8  C   UNL     1       1.812  15.453  18.519  0.00  0.00    +0.000 A 
ATOM      9  C   UNL     1       0.794  15.059  19.426  0.00  0.00    +0.000 A 
ATOM     10  C   UNL     1       0.692  13.697  19.846  0.00  0.00    +0.000 A 
BRANCH  10  11
ATOM     11  C   UNL     1      -0.409  13.178  20.732  0.00  0.00    +0.000 A 
ATOM     12  C   UNL     1      -1.661  12.777  20.234  0.00  0.00    +0.000 A 
ATOM     13  C   UNL     1      -2.724  12.450  21.080  0.00  0.00    +0.000 A 
ATOM     14  C   UNL     1      -2.493  12.429  22.438  0.00  0.00    +0.000 A 
ATOM     15  N   UNL     1      -1.307  12.749  22.982  0.00  0.00    +0.000 NA
ATOM     16  C   UNL     1      -0.320  13.141  22.128  0.00  0.00    +0.000 A 
ENDBRANCH  10  11
BRANCH   9  17
ATOM     17  C   UNL     1      -0.134  16.171  19.882  0.00  0.00    +0.000 C 
ATOM     18  F   UNL     1      -0.141  16.340  21.239  0.00  0.00    +0.000 F 
ATOM     19  F   UNL     1       0.210  17.390  19.386  0.00  0.00    +0.000 F 
ATOM     20  F   UNL     1      -1.433  15.960  19.543  0.00  0.00    +0.000 F 
ENDBRANCH   9  17
ENDBRANCH   3   5
BRANCH   2  21
ATOM     21  C   UNL     1       1.450   9.056  19.324  0.00  0.00    +0.000 A 
ATOM     22  C   UNL     1       1.128   8.557  20.589  0.00  0.00    +0.000 A 
ATOM     23  C   UNL     1       1.479   7.250  20.921  0.00  0.00    +0.000 A 
ATOM     24  C   UNL     1       2.182   6.457  20.005  0.00  0.00    +0.000 A 
ATOM     25  C   UNL     1       2.595   6.965  18.761  0.00  0.00    +0.000 A 
ATOM     26  C   UNL     1       2.155   8.256  18.417  0.00  0.00    +0.000 A 
BRANCH  25  27
ATOM     27  C   UNL     1       3.504   6.241  17.842  0.00  0.00    +0.000 A 
ATOM     28  N   UNL     1       4.626   6.942  17.520  0.00  0.00    +0.000 NA
ATOM     29  C   UNL     1       5.581   6.338  16.779  0.00  0.00    +0.000 A 
ATOM     30  C   UNL     1       5.480   5.044  16.317  0.00  0.00    +0.000 A 
ATOM     31  C   UNL     1       4.337   4.328  16.642  0.00  0.00    +0.000 A 
ATOM     32  C   UNL     1       3.333   4.911  17.435  0.00  0.00    +0.000 A 
BRANCH  32  33
ATOM     33  C   UNL     1       2.146   4.078  17.816  0.00  0.00    +0.000 C 
ATOM     34  F   UNL     1       0.984   4.567  17.298  0.00  0.00    +0.000 F 
ATOM     35  F   UNL     1       2.227   2.792  17.363  0.00  0.00    +0.000 F 
ENDBRANCH  32  33
ENDBRANCH  25  27
ENDBRANCH   2  21
TORSDOF 6
ENDMDL
MODEL 7
REMARK VINA RESULT:      -7.4      2.966      4.225
REMARK  Name = 
REMARK  6 active torsions:
REMARK  status: ('A' for Active; 'I' for Inactive)
REMARK    1  A    between atoms: C_2  and  C_20
REMARK    2  A    between atoms: N_3  and  C_4
REMARK    3  A    between atoms: C_8  and  C_9
REMARK    4  A    between atoms: C_13  and  C_14
REMARK    5  A    between atoms: C_24  and  C_25
REMARK    6  A    between atoms: C_30  and  C_31
REMARK                            x       y       z     vdW  Elec       q    Type
REMARK                         _______ _______ _______ _____ _____    ______ ____
ROOT
ATOM      1  O   UNL     1       1.387   9.800  22.315  0.00  0.00    +0.000 OA
ATOM      2  C   UNL     1       1.067  10.046  21.162  0.00  0.00    +0.000 C 
ATOM      3  N   UNL     1       0.326  11.136  20.745  0.00  0.00    +0.000 N 
ATOM      4  H   UNL     1      -0.032  11.117  19.804  0.00  0.00    +0.000 HD
ENDROOT
BRANCH   3   5
ATOM      5  C   UNL     1      -0.314  12.022  21.635  0.00  0.00    +0.000 A 
ATOM      6  C   UNL     1      -1.320  11.475  22.447  0.00  0.00    +0.000 A 
ATOM      7  C   UNL     1      -2.029  12.272  23.326  0.00  0.00    +0.000 A 
ATOM      8  C   UNL     1      -1.729  13.623  23.400  0.00  0.00    +0.000 A 
ATOM      9  C   UNL     1      -0.730  14.216  22.584  0.00  0.00    +0.000 A 
ATOM     10  C   UNL     1       0.014  13.415  21.663  0.00  0.00    +0.000 A 
BRANCH  10  11
ATOM     11  C   UNL     1       1.149  13.944  20.828  0.00  0.00    +0.000 A 
ATOM     12  C   UNL     1       0.967  14.450  19.528  0.00  0.00    +0.000 A 
ATOM     13  C   UNL     1       2.046  14.788  18.707  0.00  0.00    +0.000 A 
ATOM     14  C   UNL     1       3.316  14.712  19.237  0.00  0.00    +0.000 A 
ATOM     15  N   UNL     1       3.561  14.287  20.487  0.00  0.00    +0.000 NA
ATOM     16  C   UNL     1       2.489  13.890  21.228  0.00  0.00    +0.000 A 
ENDBRANCH  10  11
BRANCH   9  17
ATOM     17  C   UNL     1      -0.536  15.709  22.777  0.00  0.00    +0.000 C 
ATOM     18  F   UNL     1       0.731  16.039  23.169  0.00  0.00    +0.000 F 
ATOM     19  F   UNL     1      -0.741  16.425  21.638  0.00  0.00    +0.000 F 
ATOM     20  F   UNL     1      -1.352  16.239  23.726  0.00  0.00    +0.000 F 
ENDBRANCH   9  17
ENDBRANCH   3   5
BRANCH   2  21
ATOM     21  C   UNL     1       1.455   9.108  20.080  0.00  0.00    +0.000 A 
ATOM     22  C   UNL     1       1.423   9.461  18.728  0.00  0.00    +0.000 A 
ATOM     23  C   UNL     1       1.801   8.527  17.765  0.00  0.00    +0.000 A 
ATOM     24  C   UNL     1       2.175   7.234  18.151  0.00  0.00    +0.000 A 
ATOM     25  C   UNL     1       2.130   6.826  19.496  0.00  0.00    +0.000 A 
ATOM     26  C   UNL     1       1.828   7.811  20.455  0.00  0.00    +0.000 A 
BRANCH  25  27
ATOM     27  C   UNL     1       2.323   5.424  19.934  0.00  0.00    +0.000 A 
ATOM     28  N   UNL     1       1.190   4.842  20.416  0.00  0.00    +0.000 NA
ATOM     29  C   UNL     1       1.219   3.531  20.740  0.00  0.00    +0.000 A 
ATOM     30  C   UNL     1       2.342   2.742  20.619  0.00  0.00    +0.000 A 
ATOM     31  C   UNL     1       3.498   3.333  20.131  0.00  0.00    +0.000 A 
ATOM     32  C   UNL     1       3.502   4.688  19.756  0.00  0.00    +0.000 A 
BRANCH  32  33
ATOM     33  C   UNL     1       4.756   5.267  19.171  0.00  0.00    +0.000 C 
ATOM     34  F   UNL     1       5.869   4.579  19.551  0.00  0.00    +0.000 F 
ATOM     35  F   UNL     1       4.769   5.246  17.806  0.00  0.00    +0.000 F 
ENDBRANCH  32  33
ENDBRANCH  25  27
ENDBRANCH   2  21
TORSDOF 6
ENDMDL
MODEL 8
REMARK VINA RESULT:      -7.4      2.115      3.854
REMARK  Name = 
REMARK  6 active torsions:
REMARK  status: ('A' for Active; 'I' for Inactive)
REMARK    1  A    between atoms: C_2  and  C_20
REMARK    2  A    between atoms: N_3  and  C_4
REMARK    3  A    between atoms: C_8  and  C_9
REMARK    4  A    between atoms: C_13  and  C_14
REMARK    5  A    between atoms: C_24  and  C_25
REMARK    6  A    between atoms: C_30  and  C_31
REMARK                            x       y       z     vdW  Elec       q    Type
REMARK                         _______ _______ _______ _____ _____    ______ ____
ROOT
ATOM      1  O   UNL     1      -0.066   8.885  21.558  0.00  0.00    +0.000 OA
ATOM      2  C   UNL     1       0.424   9.490  20.618  0.00  0.00    +0.000 C 
ATOM      3  N   UNL     1       0.201  10.820  20.309  0.00  0.00    +0.000 N 
ATOM      4  H   UNL     1       0.509  11.141  19.405  0.00  0.00    +0.000 HD
ENDROOT
BRANCH   3   5
ATOM      5  C   UNL     1      -0.775  11.609  20.950  0.00  0.00    +0.000 A 
ATOM      6  C   UNL     1      -0.441  12.109  22.218  0.00  0.00    +0.000 A 
ATOM      7  C   UNL     1      -1.346  12.863  22.940  0.00  0.00    +0.000 A 
ATOM      8  C   UNL     1      -2.592  13.126  22.391  0.00  0.00    +0.000 A 
ATOM      9  C   UNL     1      -2.972  12.625  21.118  0.00  0.00    +0.000 A 
ATOM     10  C   UNL     1      -2.056  11.838  20.353  0.00  0.00    +0.000 A 
BRANCH  10  11
ATOM     11  C   UNL     1      -2.344  11.345  18.961  0.00  0.00    +0.000 A 
ATOM     12  C   UNL     1      -2.993  10.124  18.704  0.00  0.00    +0.000 A 
ATOM     13  C   UNL     1      -3.111   9.605  17.412  0.00  0.00    +0.000 A 
ATOM     14  C   UNL     1      -2.660  10.372  16.359  0.00  0.00    +0.000 A 
ATOM     15  N   UNL     1      -2.077  11.570  16.526  0.00  0.00    +0.000 NA
ATOM     16  C   UNL     1      -1.908  12.004  17.805  0.00  0.00    +0.000 A 
ENDBRANCH  10  11
BRANCH   9  17
ATOM     17  C   UNL     1      -4.375  12.991  20.669  0.00  0.00    +0.000 C 
ATOM     18  F   UNL     1      -5.226  11.921  20.646  0.00  0.00    +0.000 F 
ATOM     19  F   UNL     1      -4.979  13.894  21.489  0.00  0.00    +0.000 F 
ATOM     20  F   UNL     1      -4.419  13.509  19.413  0.00  0.00    +0.000 F 
ENDBRANCH   9  17
ENDBRANCH   3   5
BRANCH   2  21
ATOM     21  C   UNL     1       1.320   8.776  19.675  0.00  0.00    +0.000 A 
ATOM     22  C   UNL     1       1.663   9.292  18.422  0.00  0.00    +0.000 A 
ATOM     23  C   UNL     1       2.510   8.564  17.589  0.00  0.00    +0.000 A 
ATOM     24  C   UNL     1       2.984   7.310  17.992  0.00  0.00    +0.000 A 
ATOM     25  C   UNL     1       2.583   6.729  19.208  0.00  0.00    +0.000 A 
ATOM     26  C   UNL     1       1.797   7.519  20.068  0.00  0.00    +0.000 A 
BRANCH  25  27
ATOM     27  C   UNL     1       2.894   5.332  19.591  0.00  0.00    +0.000 A 
ATOM     28  N   UNL     1       1.806   4.624  20.003  0.00  0.00    +0.000 NA
ATOM     29  C   UNL     1       1.949   3.308  20.270  0.00  0.00    +0.000 A 
ATOM     30  C   UNL     1       3.145   2.634  20.157  0.00  0.00    +0.000 A 
ATOM     31  C   UNL     1       4.256   3.353  19.740  0.00  0.00    +0.000 A 
ATOM     32  C   UNL     1       4.143   4.719  19.425  0.00  0.00    +0.000 A 
BRANCH  32  33
ATOM     33  C   UNL     1       5.355   5.440  18.915  0.00  0.00    +0.000 C 
ATOM     34  F   UNL     1       6.447   5.240  19.706  0.00  0.00    +0.000 F 
ATOM     35  F   UNL     1       5.736   5.031  17.669  0.00  0.00    +0.000 F 
ENDBRANCH  32  33
ENDBRANCH  25  27
ENDBRANCH   2  21
TORSDOF 6
ENDMDL
MODEL 9
REMARK VINA RESULT:      -7.4      2.220      8.221
REMARK  Name = 
REMARK  6 active torsions:
REMARK  status: ('A' for Active; 'I' for Inactive)
REMARK    1  A    between atoms: C_2  and  C_20
REMARK    2  A    between atoms: N_3  and  C_4
REMARK    3  A    between atoms: C_8  and  C_9
REMARK    4  A    between atoms: C_13  and  C_14
REMARK    5  A    between atoms: C_24  and  C_25
REMARK    6  A    between atoms: C_30  and  C_31
REMARK                            x       y       z     vdW  Elec       q    Type
REMARK                         _______ _______ _______ _____ _____    ______ ____
ROOT
ATOM      1  O   UNL     1       1.290   7.270  17.430  0.00  0.00    +0.000 OA
ATOM      2  C   UNL     1       1.723   7.826  18.427  0.00  0.00    +0.000 C 
ATOM      3  N   UNL     1       2.276   7.197  19.527  0.00  0.00    +0.000 N 
ATOM      4  H   UNL     1       2.413   7.752  20.356  0.00  0.00    +0.000 HD
ENDROOT
BRANCH   3   5
ATOM      5  C   UNL     1       2.248   5.799  19.714  0.00  0.00    +0.000 A 
ATOM      6  C   UNL     1       1.158   5.286  20.434  0.00  0.00    +0.000 A 
ATOM      7  C   UNL     1       1.061   3.933  20.699  0.00  0.00    +0.000 A 
ATOM      8  C   UNL     1       2.056   3.085  20.237  0.00  0.00    +0.000 A 
ATOM      9  C   UNL     1       3.181   3.568  19.520  0.00  0.00    +0.000 A 
ATOM     10  C   UNL     1       3.308   4.964  19.237  0.00  0.00    +0.000 A 
BRANCH  10  11
ATOM     11  C   UNL     1       4.420   5.547  18.406  0.00  0.00    +0.000 A 
ATOM     12  C   UNL     1       4.295   5.781  17.025  0.00  0.00    +0.000 A 
ATOM     13  C   UNL     1       5.383   6.172  16.240  0.00  0.00    +0.000 A 
ATOM     14  C   UNL     1       6.582   6.428  16.869  0.00  0.00    +0.000 A 
ATOM     15  N   UNL     1       6.759   6.276  18.192  0.00  0.00    +0.000 NA
ATOM     16  C   UNL     1       5.697   5.816  18.910  0.00  0.00    +0.000 A 
ENDBRANCH  10  11
BRANCH   9  17
ATOM     17  C   UNL     1       4.186   2.511  19.100  0.00  0.00    +0.000 C 
ATOM     18  F   UNL     1       3.690   1.240  19.175  0.00  0.00    +0.000 F 
ATOM     19  F   UNL     1       4.594   2.645  17.809  0.00  0.00    +0.000 F 
ATOM     20  F   UNL     1       5.308   2.501  19.867  0.00  0.00    +0.000 F 
ENDBRANCH   9  17
ENDBRANCH   3   5
BRANCH   2  21
ATOM     21  C   UNL     1       1.643   9.304  18.533  0.00  0.00    +0.000 A 
ATOM     22  C   UNL     1       2.574  10.154  17.930  0.00  0.00    +0.000 A 
ATOM     23  C   UNL     1       2.436  11.534  18.072  0.00  0.00    +0.000 A 
ATOM     24  C   UNL     1       1.393  12.059  18.844  0.00  0.00    +0.000 A 
ATOM     25  C   UNL     1       0.496  11.224  19.532  0.00  0.00    +0.000 A 
ATOM     26  C   UNL     1       0.605   9.840  19.304  0.00  0.00    +0.000 A 
BRANCH  25  27
ATOM     27  C   UNL     1      -0.497  11.721  20.514  0.00  0.00    +0.000 A 
ATOM     28  N   UNL     1       0.030  11.974  21.743  0.00  0.00    +0.000 NA
ATOM     29  C   UNL     1      -0.758  12.536  22.686  0.00  0.00    +0.000 A 
ATOM     30  C   UNL     1      -2.080  12.863  22.476  0.00  0.00    +0.000 A 
ATOM     31  C   UNL     1      -2.620  12.604  21.225  0.00  0.00    +0.000 A 
ATOM     32  C   UNL     1      -1.826  12.045  20.208  0.00  0.00    +0.000 A 
BRANCH  32  33
ATOM     33  C   UNL     1      -2.434  11.844  18.852  0.00  0.00    +0.000 C 
ATOM     34  F   UNL     1      -1.706  12.440  17.866  0.00  0.00    +0.000 F 
ATOM     35  F   UNL     1      -2.515  10.529  18.492  0.00  0.00    +0.000 F 
ENDBRANCH  32  33
ENDBRANCH  25  27
ENDBRANCH   2  21
TORSDOF 6
ENDMDL
