MODEL 1
REMARK VINA RESULT:      -8.4      0.000      0.000
REMARK  Name = 
REMARK  6 active torsions:
REMARK  status: ('A' for Active; 'I' for Inactive)
REMARK    1  A    between atoms: N_1  and  C_2
REMARK    2  A    between atoms: C_5  and  N_6
REMARK    3  A    between atoms: N_6  and  C_7
REMARK    4  A    between atoms: N_15  and  C_16
REMARK    5  A    between atoms: C_16  and  C_17
REMARK    6  A    between atoms: C_17  and  C_18
REMARK                            x       y       z     vdW  Elec       q    Type
REMARK                         _______ _______ _______ _____ _____    ______ ____
ROOT
ATOM      1  C   UNL     1       5.043   4.351  17.443  0.00  0.00    +0.000 A 
ATOM      2  N   UNL     1       4.811   4.850  16.194  0.00  0.00    +0.000 NA
ATOM      3  C   UNL     1       5.475   5.933  15.763  0.00  0.00    +0.000 A 
ATOM      4  N   UNL     1       6.395   6.636  16.430  0.00  0.00    +0.000 NA
ATOM      5  C   UNL     1       6.585   6.146  17.665  0.00  0.00    +0.000 A 
ATOM      6  C   UNL     1       5.964   5.052  18.240  0.00  0.00    +0.000 A 
ATOM      7  N   UNL     1       6.453   4.868  19.508  0.00  0.00    +0.000 NA
ATOM      8  N   UNL     1       7.363   5.813  19.740  0.00  0.00    +0.000 NA
ATOM      9  N   UNL     1       7.447   6.582  18.628  0.00  0.00    +0.000 N 
ENDROOT
BRANCH   1  10
ATOM     10  N   UNL     1       4.434   3.158  17.876  0.00  0.00    +0.000 N 
ATOM     11  H   UNL     1       4.288   2.506  17.112  0.00  0.00    +0.000 HD
BRANCH  10  15
ATOM     12  C   UNL     1       1.841   2.799  21.222  0.00  0.00    +0.000 A 
ATOM     13  C   UNL     1       1.364   3.200  19.973  0.00  0.00    +0.000 A 
ATOM     14  C   UNL     1       2.225   3.298  18.871  0.00  0.00    +0.000 A 
ATOM     15  C   UNL     1       3.581   2.968  18.982  0.00  0.00    +0.000 A 
ATOM     16  C   UNL     1       4.016   2.462  20.211  0.00  0.00    +0.000 A 
ATOM     17  C   UNL     1       3.162   2.372  21.313  0.00  0.00    +0.000 A 
BRANCH  12  18
ATOM     18  N   UNL     1       0.967   2.601  22.297  0.00  0.00    +0.000 N 
ATOM     19  H   UNL     1       0.059   2.248  22.018  0.00  0.00    +0.000 HD
ATOM     20  H   UNL     1       0.895   3.409  22.910  0.00  0.00    +0.000 HD
ENDBRANCH  12  18
ENDBRANCH  10  15
ENDBRANCH   1  10
BRANCH   9  21
ATOM     21  C   UNL     1       8.433   7.641  18.543  0.00  0.00    +0.000 C 
BRANCH  21  22
ATOM     22  C   UNL     1       7.914   8.935  17.915  0.00  0.00    +0.000 C 
BRANCH  22  23
ATOM     23  C   UNL     1       8.685  10.151  18.351  0.00  0.00    +0.000 A 
ATOM     24  C   UNL     1       9.532  10.085  19.467  0.00  0.00    +0.000 A 
ATOM     25  C   UNL     1      10.277  11.199  19.853  0.00  0.00    +0.000 A 
ATOM     26  C   UNL     1      10.176  12.387  19.133  0.00  0.00    +0.000 A 
ATOM     27  C   UNL     1       9.328  12.464  18.028  0.00  0.00    +0.000 A 
ATOM     28  C   UNL     1       8.583  11.351  17.639  0.00  0.00    +0.000 A 
ENDBRANCH  22  23
ENDBRANCH  21  22
ENDBRANCH   9  21
TORSDOF 6
ENDMDL
MODEL 2
REMARK VINA RESULT:      -8.4      1.069      1.765
REMARK  Name = 
REMARK  6 active torsions:
REMARK  status: ('A' for Active; 'I' for Inactive)
REMARK    1  A    between atoms: N_1  and  C_2
REMARK    2  A    between atoms: C_5  and  N_6
REMARK    3  A    between atoms: N_6  and  C_7
REMARK    4  A    between atoms: N_15  and  C_16
REMARK    5  A    between atoms: C_16  and  C_17
REMARK    6  A    between atoms: C_17  and  C_18
REMARK                            x       y       z     vdW  Elec       q    Type
REMARK                         _______ _______ _______ _____ _____    ______ ____
ROOT
ATOM      1  C   UNL     1       5.703   4.037  16.697  0.00  0.00    +0.000 A 
ATOM      2  N   UNL     1       6.075   4.277  15.405  0.00  0.00    +0.000 NA
ATOM      3  C   UNL     1       6.925   5.275  15.119  0.00  0.00    +0.000 A 
ATOM      4  N   UNL     1       7.496   6.123  15.980  0.00  0.00    +0.000 NA
ATOM      5  C   UNL     1       7.092   5.888  17.239  0.00  0.00    +0.000 A 
ATOM      6  C   UNL     1       6.218   4.908  17.672  0.00  0.00    +0.000 A 
ATOM      7  N   UNL     1       6.085   4.988  19.035  0.00  0.00    +0.000 NA
ATOM      8  N   UNL     1       6.855   5.988  19.465  0.00  0.00    +0.000 NA
ATOM      9  N   UNL     1       7.466   6.529  18.384  0.00  0.00    +0.000 N 
ENDROOT
BRANCH   1  10
ATOM     10  N   UNL     1       4.895   2.933  17.029  0.00  0.00    +0.000 N 
ATOM     11  H   UNL     1       4.965   2.190  16.341  0.00  0.00    +0.000 HD
BRANCH  10  15
ATOM     12  C   UNL     1       1.296   2.689  19.273  0.00  0.00    +0.000 A 
ATOM     13  C   UNL     1       2.463   2.052  19.699  0.00  0.00    +0.000 A 
ATOM     14  C   UNL     1       3.650   2.154  18.961  0.00  0.00    +0.000 A 
ATOM     15  C   UNL     1       3.709   2.920  17.791  0.00  0.00    +0.000 A 
ATOM     16  C   UNL     1       2.563   3.640  17.440  0.00  0.00    +0.000 A 
ATOM     17  C   UNL     1       1.376   3.533  18.170  0.00  0.00    +0.000 A 
BRANCH  12  18
ATOM     18  N   UNL     1       0.140   2.674  20.059  0.00  0.00    +0.000 N 
ATOM     19  H   UNL     1      -0.616   3.230  19.676  0.00  0.00    +0.000 HD
ATOM     20  H   UNL     1       0.316   2.887  21.038  0.00  0.00    +0.000 HD
ENDBRANCH  12  18
ENDBRANCH  10  15
ENDBRANCH   1  10
BRANCH   9  21
ATOM     21  C   UNL     1       8.450   7.581  18.549  0.00  0.00    +0.000 C 
BRANCH  21  22
ATOM     22  C   UNL     1       8.138   8.860  17.771  0.00  0.00    +0.000 C 
BRANCH  22  23
ATOM     23  C   UNL     1       8.738  10.089  18.398  0.00  0.00    +0.000 A 
ATOM     24  C   UNL     1       8.691  11.319  17.724  0.00  0.00    +0.000 A 
ATOM     25  C   UNL     1       9.213  12.468  18.318  0.00  0.00    +0.000 A 
ATOM     26  C   UNL     1       9.791  12.396  19.584  0.00  0.00    +0.000 A 
ATOM     27  C   UNL     1       9.851  11.176  20.256  0.00  0.00    +0.000 A 
ATOM     28  C   UNL     1       9.328  10.025  19.665  0.00  0.00    +0.000 A 
ENDBRANCH  22  23
ENDBRANCH  21  22
ENDBRANCH   9  21
TORSDOF 6
ENDMDL
MODEL 3
REMARK VINA RESULT:      -8.3      1.777      8.550
REMARK  Name = 
REMARK  6 active torsions:
REMARK  status: ('A' for Active; 'I' for Inactive)
REMARK    1  A    between atoms: N_1  and  C_2
REMARK    2  A    between atoms: C_5  and  N_6
REMARK    3  A    between atoms: N_6  and  C_7
REMARK    4  A    between atoms: N_15  and  C_16
REMARK    5  A    between atoms: C_16  and  C_17
REMARK    6  A    between atoms: C_17  and  C_18
REMARK                            x       y       z     vdW  Elec       q    Type
REMARK                         _______ _______ _______ _____ _____    ______ ____
ROOT
ATOM      1  C   UNL     1       7.571   7.391  17.863  0.00  0.00    +0.000 A 
ATOM      2  N   UNL     1       8.204   6.817  18.929  0.00  0.00    +0.000 NA
ATOM      3  C   UNL     1       7.842   5.598  19.354  0.00  0.00    +0.000 A 
ATOM      4  N   UNL     1       6.887   4.813  18.846  0.00  0.00    +0.000 NA
ATOM      5  C   UNL     1       6.259   5.410  17.819  0.00  0.00    +0.000 A 
ATOM      6  C   UNL     1       6.518   6.660  17.288  0.00  0.00    +0.000 A 
ATOM      7  N   UNL     1       5.670   6.889  16.234  0.00  0.00    +0.000 NA
ATOM      8  N   UNL     1       4.893   5.816  16.090  0.00  0.00    +0.000 NA
ATOM      9  N   UNL     1       5.249   4.921  17.043  0.00  0.00    +0.000 N 
ENDROOT
BRANCH   1  10
ATOM     10  N   UNL     1       8.003   8.624  17.337  0.00  0.00    +0.000 N 
ATOM     11  H   UNL     1       8.371   8.528  16.397  0.00  0.00    +0.000 HD
BRANCH  10  15
ATOM     12  C   UNL     1       9.548  12.062  19.296  0.00  0.00    +0.000 A 
ATOM     13  C   UNL     1       8.793  12.170  18.127  0.00  0.00    +0.000 A 
ATOM     14  C   UNL     1       8.272  11.030  17.499  0.00  0.00    +0.000 A 
ATOM     15  C   UNL     1       8.468   9.754  18.039  0.00  0.00    +0.000 A 
ATOM     16  C   UNL     1       9.131   9.676  19.268  0.00  0.00    +0.000 A 
ATOM     17  C   UNL     1       9.657  10.810  19.892  0.00  0.00    +0.000 A 
BRANCH  12  18
ATOM     18  N   UNL     1       9.981  13.202  19.981  0.00  0.00    +0.000 N 
ATOM     19  H   UNL     1       9.934  14.049  19.425  0.00  0.00    +0.000 HD
ATOM     20  H   UNL     1      10.887  13.084  20.426  0.00  0.00    +0.000 HD
ENDBRANCH  12  18
ENDBRANCH  10  15
ENDBRANCH   1  10
BRANCH   9  21
ATOM     21  C   UNL     1       4.641   3.606  17.076  0.00  0.00    +0.000 C 
BRANCH  21  22
ATOM     22  C   UNL     1       3.116   3.621  17.189  0.00  0.00    +0.000 C 
BRANCH  22  23
ATOM     23  C   UNL     1       2.631   3.500  18.608  0.00  0.00    +0.000 A 
ATOM     24  C   UNL     1       1.372   4.003  18.969  0.00  0.00    +0.000 A 
ATOM     25  C   UNL     1       0.904   3.860  20.274  0.00  0.00    +0.000 A 
ATOM     26  C   UNL     1       1.690   3.220  21.229  0.00  0.00    +0.000 A 
ATOM     27  C   UNL     1       2.947   2.726  20.882  0.00  0.00    +0.000 A 
ATOM     28  C   UNL     1       3.418   2.866  19.577  0.00  0.00    +0.000 A 
ENDBRANCH  22  23
ENDBRANCH  21  22
ENDBRANCH   9  21
TORSDOF 6
ENDMDL
MODEL 4
REMARK VINA RESULT:      -8.3      1.279      1.710
REMARK  Name = 
REMARK  6 active torsions:
REMARK  status: ('A' for Active; 'I' for Inactive)
REMARK    1  A    between atoms: N_1  and  C_2
REMARK    2  A    between atoms: C_5  and  N_6
REMARK    3  A    between atoms: N_6  and  C_7
REMARK    4  A    between atoms: N_15  and  C_16
REMARK    5  A    between atoms: C_16  and  C_17
REMARK    6  A    between atoms: C_17  and  C_18
REMARK                            x       y       z     vdW  Elec       q    Type
REMARK                         _______ _______ _______ _____ _____    ______ ____
ROOT
ATOM      1  C   UNL     1       5.580   3.729  16.351  0.00  0.00    +0.000 A 
ATOM      2  N   UNL     1       6.043   3.654  15.068  0.00  0.00    +0.000 NA
ATOM      3  C   UNL     1       6.840   4.616  14.579  0.00  0.00    +0.000 A 
ATOM      4  N   UNL     1       7.271   5.710  15.214  0.00  0.00    +0.000 NA
ATOM      5  C   UNL     1       6.779   5.778  16.462  0.00  0.00    +0.000 A 
ATOM      6  C   UNL     1       5.944   4.869  17.086  0.00  0.00    +0.000 A 
ATOM      7  N   UNL     1       5.689   5.293  18.366  0.00  0.00    +0.000 NA
ATOM      8  N   UNL     1       6.344   6.438  18.558  0.00  0.00    +0.000 NA
ATOM      9  N   UNL     1       7.005   6.730  17.413  0.00  0.00    +0.000 N 
ENDROOT
BRANCH   1  10
ATOM     10  N   UNL     1       4.829   2.681  16.916  0.00  0.00    +0.000 N 
ATOM     11  H   UNL     1       4.879   1.833  16.360  0.00  0.00    +0.000 HD
BRANCH  10  15
ATOM     12  C   UNL     1       1.450   3.167  19.444  0.00  0.00    +0.000 A 
ATOM     13  C   UNL     1       1.484   3.721  18.163  0.00  0.00    +0.000 A 
ATOM     14  C   UNL     1       2.597   3.539  17.330  0.00  0.00    +0.000 A 
ATOM     15  C   UNL     1       3.693   2.773  17.746  0.00  0.00    +0.000 A 
ATOM     16  C   UNL     1       3.593   2.135  18.986  0.00  0.00    +0.000 A 
ATOM     17  C   UNL     1       2.488   2.321  19.821  0.00  0.00    +0.000 A 
BRANCH  12  18
ATOM     18  N   UNL     1       0.301   3.259  20.237  0.00  0.00    +0.000 N 
ATOM     19  H   UNL     1       0.081   4.207  20.520  0.00  0.00    +0.000 HD
ATOM     20  H   UNL     1       0.302   2.614  21.023  0.00  0.00    +0.000 HD
ENDBRANCH  12  18
ENDBRANCH  10  15
ENDBRANCH   1  10
BRANCH   9  21
ATOM     21  C   UNL     1       7.891   7.875  17.350  0.00  0.00    +0.000 C 
BRANCH  21  22
ATOM     22  C   UNL     1       8.508   8.267  18.694  0.00  0.00    +0.000 C 
BRANCH  22  23
ATOM     23  C   UNL     1       8.867   9.726  18.772  0.00  0.00    +0.000 A 
ATOM     24  C   UNL     1       8.558  10.585  17.707  0.00  0.00    +0.000 A 
ATOM     25  C   UNL     1       8.856  11.945  17.790  0.00  0.00    +0.000 A 
ATOM     26  C   UNL     1       9.469  12.454  18.933  0.00  0.00    +0.000 A 
ATOM     27  C   UNL     1       9.789  11.605  19.992  0.00  0.00    +0.000 A 
ATOM     28  C   UNL     1       9.491  10.245  19.912  0.00  0.00    +0.000 A 
ENDBRANCH  22  23
ENDBRANCH  21  22
ENDBRANCH   9  21
TORSDOF 6
ENDMDL
MODEL 5
REMARK VINA RESULT:      -8.3      1.002      1.359
REMARK  Name = 
REMARK  6 active torsions:
REMARK  status: ('A' for Active; 'I' for Inactive)
REMARK    1  A    between atoms: N_1  and  C_2
REMARK    2  A    between atoms: C_5  and  N_6
REMARK    3  A    between atoms: N_6  and  C_7
REMARK    4  A    between atoms: N_15  and  C_16
REMARK    5  A    between atoms: C_16  and  C_17
REMARK    6  A    between atoms: C_17  and  C_18
REMARK                            x       y       z     vdW  Elec       q    Type
REMARK                         _______ _______ _______ _____ _____    ______ ____
ROOT
ATOM      1  C   UNL     1       5.597   4.756  17.824  0.00  0.00    +0.000 A 
ATOM      2  N   UNL     1       4.894   5.027  16.684  0.00  0.00    +0.000 NA
ATOM      3  C   UNL     1       5.172   6.122  15.962  0.00  0.00    +0.000 A 
ATOM      4  N   UNL     1       6.102   7.046  16.218  0.00  0.00    +0.000 NA
ATOM      5  C   UNL     1       6.760   6.776  17.357  0.00  0.00    +0.000 A 
ATOM      6  C   UNL     1       6.570   5.697  18.201  0.00  0.00    +0.000 A 
ATOM      7  N   UNL     1       7.457   5.776  19.245  0.00  0.00    +0.000 NA
ATOM      8  N   UNL     1       8.197   6.871  19.074  0.00  0.00    +0.000 NA
ATOM      9  N   UNL     1       7.781   7.473  17.934  0.00  0.00    +0.000 N 
ENDROOT
BRANCH   1  10
ATOM     10  N   UNL     1       5.393   3.561  18.539  0.00  0.00    +0.000 N 
ATOM     11  H   UNL     1       5.764   2.755  18.048  0.00  0.00    +0.000 HD
BRANCH  10  15
ATOM     12  C   UNL     1       2.381   2.843  21.448  0.00  0.00    +0.000 A 
ATOM     13  C   UNL     1       2.298   3.924  20.568  0.00  0.00    +0.000 A 
ATOM     14  C   UNL     1       3.288   4.141  19.600  0.00  0.00    +0.000 A 
ATOM     15  C   UNL     1       4.373   3.266  19.467  0.00  0.00    +0.000 A 
ATOM     16  C   UNL     1       4.380   2.130  20.282  0.00  0.00    +0.000 A 
ATOM     17  C   UNL     1       3.399   1.915  21.253  0.00  0.00    +0.000 A 
BRANCH  12  18
ATOM     18  N   UNL     1       1.345   2.564  22.345  0.00  0.00    +0.000 N 
ATOM     19  H   UNL     1       1.568   2.802  23.305  0.00  0.00    +0.000 HD
ATOM     20  H   UNL     1       0.980   1.619  22.258  0.00  0.00    +0.000 HD
ENDBRANCH  12  18
ENDBRANCH  10  15
ENDBRANCH   1  10
BRANCH   9  21
ATOM     21  C   UNL     1       8.470   8.645  17.431  0.00  0.00    +0.000 C 
BRANCH  21  22
ATOM     22  C   UNL     1       8.113   9.944  18.155  0.00  0.00    +0.000 C 
BRANCH  22  23
ATOM     23  C   UNL     1       9.317  10.660  18.703  0.00  0.00    +0.000 A 
ATOM     24  C   UNL     1      10.322  11.116  17.837  0.00  0.00    +0.000 A 
ATOM     25  C   UNL     1      11.421  11.812  18.337  0.00  0.00    +0.000 A 
ATOM     26  C   UNL     1      11.529  12.053  19.705  0.00  0.00    +0.000 A 
ATOM     27  C   UNL     1      10.540  11.595  20.575  0.00  0.00    +0.000 A 
ATOM     28  C   UNL     1       9.438  10.899  20.077  0.00  0.00    +0.000 A 
ENDBRANCH  22  23
ENDBRANCH  21  22
ENDBRANCH   9  21
TORSDOF 6
ENDMDL
MODEL 6
REMARK VINA RESULT:      -8.1      6.583      9.200
REMARK  Name = 
REMARK  6 active torsions:
REMARK  status: ('A' for Active; 'I' for Inactive)
REMARK    1  A    between atoms: N_1  and  C_2
REMARK    2  A    between atoms: C_5  and  N_6
REMARK    3  A    between atoms: N_6  and  C_7
REMARK    4  A    between atoms: N_15  and  C_16
REMARK    5  A    between atoms: C_16  and  C_17
REMARK    6  A    between atoms: C_17  and  C_18
REMARK                            x       y       z     vdW  Elec       q    Type
REMARK                         _______ _______ _______ _____ _____    ______ ____
ROOT
ATOM      1  C   UNL     1       0.222  10.016  19.729  0.00  0.00    +0.000 A 
ATOM      2  N   UNL     1       0.123   9.585  21.021  0.00  0.00    +0.000 NA
ATOM      3  C   UNL     1       0.861   8.549  21.447  0.00  0.00    +0.000 A 
ATOM      4  N   UNL     1       1.739   7.834  20.737  0.00  0.00    +0.000 NA
ATOM      5  C   UNL     1       1.797   8.257  19.464  0.00  0.00    +0.000 A 
ATOM      6  C   UNL     1       1.089   9.297  18.890  0.00  0.00    +0.000 A 
ATOM      7  N   UNL     1       1.452   9.420  17.573  0.00  0.00    +0.000 NA
ATOM      8  N   UNL     1       2.370   8.490  17.310  0.00  0.00    +0.000 NA
ATOM      9  N   UNL     1       2.582   7.789  18.450  0.00  0.00    +0.000 N 
ENDROOT
BRANCH   1  10
ATOM     10  N   UNL     1      -0.465  11.164  19.289  0.00  0.00    +0.000 N 
ATOM     11  H   UNL     1      -0.195  11.992  19.809  0.00  0.00    +0.000 HD
BRANCH  10  15
ATOM     12  C   UNL     1      -4.374  11.273  17.630  0.00  0.00    +0.000 A 
ATOM     13  C   UNL     1      -4.055  11.991  18.783  0.00  0.00    +0.000 A 
ATOM     14  C   UNL     1      -2.757  11.962  19.312  0.00  0.00    +0.000 A 
ATOM     15  C   UNL     1      -1.737  11.238  18.685  0.00  0.00    +0.000 A 
ATOM     16  C   UNL     1      -2.048  10.617  17.471  0.00  0.00    +0.000 A 
ATOM     17  C   UNL     1      -3.343  10.637  16.947  0.00  0.00    +0.000 A 
BRANCH  12  18
ATOM     18  N   UNL     1      -5.639  11.381  17.042  0.00  0.00    +0.000 N 
ATOM     19  H   UNL     1      -5.610  11.677  16.073  0.00  0.00    +0.000 HD
ATOM     20  H   UNL     1      -6.292  11.932  17.593  0.00  0.00    +0.000 HD
ENDBRANCH  12  18
ENDBRANCH  10  15
ENDBRANCH   1  10
BRANCH   9  21
ATOM     21  C   UNL     1       3.608   6.766  18.501  0.00  0.00    +0.000 C 
BRANCH  21  22
ATOM     22  C   UNL     1       3.168   5.407  17.954  0.00  0.00    +0.000 C 
BRANCH  22  23
ATOM     23  C   UNL     1       2.440   4.572  18.971  0.00  0.00    +0.000 A 
ATOM     24  C   UNL     1       1.370   3.755  18.577  0.00  0.00    +0.000 A 
ATOM     25  C   UNL     1       0.717   2.951  19.510  0.00  0.00    +0.000 A 
ATOM     26  C   UNL     1       1.122   2.963  20.844  0.00  0.00    +0.000 A 
ATOM     27  C   UNL     1       2.177   3.780  21.246  0.00  0.00    +0.000 A 
ATOM     28  C   UNL     1       2.834   4.584  20.314  0.00  0.00    +0.000 A 
ENDBRANCH  22  23
ENDBRANCH  21  22
ENDBRANCH   9  21
TORSDOF 6
ENDMDL
MODEL 7
REMARK VINA RESULT:      -8.1      6.191      8.861
REMARK  Name = 
REMARK  6 active torsions:
REMARK  status: ('A' for Active; 'I' for Inactive)
REMARK    1  A    between atoms: N_1  and  C_2
REMARK    2  A    between atoms: C_5  and  N_6
REMARK    3  A    between atoms: N_6  and  C_7
REMARK    4  A    between atoms: N_15  and  C_16
REMARK    5  A    between atoms: C_16  and  C_17
REMARK    6  A    between atoms: C_17  and  C_18
REMARK                            x       y       z     vdW  Elec       q    Type
REMARK                         _______ _______ _______ _____ _____    ______ ____
ROOT
ATOM      1  C   UNL     1       0.602   9.532  19.593  0.00  0.00    +0.000 A 
ATOM      2  N   UNL     1       0.429   8.991  20.835  0.00  0.00    +0.000 NA
ATOM      3  C   UNL     1       1.124   7.905  21.203  0.00  0.00    +0.000 A 
ATOM      4  N   UNL     1       2.023   7.234  20.476  0.00  0.00    +0.000 NA
ATOM      5  C   UNL     1       2.155   7.765  19.250  0.00  0.00    +0.000 A 
ATOM      6  C   UNL     1       1.496   8.868  18.737  0.00  0.00    +0.000 A 
ATOM      7  N   UNL     1       1.928   9.098  17.455  0.00  0.00    +0.000 NA
ATOM      8  N   UNL     1       2.840   8.173  17.156  0.00  0.00    +0.000 NA
ATOM      9  N   UNL     1       2.981   7.370  18.238  0.00  0.00    +0.000 N 
ENDROOT
BRANCH   1  10
ATOM     10  N   UNL     1      -0.040  10.729  19.224  0.00  0.00    +0.000 N 
ATOM     11  H   UNL     1       0.242  11.508  19.810  0.00  0.00    +0.000 HD
BRANCH  10  15
ATOM     12  C   UNL     1      -3.906  11.115  17.506  0.00  0.00    +0.000 A 
ATOM     13  C   UNL     1      -3.514  11.895  18.595  0.00  0.00    +0.000 A 
ATOM     14  C   UNL     1      -2.229  11.773  19.143  0.00  0.00    +0.000 A 
ATOM     15  C   UNL     1      -1.293  10.887  18.597  0.00  0.00    +0.000 A 
ATOM     16  C   UNL     1      -1.665  10.197  17.439  0.00  0.00    +0.000 A 
ATOM     17  C   UNL     1      -2.947  10.311  16.897  0.00  0.00    +0.000 A 
BRANCH  12  18
ATOM     18  N   UNL     1      -5.148  11.308  16.892  0.00  0.00    +0.000 N 
ATOM     19  H   UNL     1      -5.150  11.083  15.904  0.00  0.00    +0.000 HD
ATOM     20  H   UNL     1      -5.551  12.222  17.079  0.00  0.00    +0.000 HD
ENDBRANCH  12  18
ENDBRANCH  10  15
ENDBRANCH   1  10
BRANCH   9  21
ATOM     21  C   UNL     1       3.982   6.323  18.248  0.00  0.00    +0.000 C 
BRANCH  21  22
ATOM     22  C   UNL     1       3.489   4.976  17.715  0.00  0.00    +0.000 C 
BRANCH  22  23
ATOM     23  C   UNL     1       2.793   4.150  18.762  0.00  0.00    +0.000 A 
ATOM     24  C   UNL     1       3.520   3.610  19.833  0.00  0.00    +0.000 A 
ATOM     25  C   UNL     1       2.872   2.875  20.825  0.00  0.00    +0.000 A 
ATOM     26  C   UNL     1       1.496   2.669  20.751  0.00  0.00    +0.000 A 
ATOM     27  C   UNL     1       0.767   3.193  19.685  0.00  0.00    +0.000 A 
ATOM     28  C   UNL     1       1.412   3.931  18.692  0.00  0.00    +0.000 A 
ENDBRANCH  22  23
ENDBRANCH  21  22
ENDBRANCH   9  21
TORSDOF 6
ENDMDL
MODEL 8
REMARK VINA RESULT:      -8.1      4.704      7.259
REMARK  Name = 
REMARK  6 active torsions:
REMARK  status: ('A' for Active; 'I' for Inactive)
REMARK    1  A    between atoms: N_1  and  C_2
REMARK    2  A    between atoms: C_5  and  N_6
REMARK    3  A    between atoms: N_6  and  C_7
REMARK    4  A    between atoms: N_15  and  C_16
REMARK    5  A    between atoms: C_16  and  C_17
REMARK    6  A    between atoms: C_17  and  C_18
REMARK                            x       y       z     vdW  Elec       q    Type
REMARK                         _______ _______ _______ _____ _____    ______ ____
ROOT
ATOM      1  C   UNL     1       3.459   3.809  18.859  0.00  0.00    +0.000 A 
ATOM      2  N   UNL     1       3.158   2.986  19.907  0.00  0.00    +0.000 NA
ATOM      3  C   UNL     1       2.532   3.471  20.990  0.00  0.00    +0.000 A 
ATOM      4  N   UNL     1       2.135   4.730  21.200  0.00  0.00    +0.000 NA
ATOM      5  C   UNL     1       2.469   5.525  20.171  0.00  0.00    +0.000 A 
ATOM      6  C   UNL     1       3.121   5.165  19.007  0.00  0.00    +0.000 A 
ATOM      7  N   UNL     1       3.252   6.267  18.200  0.00  0.00    +0.000 NA
ATOM      8  N   UNL     1       2.696   7.304  18.827  0.00  0.00    +0.000 NA
ATOM      9  N   UNL     1       2.220   6.858  20.014  0.00  0.00    +0.000 N 
ENDROOT
BRANCH   1  10
ATOM     10  N   UNL     1       4.021   3.302  17.673  0.00  0.00    +0.000 N 
ATOM     11  H   UNL     1       3.998   2.288  17.644  0.00  0.00    +0.000 HD
BRANCH  10  15
ATOM     12  C   UNL     1       7.013   4.890  15.109  0.00  0.00    +0.000 A 
ATOM     13  C   UNL     1       5.731   4.599  14.637  0.00  0.00    +0.000 A 
ATOM     14  C   UNL     1       4.746   4.092  15.496  0.00  0.00    +0.000 A 
ATOM     15  C   UNL     1       5.008   3.891  16.856  0.00  0.00    +0.000 A 
ATOM     16  C   UNL     1       6.260   4.292  17.332  0.00  0.00    +0.000 A 
ATOM     17  C   UNL     1       7.246   4.790  16.476  0.00  0.00    +0.000 A 
BRANCH  12  18
ATOM     18  N   UNL     1       7.965   5.492  14.279  0.00  0.00    +0.000 N 
ATOM     19  H   UNL     1       8.775   5.838  14.780  0.00  0.00    +0.000 HD
ATOM     20  H   UNL     1       7.571   6.191  13.656  0.00  0.00    +0.000 HD
ENDBRANCH  12  18
ENDBRANCH  10  15
ENDBRANCH   1  10
BRANCH   9  21
ATOM     21  C   UNL     1       1.469   7.744  20.882  0.00  0.00    +0.000 C 
BRANCH  21  22
ATOM     22  C   UNL     1       0.935   8.999  20.189  0.00  0.00    +0.000 C 
BRANCH  22  23
ATOM     23  C   UNL     1       0.161   9.896  21.115  0.00  0.00    +0.000 A 
ATOM     24  C   UNL     1      -0.267   9.421  22.363  0.00  0.00    +0.000 A 
ATOM     25  C   UNL     1      -0.953  10.260  23.240  0.00  0.00    +0.000 A 
ATOM     26  C   UNL     1      -1.220  11.578  22.874  0.00  0.00    +0.000 A 
ATOM     27  C   UNL     1      -0.807  12.056  21.632  0.00  0.00    +0.000 A 
ATOM     28  C   UNL     1      -0.120  11.219  20.753  0.00  0.00    +0.000 A 
ENDBRANCH  22  23
ENDBRANCH  21  22
ENDBRANCH   9  21
TORSDOF 6
ENDMDL
MODEL 9
REMARK VINA RESULT:      -8.0      5.012      7.547
REMARK  Name = 
REMARK  6 active torsions:
REMARK  status: ('A' for Active; 'I' for Inactive)
REMARK    1  A    between atoms: N_1  and  C_2
REMARK    2  A    between atoms: C_5  and  N_6
REMARK    3  A    between atoms: N_6  and  C_7
REMARK    4  A    between atoms: N_15  and  C_16
REMARK    5  A    between atoms: C_16  and  C_17
REMARK    6  A    between atoms: C_17  and  C_18
REMARK                            x       y       z     vdW  Elec       q    Type
REMARK                         _______ _______ _______ _____ _____    ______ ____
ROOT
ATOM      1  C   UNL     1       3.458   4.568  19.132  0.00  0.00    +0.000 A 
ATOM      2  N   UNL     1       2.877   4.091  20.272  0.00  0.00    +0.000 NA
ATOM      3  C   UNL     1       2.060   4.872  20.994  0.00  0.00    +0.000 A 
ATOM      4  N   UNL     1       1.712   6.137  20.734  0.00  0.00    +0.000 NA
ATOM      5  C   UNL     1       2.318   6.593  19.627  0.00  0.00    +0.000 A 
ATOM      6  C   UNL     1       3.187   5.906  18.800  0.00  0.00    +0.000 A 
ATOM      7  N   UNL     1       3.568   6.721  17.764  0.00  0.00    +0.000 NA
ATOM      8  N   UNL     1       2.958   7.895  17.919  0.00  0.00    +0.000 NA
ATOM      9  N   UNL     1       2.201   7.820  19.039  0.00  0.00    +0.000 N 
ENDROOT
BRANCH   1  10
ATOM     10  N   UNL     1       4.236   3.733  18.307  0.00  0.00    +0.000 N 
ATOM     11  H   UNL     1       4.448   2.847  18.753  0.00  0.00    +0.000 HD
BRANCH  10  15
ATOM     12  C   UNL     1       6.935   5.071  15.312  0.00  0.00    +0.000 A 
ATOM     13  C   UNL     1       7.302   5.038  16.658  0.00  0.00    +0.000 A 
ATOM     14  C   UNL     1       6.410   4.577  17.636  0.00  0.00    +0.000 A 
ATOM     15  C   UNL     1       5.137   4.110  17.290  0.00  0.00    +0.000 A 
ATOM     16  C   UNL     1       4.828   4.046  15.927  0.00  0.00    +0.000 A 
ATOM     17  C   UNL     1       5.713   4.512  14.952  0.00  0.00    +0.000 A 
BRANCH  12  18
ATOM     18  N   UNL     1       7.857   5.431  14.323  0.00  0.00    +0.000 N 
ATOM     19  H   UNL     1       8.626   4.777  14.230  0.00  0.00    +0.000 HD
ATOM     20  H   UNL     1       8.178   6.393  14.404  0.00  0.00    +0.000 HD
ENDBRANCH  12  18
ENDBRANCH  10  15
ENDBRANCH   1  10
BRANCH   9  21
ATOM     21  C   UNL     1       1.336   8.921  19.416  0.00  0.00    +0.000 C 
BRANCH  21  22
ATOM     22  C   UNL     1       1.024   9.892  18.276  0.00  0.00    +0.000 C 
BRANCH  22  23
ATOM     23  C   UNL     1      -0.390  10.405  18.313  0.00  0.00    +0.000 A 
ATOM     24  C   UNL     1      -1.354   9.878  17.441  0.00  0.00    +0.000 A 
ATOM     25  C   UNL     1      -2.674  10.324  17.497  0.00  0.00    +0.000 A 
ATOM     26  C   UNL     1      -3.039  11.303  18.419  0.00  0.00    +0.000 A 
ATOM     27  C   UNL     1      -2.085  11.839  19.282  0.00  0.00    +0.000 A 
ATOM     28  C   UNL     1      -0.764  11.393  19.230  0.00  0.00    +0.000 A 
ENDBRANCH  22  23
ENDBRANCH  21  22
ENDBRANCH   9  21
TORSDOF 6
ENDMDL
