MODEL 1
REMARK VINA RESULT:      -6.3      0.000      0.000
REMARK  Name = 
REMARK  7 active torsions:
REMARK  status: ('A' for Active; 'I' for Inactive)
REMARK    1  A    between atoms: C_1  and  O_2
REMARK    2  A    between atoms: O_2  and  C_3
REMARK    3  A    between atoms: C_10  and  C_11
REMARK    4  A    between atoms: C_13  and  C_14
REMARK    5  A    between atoms: N_18  and  C_19
REMARK    6  A    between atoms: C_27  and  O_28
REMARK    7  A    between atoms: O_28  and  C_29
REMARK                            x       y       z     vdW  Elec       q    Type
REMARK                         _______ _______ _______ _____ _____    ______ ____
ROOT
ATOM      1  C   UNL     1       6.009  12.196  25.250  0.00  0.00    +0.000 A 
ATOM      2  C   UNL     1       6.728  11.663  24.170  0.00  0.00    +0.000 A 
ATOM      3  C   UNL     1       7.696  12.377  23.474  0.00  0.00    +0.000 A 
ATOM      4  N   UNL     1       8.257  11.789  22.421  0.00  0.00    +0.000 NA
ATOM      5  C   UNL     1       9.166  12.464  21.711  0.00  0.00    +0.000 A 
ATOM      6  N   UNL     1       9.686  11.887  20.577  0.00  0.00    +0.000 N 
ATOM      7  C   UNL     1       9.265  10.558  20.152  0.00  0.00    +0.000 C 
ATOM      8  C   UNL     1       8.951  10.614  18.647  0.00  0.00    +0.000 C 
ATOM      9  C   UNL     1       8.524   9.254  18.104  0.00  0.00    +0.000 C 
ATOM     10  C   UNL     1      10.163  11.144  17.869  0.00  0.00    +0.000 C 
ATOM     11  C   UNL     1      10.622  12.507  18.411  0.00  0.00    +0.000 C 
ATOM     12  C   UNL     1      11.870  12.973  17.665  0.00  0.00    +0.000 C 
ATOM     13  C   UNL     1      10.863  12.449  19.929  0.00  0.00    +0.000 C 
ATOM     14  N   UNL     1       9.555  13.701  22.052  0.00  0.00    +0.000 NA
ATOM     15  C   UNL     1       8.994  14.292  23.130  0.00  0.00    +0.000 A 
ATOM     16  N   UNL     1       9.425  15.585  23.494  0.00  0.00    +0.000 N 
ATOM     17  C   UNL     1       7.995  13.663  23.892  0.00  0.00    +0.000 A 
ATOM     18  C   UNL     1       7.287  14.218  25.005  0.00  0.00    +0.000 A 
ATOM     19  C   UNL     1       6.329  13.472  25.712  0.00  0.00    +0.000 A 
ATOM     20  H   UNL     1       9.616  15.675  24.482  0.00  0.00    +0.000 HD
ENDROOT
BRANCH  16  21
ATOM     21  C   UNL     1       9.943  16.616  22.691  0.00  0.00    +0.000 A 
ATOM     22  C   UNL     1      11.319  16.817  22.540  0.00  0.00    +0.000 A 
ATOM     23  C   UNL     1      11.813  17.686  21.563  0.00  0.00    +0.000 A 
ATOM     24  C   UNL     1      10.933  18.400  20.754  0.00  0.00    +0.000 A 
ATOM     25  C   UNL     1       9.562  18.292  20.965  0.00  0.00    +0.000 A 
ATOM     26  C   UNL     1       9.070  17.413  21.936  0.00  0.00    +0.000 A 
ENDBRANCH  16  21
BRANCH   1  28
ATOM     27  C   UNL     1       5.354  10.704  26.941  0.00  0.00    +0.000 C 
ATOM     28  O   UNL     1       4.968  11.510  25.819  0.00  0.00    +0.000 OA
ENDBRANCH   1  28
BRANCH  19  29
ATOM     29  O   UNL     1       5.771  14.169  26.751  0.00  0.00    +0.000 OA
ATOM     30  C   UNL     1       6.632  14.565  27.814  0.00  0.00    +0.000 C 
ENDBRANCH  19  29
TORSDOF 3
ENDMDL
MODEL 2
REMARK VINA RESULT:      -6.2     10.264     12.279
REMARK  Name = 
REMARK  7 active torsions:
REMARK  status: ('A' for Active; 'I' for Inactive)
REMARK    1  A    between atoms: C_1  and  O_2
REMARK    2  A    between atoms: O_2  and  C_3
REMARK    3  A    between atoms: C_10  and  C_11
REMARK    4  A    between atoms: C_13  and  C_14
REMARK    5  A    between atoms: N_18  and  C_19
REMARK    6  A    between atoms: C_27  and  O_28
REMARK    7  A    between atoms: O_28  and  C_29
REMARK                            x       y       z     vdW  Elec       q    Type
REMARK                         _______ _______ _______ _____ _____    ______ ____
ROOT
ATOM      1  C   UNL     1      -3.731  11.183  16.968  0.00  0.00    +0.000 A 
ATOM      2  C   UNL     1      -2.436  11.606  17.301  0.00  0.00    +0.000 A 
ATOM      3  C   UNL     1      -2.115  12.183  18.525  0.00  0.00    +0.000 A 
ATOM      4  N   UNL     1      -0.868  12.612  18.696  0.00  0.00    +0.000 NA
ATOM      5  C   UNL     1      -0.540  13.202  19.849  0.00  0.00    +0.000 A 
ATOM      6  N   UNL     1       0.727  13.717  19.995  0.00  0.00    +0.000 N 
ATOM      7  C   UNL     1       1.704  13.619  18.918  0.00  0.00    +0.000 C 
ATOM      8  C   UNL     1       2.357  15.000  18.738  0.00  0.00    +0.000 C 
ATOM      9  C   UNL     1       3.419  14.989  17.642  0.00  0.00    +0.000 C 
ATOM     10  C   UNL     1       2.961  15.482  20.064  0.00  0.00    +0.000 C 
ATOM     11  C   UNL     1       1.912  15.486  21.187  0.00  0.00    +0.000 C 
ATOM     12  C   UNL     1       2.560  15.900  22.506  0.00  0.00    +0.000 C 
ATOM     13  C   UNL     1       1.221  14.117  21.305  0.00  0.00    +0.000 C 
ATOM     14  N   UNL     1      -1.420  13.339  20.850  0.00  0.00    +0.000 NA
ATOM     15  C   UNL     1      -2.683  12.891  20.680  0.00  0.00    +0.000 A 
ATOM     16  N   UNL     1      -3.597  13.021  21.748  0.00  0.00    +0.000 N 
ATOM     17  C   UNL     1      -3.114  12.308  19.477  0.00  0.00    +0.000 A 
ATOM     18  C   UNL     1      -4.437  11.862  19.163  0.00  0.00    +0.000 A 
ATOM     19  C   UNL     1      -4.737  11.260  17.930  0.00  0.00    +0.000 A 
ATOM     20  H   UNL     1      -4.121  12.175  21.924  0.00  0.00    +0.000 HD
ENDROOT
BRANCH  16  21
ATOM     21  C   UNL     1      -3.643  13.975  22.778  0.00  0.00    +0.000 A 
ATOM     22  C   UNL     1      -3.275  13.665  24.091  0.00  0.00    +0.000 A 
ATOM     23  C   UNL     1      -3.101  14.674  25.043  0.00  0.00    +0.000 A 
ATOM     24  C   UNL     1      -3.337  16.004  24.703  0.00  0.00    +0.000 A 
ATOM     25  C   UNL     1      -3.807  16.316  23.430  0.00  0.00    +0.000 A 
ATOM     26  C   UNL     1      -3.969  15.306  22.477  0.00  0.00    +0.000 A 
ENDBRANCH  16  21
BRANCH   1  28
ATOM     27  C   UNL     1      -2.912  10.195  15.000  0.00  0.00    +0.000 C 
ATOM     28  O   UNL     1      -4.033  10.749  15.703  0.00  0.00    +0.000 OA
ENDBRANCH   1  28
BRANCH  19  29
ATOM     29  O   UNL     1      -6.051  10.890  17.822  0.00  0.00    +0.000 OA
ATOM     30  C   UNL     1      -6.757  10.612  19.028  0.00  0.00    +0.000 C 
ENDBRANCH  19  29
TORSDOF 3
ENDMDL
MODEL 3
REMARK VINA RESULT:      -6.0      7.907     10.214
REMARK  Name = 
REMARK  7 active torsions:
REMARK  status: ('A' for Active; 'I' for Inactive)
REMARK    1  A    between atoms: C_1  and  O_2
REMARK    2  A    between atoms: O_2  and  C_3
REMARK    3  A    between atoms: C_10  and  C_11
REMARK    4  A    between atoms: C_13  and  C_14
REMARK    5  A    between atoms: N_18  and  C_19
REMARK    6  A    between atoms: C_27  and  O_28
REMARK    7  A    between atoms: O_28  and  C_29
REMARK                            x       y       z     vdW  Elec       q    Type
REMARK                         _______ _______ _______ _____ _____    ______ ____
ROOT
ATOM      1  C   UNL     1      -2.750  14.141  24.018  0.00  0.00    +0.000 A 
ATOM      2  C   UNL     1      -1.778  14.833  23.283  0.00  0.00    +0.000 A 
ATOM      3  C   UNL     1      -0.992  14.234  22.305  0.00  0.00    +0.000 A 
ATOM      4  N   UNL     1      -0.052  14.977  21.728  0.00  0.00    +0.000 NA
ATOM      5  C   UNL     1       0.741  14.419  20.809  0.00  0.00    +0.000 A 
ATOM      6  N   UNL     1       1.764  15.164  20.272  0.00  0.00    +0.000 N 
ATOM      7  C   UNL     1       1.982  16.545  20.686  0.00  0.00    +0.000 C 
ATOM      8  C   UNL     1       3.482  16.725  20.977  0.00  0.00    +0.000 C 
ATOM      9  C   UNL     1       3.812  18.154  21.395  0.00  0.00    +0.000 C 
ATOM     10  C   UNL     1       4.316  16.319  19.754  0.00  0.00    +0.000 C 
ATOM     11  C   UNL     1       3.987  14.886  19.305  0.00  0.00    +0.000 C 
ATOM     12  C   UNL     1       4.778  14.539  18.046  0.00  0.00    +0.000 C 
ATOM     13  C   UNL     1       2.475  14.707  19.086  0.00  0.00    +0.000 C 
ATOM     14  N   UNL     1       0.592  13.143  20.426  0.00  0.00    +0.000 NA
ATOM     15  C   UNL     1      -0.372  12.393  21.003  0.00  0.00    +0.000 A 
ATOM     16  N   UNL     1      -0.536  11.057  20.578  0.00  0.00    +0.000 N 
ATOM     17  C   UNL     1      -1.209  12.897  22.013  0.00  0.00    +0.000 A 
ATOM     18  C   UNL     1      -2.212  12.178  22.737  0.00  0.00    +0.000 A 
ATOM     19  C   UNL     1      -3.012  12.807  23.705  0.00  0.00    +0.000 A 
ATOM     20  H   UNL     1      -1.501  10.814  20.403  0.00  0.00    +0.000 HD
ENDROOT
BRANCH  16  21
ATOM     21  C   UNL     1       0.410  10.162  20.050  0.00  0.00    +0.000 A 
ATOM     22  C   UNL     1       0.985   9.149  20.825  0.00  0.00    +0.000 A 
ATOM     23  C   UNL     1       1.737   8.132  20.230  0.00  0.00    +0.000 A 
ATOM     24  C   UNL     1       1.959   8.140  18.855  0.00  0.00    +0.000 A 
ATOM     25  C   UNL     1       1.484   9.200  18.087  0.00  0.00    +0.000 A 
ATOM     26  C   UNL     1       0.723  10.210  18.683  0.00  0.00    +0.000 A 
ENDBRANCH  16  21
BRANCH   1  28
ATOM     27  C   UNL     1      -3.990  16.001  24.739  0.00  0.00    +0.000 C 
ATOM     28  O   UNL     1      -3.405  14.733  25.066  0.00  0.00    +0.000 OA
ENDBRANCH   1  28
BRANCH  19  29
ATOM     29  O   UNL     1      -3.922  11.959  24.279  0.00  0.00    +0.000 OA
ATOM     30  C   UNL     1      -5.281  12.383  24.321  0.00  0.00    +0.000 C 
ENDBRANCH  19  29
TORSDOF 3
ENDMDL
MODEL 4
REMARK VINA RESULT:      -6.0      9.010     11.126
REMARK  Name = 
REMARK  7 active torsions:
REMARK  status: ('A' for Active; 'I' for Inactive)
REMARK    1  A    between atoms: C_1  and  O_2
REMARK    2  A    between atoms: O_2  and  C_3
REMARK    3  A    between atoms: C_10  and  C_11
REMARK    4  A    between atoms: C_13  and  C_14
REMARK    5  A    between atoms: N_18  and  C_19
REMARK    6  A    between atoms: C_27  and  O_28
REMARK    7  A    between atoms: O_28  and  C_29
REMARK                            x       y       z     vdW  Elec       q    Type
REMARK                         _______ _______ _______ _____ _____    ______ ____
ROOT
ATOM      1  C   UNL     1      -4.252  14.462  21.869  0.00  0.00    +0.000 A 
ATOM      2  C   UNL     1      -3.128  15.135  21.367  0.00  0.00    +0.000 A 
ATOM      3  C   UNL     1      -2.078  14.489  20.726  0.00  0.00    +0.000 A 
ATOM      4  N   UNL     1      -1.033  15.226  20.359  0.00  0.00    +0.000 NA
ATOM      5  C   UNL     1       0.007  14.627  19.773  0.00  0.00    +0.000 A 
ATOM      6  N   UNL     1       1.120  15.375  19.467  0.00  0.00    +0.000 N 
ATOM      7  C   UNL     1       1.170  16.800  19.768  0.00  0.00    +0.000 C 
ATOM      8  C   UNL     1       2.516  17.097  20.450  0.00  0.00    +0.000 C 
ATOM      9  C   UNL     1       2.671  18.579  20.781  0.00  0.00    +0.000 C 
ATOM     10  C   UNL     1       3.678  16.622  19.568  0.00  0.00    +0.000 C 
ATOM     11  C   UNL     1       3.534  15.135  19.208  0.00  0.00    +0.000 C 
ATOM     12  C   UNL     1       4.664  14.712  18.272  0.00  0.00    +0.000 C 
ATOM     13  C   UNL     1       2.155  14.845  18.591  0.00  0.00    +0.000 C 
ATOM     14  N   UNL     1       0.011  13.313  19.509  0.00  0.00    +0.000 NA
ATOM     15  C   UNL     1      -1.057  12.568  19.870  0.00  0.00    +0.000 A 
ATOM     16  N   UNL     1      -1.053  11.189  19.569  0.00  0.00    +0.000 N 
ATOM     17  C   UNL     1      -2.163  13.120  20.537  0.00  0.00    +0.000 A 
ATOM     18  C   UNL     1      -3.311  12.418  21.023  0.00  0.00    +0.000 A 
ATOM     19  C   UNL     1      -4.375  13.091  21.647  0.00  0.00    +0.000 A 
ATOM     20  H   UNL     1      -1.919  10.872  19.155  0.00  0.00    +0.000 HD
ENDROOT
BRANCH  16  21
ATOM     21  C   UNL     1       0.030  10.304  19.434  0.00  0.00    +0.000 A 
ATOM     22  C   UNL     1       0.530   9.575  20.519  0.00  0.00    +0.000 A 
ATOM     23  C   UNL     1       1.442   8.534  20.322  0.00  0.00    +0.000 A 
ATOM     24  C   UNL     1       1.900   8.239  19.041  0.00  0.00    +0.000 A 
ATOM     25  C   UNL     1       1.494   9.025  17.966  0.00  0.00    +0.000 A 
ATOM     26  C   UNL     1       0.573  10.059  18.164  0.00  0.00    +0.000 A 
ENDBRANCH  16  21
BRANCH   1  28
ATOM     27  C   UNL     1      -4.732  15.521  23.911  0.00  0.00    +0.000 C 
ATOM     28  O   UNL     1      -5.197  15.116  22.616  0.00  0.00    +0.000 OA
ENDBRANCH   1  28
BRANCH  19  29
ATOM     29  O   UNL     1      -5.386  12.252  22.031  0.00  0.00    +0.000 OA
ATOM     30  C   UNL     1      -6.528  12.167  21.184  0.00  0.00    +0.000 C 
ENDBRANCH  19  29
TORSDOF 3
ENDMDL
MODEL 5
REMARK VINA RESULT:      -6.0     10.342     12.076
REMARK  Name = 
REMARK  7 active torsions:
REMARK  status: ('A' for Active; 'I' for Inactive)
REMARK    1  A    between atoms: C_1  and  O_2
REMARK    2  A    between atoms: O_2  and  C_3
REMARK    3  A    between atoms: C_10  and  C_11
REMARK    4  A    between atoms: C_13  and  C_14
REMARK    5  A    between atoms: N_18  and  C_19
REMARK    6  A    between atoms: C_27  and  O_28
REMARK    7  A    between atoms: O_28  and  C_29
REMARK                            x       y       z     vdW  Elec       q    Type
REMARK                         _______ _______ _______ _____ _____    ______ ____
ROOT
ATOM      1  C   UNL     1      -2.878  15.295  24.610  0.00  0.00    +0.000 A 
ATOM      2  C   UNL     1      -3.690  14.690  23.640  0.00  0.00    +0.000 A 
ATOM      3  C   UNL     1      -3.184  13.953  22.576  0.00  0.00    +0.000 A 
ATOM      4  N   UNL     1      -4.050  13.490  21.679  0.00  0.00    +0.000 NA
ATOM      5  C   UNL     1      -3.590  12.808  20.627  0.00  0.00    +0.000 A 
ATOM      6  N   UNL     1      -4.477  12.400  19.659  0.00  0.00    +0.000 N 
ATOM      7  C   UNL     1      -5.900  12.696  19.774  0.00  0.00    +0.000 C 
ATOM      8  C   UNL     1      -6.384  13.249  18.424  0.00  0.00    +0.000 C 
ATOM      9  C   UNL     1      -7.877  13.565  18.441  0.00  0.00    +0.000 C 
ATOM     10  C   UNL     1      -6.060  12.262  17.295  0.00  0.00    +0.000 C 
ATOM     11  C   UNL     1      -4.563  11.916  17.269  0.00  0.00    +0.000 C 
ATOM     12  C   UNL     1      -4.285  10.878  16.184  0.00  0.00    +0.000 C 
ATOM     13  C   UNL     1      -4.081  11.431  18.647  0.00  0.00    +0.000 C 
ATOM     14  N   UNL     1      -2.285  12.545  20.469  0.00  0.00    +0.000 NA
ATOM     15  C   UNL     1      -1.407  13.003  21.388  0.00  0.00    +0.000 A 
ATOM     16  N   UNL     1      -0.038  12.703  21.225  0.00  0.00    +0.000 N 
ATOM     17  C   UNL     1      -1.813  13.772  22.492  0.00  0.00    +0.000 A 
ATOM     18  C   UNL     1      -0.969  14.364  23.484  0.00  0.00    +0.000 A 
ATOM     19  C   UNL     1      -1.500  15.085  24.566  0.00  0.00    +0.000 A 
ATOM     20  H   UNL     1       0.398  12.372  22.075  0.00  0.00    +0.000 HD
ENDROOT
BRANCH  16  21
ATOM     21  C   UNL     1       0.694  12.467  20.049  0.00  0.00    +0.000 A 
ATOM     22  C   UNL     1       1.409  13.483  19.405  0.00  0.00    +0.000 A 
ATOM     23  C   UNL     1       2.313  13.184  18.383  0.00  0.00    +0.000 A 
ATOM     24  C   UNL     1       2.482  11.868  17.961  0.00  0.00    +0.000 A 
ATOM     25  C   UNL     1       1.699  10.861  18.519  0.00  0.00    +0.000 A 
ATOM     26  C   UNL     1       0.803  11.161  19.549  0.00  0.00    +0.000 A 
ENDBRANCH  16  21
BRANCH   1  28
ATOM     27  C   UNL     1      -3.798  17.411  25.054  0.00  0.00    +0.000 C 
ATOM     28  O   UNL     1      -3.407  16.127  25.562  0.00  0.00    +0.000 OA
ENDBRANCH   1  28
BRANCH  19  29
ATOM     29  O   UNL     1      -0.536  15.561  25.415  0.00  0.00    +0.000 OA
ATOM     30  C   UNL     1       0.051  16.821  25.101  0.00  0.00    +0.000 C 
ENDBRANCH  19  29
TORSDOF 3
ENDMDL
MODEL 6
REMARK VINA RESULT:      -6.0     10.153     11.715
REMARK  Name = 
REMARK  7 active torsions:
REMARK  status: ('A' for Active; 'I' for Inactive)
REMARK    1  A    between atoms: C_1  and  O_2
REMARK    2  A    between atoms: O_2  and  C_3
REMARK    3  A    between atoms: C_10  and  C_11
REMARK    4  A    between atoms: C_13  and  C_14
REMARK    5  A    between atoms: N_18  and  C_19
REMARK    6  A    between atoms: C_27  and  O_28
REMARK    7  A    between atoms: O_28  and  C_29
REMARK                            x       y       z     vdW  Elec       q    Type
REMARK                         _______ _______ _______ _____ _____    ______ ____
ROOT
ATOM      1  C   UNL     1      -3.248  15.144  24.343  0.00  0.00    +0.000 A 
ATOM      2  C   UNL     1      -3.862  14.441  23.296  0.00  0.00    +0.000 A 
ATOM      3  C   UNL     1      -3.151  13.745  22.326  0.00  0.00    +0.000 A 
ATOM      4  N   UNL     1      -3.843  13.179  21.342  0.00  0.00    +0.000 NA
ATOM      5  C   UNL     1      -3.184  12.532  20.376  0.00  0.00    +0.000 A 
ATOM      6  N   UNL     1      -3.893  12.017  19.317  0.00  0.00    +0.000 N 
ATOM      7  C   UNL     1      -5.342  12.162  19.244  0.00  0.00    +0.000 C 
ATOM      8  C   UNL     1      -5.703  12.640  17.827  0.00  0.00    +0.000 C 
ATOM      9  C   UNL     1      -7.210  12.797  17.646  0.00  0.00    +0.000 C 
ATOM     10  C   UNL     1      -5.136  11.674  16.777  0.00  0.00    +0.000 C 
ATOM     11  C   UNL     1      -3.621  11.488  16.951  0.00  0.00    +0.000 C 
ATOM     12  C   UNL     1      -3.101  10.468  15.941  0.00  0.00    +0.000 C 
ATOM     13  C   UNL     1      -3.273  11.078  18.392  0.00  0.00    +0.000 C 
ATOM     14  N   UNL     1      -1.850  12.405  20.392  0.00  0.00    +0.000 NA
ATOM     15  C   UNL     1      -1.149  12.969  21.400  0.00  0.00    +0.000 A 
ATOM     16  N   UNL     1       0.254  12.812  21.420  0.00  0.00    +0.000 N 
ATOM     17  C   UNL     1      -1.769  13.708  22.421  0.00  0.00    +0.000 A 
ATOM     18  C   UNL     1      -1.124  14.401  23.494  0.00  0.00    +0.000 A 
ATOM     19  C   UNL     1      -1.861  15.080  24.479  0.00  0.00    +0.000 A 
ATOM     20  H   UNL     1       0.608  12.542  22.327  0.00  0.00    +0.000 HD
ENDROOT
BRANCH  16  21
ATOM     21  C   UNL     1       1.151  12.635  20.353  0.00  0.00    +0.000 A 
ATOM     22  C   UNL     1       1.209  11.443  19.623  0.00  0.00    +0.000 A 
ATOM     23  C   UNL     1       1.931  11.369  18.429  0.00  0.00    +0.000 A 
ATOM     24  C   UNL     1       2.643  12.475  17.973  0.00  0.00    +0.000 A 
ATOM     25  C   UNL     1       2.682  13.634  18.744  0.00  0.00    +0.000 A 
ATOM     26  C   UNL     1       1.950  13.709  19.932  0.00  0.00    +0.000 A 
ENDBRANCH  16  21
BRANCH   1  28
ATOM     27  C   UNL     1      -4.492  17.122  24.584  0.00  0.00    +0.000 C 
ATOM     28  O   UNL     1      -3.977  15.931  25.196  0.00  0.00    +0.000 OA
ENDBRANCH   1  28
BRANCH  19  29
ATOM     29  O   UNL     1      -1.069  15.669  25.427  0.00  0.00    +0.000 OA
ATOM     30  C   UNL     1      -0.530  16.953  25.128  0.00  0.00    +0.000 C 
ENDBRANCH  19  29
TORSDOF 3
ENDMDL
MODEL 7
REMARK VINA RESULT:      -6.0      8.499     11.776
REMARK  Name = 
REMARK  7 active torsions:
REMARK  status: ('A' for Active; 'I' for Inactive)
REMARK    1  A    between atoms: C_1  and  O_2
REMARK    2  A    between atoms: O_2  and  C_3
REMARK    3  A    between atoms: C_10  and  C_11
REMARK    4  A    between atoms: C_13  and  C_14
REMARK    5  A    between atoms: N_18  and  C_19
REMARK    6  A    between atoms: C_27  and  O_28
REMARK    7  A    between atoms: O_28  and  C_29
REMARK                            x       y       z     vdW  Elec       q    Type
REMARK                         _______ _______ _______ _____ _____    ______ ____
ROOT
ATOM      1  C   UNL     1       3.473  16.462  19.847  0.00  0.00    +0.000 A 
ATOM      2  C   UNL     1       2.617  16.296  20.945  0.00  0.00    +0.000 A 
ATOM      3  C   UNL     1       1.664  15.287  21.022  0.00  0.00    +0.000 A 
ATOM      4  N   UNL     1       0.860  15.277  22.081  0.00  0.00    +0.000 NA
ATOM      5  C   UNL     1      -0.089  14.340  22.165  0.00  0.00    +0.000 A 
ATOM      6  N   UNL     1      -0.971  14.379  23.219  0.00  0.00    +0.000 N 
ATOM      7  C   UNL     1      -0.876  15.418  24.237  0.00  0.00    +0.000 C 
ATOM      8  C   UNL     1      -2.285  15.989  24.470  0.00  0.00    +0.000 C 
ATOM      9  C   UNL     1      -2.289  17.072  25.545  0.00  0.00    +0.000 C 
ATOM     10  C   UNL     1      -3.262  14.864  24.840  0.00  0.00    +0.000 C 
ATOM     11  C   UNL     1      -3.262  13.753  23.778  0.00  0.00    +0.000 C 
ATOM     12  C   UNL     1      -4.187  12.618  24.210  0.00  0.00    +0.000 C 
ATOM     13  C   UNL     1      -1.835  13.244  23.508  0.00  0.00    +0.000 C 
ATOM     14  N   UNL     1      -0.228  13.388  21.232  0.00  0.00    +0.000 NA
ATOM     15  C   UNL     1       0.599  13.390  20.163  0.00  0.00    +0.000 A 
ATOM     16  N   UNL     1       0.459  12.371  19.197  0.00  0.00    +0.000 N 
ATOM     17  C   UNL     1       1.584  14.375  19.982  0.00  0.00    +0.000 A 
ATOM     18  C   UNL     1       2.464  14.514  18.862  0.00  0.00    +0.000 A 
ATOM     19  C   UNL     1       3.438  15.526  18.814  0.00  0.00    +0.000 A 
ATOM     20  H   UNL     1       1.340  11.955  18.931  0.00  0.00    +0.000 HD
ENDROOT
BRANCH  16  21
ATOM     21  C   UNL     1      -0.682  11.640  18.824  0.00  0.00    +0.000 A 
ATOM     22  C   UNL     1      -1.972  12.167  18.948  0.00  0.00    +0.000 A 
ATOM     23  C   UNL     1      -3.066  11.527  18.359  0.00  0.00    +0.000 A 
ATOM     24  C   UNL     1      -2.889  10.327  17.675  0.00  0.00    +0.000 A 
ATOM     25  C   UNL     1      -1.629   9.737  17.635  0.00  0.00    +0.000 A 
ATOM     26  C   UNL     1      -0.534  10.385  18.216  0.00  0.00    +0.000 A 
ENDBRANCH  16  21
BRANCH   1  28
ATOM     27  C   UNL     1       5.497  17.437  20.535  0.00  0.00    +0.000 C 
ATOM     28  O   UNL     1       4.302  17.549  19.749  0.00  0.00    +0.000 OA
ENDBRANCH   1  28
BRANCH  19  29
ATOM     29  O   UNL     1       4.190  15.488  17.670  0.00  0.00    +0.000 OA
ATOM     30  C   UNL     1       5.446  14.819  17.731  0.00  0.00    +0.000 C 
ENDBRANCH  19  29
TORSDOF 3
ENDMDL
MODEL 8
REMARK VINA RESULT:      -5.9      9.252     11.342
REMARK  Name = 
REMARK  7 active torsions:
REMARK  status: ('A' for Active; 'I' for Inactive)
REMARK    1  A    between atoms: C_1  and  O_2
REMARK    2  A    between atoms: O_2  and  C_3
REMARK    3  A    between atoms: C_10  and  C_11
REMARK    4  A    between atoms: C_13  and  C_14
REMARK    5  A    between atoms: N_18  and  C_19
REMARK    6  A    between atoms: C_27  and  O_28
REMARK    7  A    between atoms: O_28  and  C_29
REMARK                            x       y       z     vdW  Elec       q    Type
REMARK                         _______ _______ _______ _____ _____    ______ ____
ROOT
ATOM      1  C   UNL     1      -4.389  14.624  22.313  0.00  0.00    +0.000 A 
ATOM      2  C   UNL     1      -3.257  15.249  21.771  0.00  0.00    +0.000 A 
ATOM      3  C   UNL     1      -2.292  14.571  21.035  0.00  0.00    +0.000 A 
ATOM      4  N   UNL     1      -1.226  15.258  20.636  0.00  0.00    +0.000 NA
ATOM      5  C   UNL     1      -0.265  14.624  19.957  0.00  0.00    +0.000 A 
ATOM      6  N   UNL     1       0.874  15.314  19.615  0.00  0.00    +0.000 N 
ATOM      7  C   UNL     1       1.036  16.717  19.975  0.00  0.00    +0.000 C 
ATOM      8  C   UNL     1       2.437  16.895  20.583  0.00  0.00    +0.000 C 
ATOM      9  C   UNL     1       2.710  18.346  20.970  0.00  0.00    +0.000 C 
ATOM     10  C   UNL     1       3.510  16.392  19.607  0.00  0.00    +0.000 C 
ATOM     11  C   UNL     1       3.246  14.937  19.190  0.00  0.00    +0.000 C 
ATOM     12  C   UNL     1       4.286  14.490  18.165  0.00  0.00    +0.000 C 
ATOM     13  C   UNL     1       1.816  14.764  18.651  0.00  0.00    +0.000 C 
ATOM     14  N   UNL     1      -0.364  13.327  19.634  0.00  0.00    +0.000 NA
ATOM     15  C   UNL     1      -1.454  12.633  20.028  0.00  0.00    +0.000 A 
ATOM     16  N   UNL     1      -1.560  11.273  19.666  0.00  0.00    +0.000 N 
ATOM     17  C   UNL     1      -2.479  13.220  20.790  0.00  0.00    +0.000 A 
ATOM     18  C   UNL     1      -3.639  12.569  21.317  0.00  0.00    +0.000 A 
ATOM     19  C   UNL     1      -4.616  13.276  22.038  0.00  0.00    +0.000 A 
ATOM     20  H   UNL     1      -2.468  11.033  19.295  0.00  0.00    +0.000 HD
ENDROOT
BRANCH  16  21
ATOM     21  C   UNL     1      -0.548  10.330  19.422  0.00  0.00    +0.000 A 
ATOM     22  C   UNL     1      -0.020  10.124  18.143  0.00  0.00    +0.000 A 
ATOM     23  C   UNL     1       1.137   9.361  17.960  0.00  0.00    +0.000 A 
ATOM     24  C   UNL     1       1.756   8.757  19.051  0.00  0.00    +0.000 A 
ATOM     25  C   UNL     1       1.181   8.864  20.315  0.00  0.00    +0.000 A 
ATOM     26  C   UNL     1       0.030   9.637  20.496  0.00  0.00    +0.000 A 
ENDBRANCH  16  21
BRANCH   1  28
ATOM     27  C   UNL     1      -6.276  16.017  22.458  0.00  0.00    +0.000 C 
ATOM     28  O   UNL     1      -5.243  15.298  23.148  0.00  0.00    +0.000 OA
ENDBRANCH   1  28
BRANCH  19  29
ATOM     29  O   UNL     1      -5.655  12.484  22.447  0.00  0.00    +0.000 OA
ATOM     30  C   UNL     1      -6.758  12.335  21.559  0.00  0.00    +0.000 C 
ENDBRANCH  19  29
TORSDOF 3
ENDMDL
MODEL 9
REMARK VINA RESULT:      -5.9      9.813     12.624
REMARK  Name = 
REMARK  7 active torsions:
REMARK  status: ('A' for Active; 'I' for Inactive)
REMARK    1  A    between atoms: C_1  and  O_2
REMARK    2  A    between atoms: O_2  and  C_3
REMARK    3  A    between atoms: C_10  and  C_11
REMARK    4  A    between atoms: C_13  and  C_14
REMARK    5  A    between atoms: N_18  and  C_19
REMARK    6  A    between atoms: C_27  and  O_28
REMARK    7  A    between atoms: O_28  and  C_29
REMARK                            x       y       z     vdW  Elec       q    Type
REMARK                         _______ _______ _______ _____ _____    ______ ____
ROOT
ATOM      1  C   UNL     1       1.478  16.976  18.097  0.00  0.00    +0.000 A 
ATOM      2  C   UNL     1       0.202  17.019  18.678  0.00  0.00    +0.000 A 
ATOM      3  C   UNL     1      -0.303  16.003  19.481  0.00  0.00    +0.000 A 
ATOM      4  N   UNL     1      -1.555  16.124  19.914  0.00  0.00    +0.000 NA
ATOM      5  C   UNL     1      -2.080  15.147  20.658  0.00  0.00    +0.000 A 
ATOM      6  N   UNL     1      -3.399  15.235  21.037  0.00  0.00    +0.000 N 
ATOM      7  C   UNL     1      -4.216  16.376  20.645  0.00  0.00    +0.000 C 
ATOM      8  C   UNL     1      -5.553  15.842  20.105  0.00  0.00    +0.000 C 
ATOM      9  C   UNL     1      -6.492  16.972  19.690  0.00  0.00    +0.000 C 
ATOM     10  C   UNL     1      -6.229  14.941  21.147  0.00  0.00    +0.000 C 
ATOM     11  C   UNL     1      -5.296  13.804  21.592  0.00  0.00    +0.000 C 
ATOM     12  C   UNL     1      -5.968  12.971  22.680  0.00  0.00    +0.000 C 
ATOM     13  C   UNL     1      -3.938  14.353  22.063  0.00  0.00    +0.000 C 
ATOM     14  N   UNL     1      -1.369  14.067  21.012  0.00  0.00    +0.000 NA
ATOM     15  C   UNL     1      -0.093  13.951  20.583  0.00  0.00    +0.000 A 
ATOM     16  N   UNL     1       0.654  12.821  20.979  0.00  0.00    +0.000 N 
ATOM     17  C   UNL     1       0.508  14.914  19.754  0.00  0.00    +0.000 A 
ATOM     18  C   UNL     1       1.821  14.861  19.188  0.00  0.00    +0.000 A 
ATOM     19  C   UNL     1       2.324  15.909  18.400  0.00  0.00    +0.000 A 
ATOM     20  H   UNL     1       1.579  13.056  21.310  0.00  0.00    +0.000 HD
ENDROOT
BRANCH  16  21
ATOM     21  C   UNL     1       0.217  11.525  21.300  0.00  0.00    +0.000 A 
ATOM     22  C   UNL     1       0.519  10.421  20.496  0.00  0.00    +0.000 A 
ATOM     23  C   UNL     1       0.282   9.120  20.948  0.00  0.00    +0.000 A 
ATOM     24  C   UNL     1      -0.302   8.908  22.194  0.00  0.00    +0.000 A 
ATOM     25  C   UNL     1      -0.707   9.999  22.958  0.00  0.00    +0.000 A 
ATOM     26  C   UNL     1      -0.458  11.300  22.509  0.00  0.00    +0.000 A 
ENDBRANCH  16  21
BRANCH   1  28
ATOM     27  C   UNL     1       0.801  18.631  16.574  0.00  0.00    +0.000 C 
ATOM     28  O   UNL     1       1.885  17.931  17.202  0.00  0.00    +0.000 OA
ENDBRANCH   1  28
BRANCH  19  29
ATOM     29  O   UNL     1       3.601  15.681  17.960  0.00  0.00    +0.000 OA
ATOM     30  C   UNL     1       4.359  14.681  18.634  0.00  0.00    +0.000 C 
ENDBRANCH  19  29
TORSDOF 3
ENDMDL
