MODEL 1
REMARK VINA RESULT:      -7.0      0.000      0.000
REMARK  Name = 
REMARK  3 active torsions:
REMARK  status: ('A' for Active; 'I' for Inactive)
REMARK    1  A    between atoms: C_1  and  N_2
REMARK    2  A    between atoms: C_3  and  C_4
REMARK    3  A    between atoms: N_6  and  C_7
REMARK                            x       y       z     vdW  Elec       q    Type
REMARK                         _______ _______ _______ _____ _____    ______ ____
ROOT
ATOM      1  C   UNL     1       5.781   4.348  16.838  0.00  0.00    +0.000 C 
ATOM      2  O   UNL     1       6.981   4.404  17.092  0.00  0.00    +0.000 OA
ATOM      3  N   UNL     1       5.247   4.339  15.560  0.00  0.00    +0.000 N 
ATOM      4  H   UNL     1       4.233   4.424  15.522  0.00  0.00    +0.000 HD
ENDROOT
BRANCH   1   7
ATOM      5  C   UNL     1       3.853   6.715  17.750  0.00  0.00    +0.000 C 
ATOM      6  N   UNL     1       3.957   5.381  18.275  0.00  0.00    +0.000 N 
ATOM      7  C   UNL     1       4.765   4.325  17.890  0.00  0.00    +0.000 A 
ATOM      8  N   UNL     1       4.506   3.238  18.617  0.00  0.00    +0.000 NA
ATOM      9  C   UNL     1       3.558   3.636  19.509  0.00  0.00    +0.000 A 
ATOM     10  S   UNL     1       2.712   2.887  20.807  0.00  0.00    +0.000 S 
ATOM     11  C   UNL     1       1.872   4.367  21.101  0.00  0.00    +0.000 A 
ATOM     12  C   UNL     1       2.210   5.392  20.240  0.00  0.00    +0.000 A 
ATOM     13  C   UNL     1       3.199   4.932  19.331  0.00  0.00    +0.000 A 
ENDBRANCH   1   7
BRANCH   3  14
ATOM     14  C   UNL     1       5.977   4.331  14.353  0.00  0.00    +0.000 A 
ATOM     15  C   UNL     1       7.104   5.133  14.155  0.00  0.00    +0.000 A 
ATOM     16  C   UNL     1       7.791   5.117  12.943  0.00  0.00    +0.000 A 
ATOM     17  C   UNL     1       7.359   4.294  11.907  0.00  0.00    +0.000 A 
ATOM     18  C   UNL     1       6.245   3.477  12.095  0.00  0.00    +0.000 A 
ATOM     19  C   UNL     1       5.565   3.483  13.319  0.00  0.00    +0.000 A 
ENDBRANCH   3  14
TORSDOF 2
ENDMDL
MODEL 2
REMARK VINA RESULT:      -6.9      0.059      1.136
REMARK  Name = 
REMARK  3 active torsions:
REMARK  status: ('A' for Active; 'I' for Inactive)
REMARK    1  A    between atoms: C_1  and  N_2
REMARK    2  A    between atoms: C_3  and  C_4
REMARK    3  A    between atoms: N_6  and  C_7
REMARK                            x       y       z     vdW  Elec       q    Type
REMARK                         _______ _______ _______ _____ _____    ______ ____
ROOT
ATOM      1  C   UNL     1       5.743   4.314  16.830  0.00  0.00    +0.000 C 
ATOM      2  O   UNL     1       6.946   4.373  17.067  0.00  0.00    +0.000 OA
ATOM      3  N   UNL     1       5.191   4.298  15.560  0.00  0.00    +0.000 N 
ATOM      4  H   UNL     1       4.176   4.380  15.536  0.00  0.00    +0.000 HD
ENDROOT
BRANCH   1   7
ATOM      5  C   UNL     1       3.841   6.687  17.779  0.00  0.00    +0.000 C 
ATOM      6  N   UNL     1       3.946   5.350  18.297  0.00  0.00    +0.000 N 
ATOM      7  C   UNL     1       4.742   4.291  17.896  0.00  0.00    +0.000 A 
ATOM      8  N   UNL     1       4.488   3.203  18.623  0.00  0.00    +0.000 NA
ATOM      9  C   UNL     1       3.555   3.602  19.530  0.00  0.00    +0.000 A 
ATOM     10  S   UNL     1       2.723   2.853  20.838  0.00  0.00    +0.000 S 
ATOM     11  C   UNL     1       1.895   4.336  21.149  0.00  0.00    +0.000 A 
ATOM     12  C   UNL     1       2.228   5.363  20.287  0.00  0.00    +0.000 A 
ATOM     13  C   UNL     1       3.200   4.902  19.363  0.00  0.00    +0.000 A 
ENDBRANCH   1   7
BRANCH   3  14
ATOM     14  C   UNL     1       5.904   4.286  14.342  0.00  0.00    +0.000 A 
ATOM     15  C   UNL     1       5.534   3.474  13.267  0.00  0.00    +0.000 A 
ATOM     16  C   UNL     1       6.271   3.472  12.085  0.00  0.00    +0.000 A 
ATOM     17  C   UNL     1       7.394   4.284  11.962  0.00  0.00    +0.000 A 
ATOM     18  C   UNL     1       7.767   5.110  13.020  0.00  0.00    +0.000 A 
ATOM     19  C   UNL     1       7.016   5.123  14.202  0.00  0.00    +0.000 A 
ENDBRANCH   3  14
TORSDOF 2
ENDMDL
MODEL 3
REMARK VINA RESULT:      -6.8      1.083      1.713
REMARK  Name = 
REMARK  3 active torsions:
REMARK  status: ('A' for Active; 'I' for Inactive)
REMARK    1  A    between atoms: C_1  and  N_2
REMARK    2  A    between atoms: C_3  and  C_4
REMARK    3  A    between atoms: N_6  and  C_7
REMARK                            x       y       z     vdW  Elec       q    Type
REMARK                         _______ _______ _______ _____ _____    ______ ____
ROOT
ATOM      1  C   UNL     1       5.501   4.276  16.870  0.00  0.00    +0.000 C 
ATOM      2  O   UNL     1       6.684   4.214  17.193  0.00  0.00    +0.000 OA
ATOM      3  N   UNL     1       5.046   4.364  15.565  0.00  0.00    +0.000 N 
ATOM      4  H   UNL     1       4.047   4.541  15.474  0.00  0.00    +0.000 HD
ENDROOT
BRANCH   1   7
ATOM      5  C   UNL     1       3.666   1.854  17.828  0.00  0.00    +0.000 C 
ATOM      6  N   UNL     1       3.632   3.232  18.238  0.00  0.00    +0.000 N 
ATOM      7  C   UNL     1       4.426   4.301  17.860  0.00  0.00    +0.000 A 
ATOM      8  N   UNL     1       4.084   5.404  18.524  0.00  0.00    +0.000 NA
ATOM      9  C   UNL     1       3.023   5.033  19.292  0.00  0.00    +0.000 A 
ATOM     10  S   UNL     1       1.975   5.833  20.398  0.00  0.00    +0.000 S 
ATOM     11  C   UNL     1       1.123   4.353  20.648  0.00  0.00    +0.000 A 
ATOM     12  C   UNL     1       1.618   3.285  19.928  0.00  0.00    +0.000 A 
ATOM     13  C   UNL     1       2.719   3.718  19.145  0.00  0.00    +0.000 A 
ENDBRANCH   1   7
BRANCH   3  14
ATOM     14  C   UNL     1       5.843   4.339  14.401  0.00  0.00    +0.000 A 
ATOM     15  C   UNL     1       6.997   5.117  14.268  0.00  0.00    +0.000 A 
ATOM     16  C   UNL     1       7.752   5.084  13.098  0.00  0.00    +0.000 A 
ATOM     17  C   UNL     1       7.361   4.270  12.038  0.00  0.00    +0.000 A 
ATOM     18  C   UNL     1       6.221   3.478  12.162  0.00  0.00    +0.000 A 
ATOM     19  C   UNL     1       5.472   3.500  13.345  0.00  0.00    +0.000 A 
ENDBRANCH   3  14
TORSDOF 2
ENDMDL
MODEL 4
REMARK VINA RESULT:      -6.8      1.398      1.547
REMARK  Name = 
REMARK  3 active torsions:
REMARK  status: ('A' for Active; 'I' for Inactive)
REMARK    1  A    between atoms: C_1  and  N_2
REMARK    2  A    between atoms: C_3  and  C_4
REMARK    3  A    between atoms: N_6  and  C_7
REMARK                            x       y       z     vdW  Elec       q    Type
REMARK                         _______ _______ _______ _____ _____    ______ ____
ROOT
ATOM      1  C   UNL     1       4.643   4.957  16.336  0.00  0.00    +0.000 C 
ATOM      2  O   UNL     1       4.846   6.158  16.186  0.00  0.00    +0.000 OA
ATOM      3  N   UNL     1       5.110   3.968  15.486  0.00  0.00    +0.000 N 
ATOM      4  H   UNL     1       4.744   3.037  15.675  0.00  0.00    +0.000 HD
ENDROOT
BRANCH   1   7
ATOM      5  C   UNL     1       5.239   5.133  19.460  0.00  0.00    +0.000 C 
ATOM      6  N   UNL     1       4.131   4.513  18.785  0.00  0.00    +0.000 N 
ATOM      7  C   UNL     1       3.831   4.438  17.436  0.00  0.00    +0.000 A 
ATOM      8  N   UNL     1       2.673   3.808  17.242  0.00  0.00    +0.000 NA
ATOM      9  C   UNL     1       2.267   3.436  18.487  0.00  0.00    +0.000 A 
ATOM     10  S   UNL     1       0.926   2.567  19.126  0.00  0.00    +0.000 S 
ATOM     11  C   UNL     1       1.564   2.771  20.718  0.00  0.00    +0.000 A 
ATOM     12  C   UNL     1       2.746   3.483  20.768  0.00  0.00    +0.000 A 
ATOM     13  C   UNL     1       3.129   3.848  19.451  0.00  0.00    +0.000 A 
ENDBRANCH   1   7
BRANCH   3  14
ATOM     14  C   UNL     1       5.935   4.161  14.358  0.00  0.00    +0.000 A 
ATOM     15  C   UNL     1       7.053   4.999  14.384  0.00  0.00    +0.000 A 
ATOM     16  C   UNL     1       7.836   5.184  13.247  0.00  0.00    +0.000 A 
ATOM     17  C   UNL     1       7.509   4.532  12.061  0.00  0.00    +0.000 A 
ATOM     18  C   UNL     1       6.405   3.682  12.024  0.00  0.00    +0.000 A 
ATOM     19  C   UNL     1       5.628   3.485  13.173  0.00  0.00    +0.000 A 
ENDBRANCH   3  14
TORSDOF 2
ENDMDL
MODEL 5
REMARK VINA RESULT:      -6.8      2.478      6.717
REMARK  Name = 
REMARK  3 active torsions:
REMARK  status: ('A' for Active; 'I' for Inactive)
REMARK    1  A    between atoms: C_1  and  N_2
REMARK    2  A    between atoms: C_3  and  C_4
REMARK    3  A    between atoms: N_6  and  C_7
REMARK                            x       y       z     vdW  Elec       q    Type
REMARK                         _______ _______ _______ _____ _____    ______ ____
ROOT
ATOM      1  C   UNL     1       5.080   4.113  17.619  0.00  0.00    +0.000 C 
ATOM      2  O   UNL     1       5.731   4.032  18.657  0.00  0.00    +0.000 OA
ATOM      3  N   UNL     1       3.698   4.056  17.552  0.00  0.00    +0.000 N 
ATOM      4  H   UNL     1       3.320   4.004  16.608  0.00  0.00    +0.000 HD
ENDROOT
BRANCH   1   7
ATOM      5  C   UNL     1       7.320   6.197  16.731  0.00  0.00    +0.000 C 
ATOM      6  N   UNL     1       6.675   5.176  15.951  0.00  0.00    +0.000 N 
ATOM      7  C   UNL     1       5.718   4.243  16.310  0.00  0.00    +0.000 A 
ATOM      8  N   UNL     1       5.426   3.443  15.284  0.00  0.00    +0.000 NA
ATOM      9  C   UNL     1       6.173   3.918  14.251  0.00  0.00    +0.000 A 
ATOM     10  S   UNL     1       6.367   3.503  12.591  0.00  0.00    +0.000 S 
ATOM     11  C   UNL     1       7.509   4.787  12.413  0.00  0.00    +0.000 A 
ATOM     12  C   UNL     1       7.745   5.500  13.571  0.00  0.00    +0.000 A 
ATOM     13  C   UNL     1       6.946   4.971  14.618  0.00  0.00    +0.000 A 
ENDBRANCH   1   7
BRANCH   3  14
ATOM     14  C   UNL     1       2.814   3.958  18.647  0.00  0.00    +0.000 A 
ATOM     15  C   UNL     1       2.478   5.060  19.438  0.00  0.00    +0.000 A 
ATOM     16  C   UNL     1       1.618   4.926  20.525  0.00  0.00    +0.000 A 
ATOM     17  C   UNL     1       1.080   3.681  20.840  0.00  0.00    +0.000 A 
ATOM     18  C   UNL     1       1.394   2.575  20.052  0.00  0.00    +0.000 A 
ATOM     19  C   UNL     1       2.247   2.715  18.950  0.00  0.00    +0.000 A 
ENDBRANCH   3  14
TORSDOF 2
ENDMDL
MODEL 6
REMARK VINA RESULT:      -6.7      1.079      2.057
REMARK  Name = 
REMARK  3 active torsions:
REMARK  status: ('A' for Active; 'I' for Inactive)
REMARK    1  A    between atoms: C_1  and  N_2
REMARK    2  A    between atoms: C_3  and  C_4
REMARK    3  A    between atoms: N_6  and  C_7
REMARK                            x       y       z     vdW  Elec       q    Type
REMARK                         _______ _______ _______ _____ _____    ______ ____
ROOT
ATOM      1  C   UNL     1       5.478   4.260  16.840  0.00  0.00    +0.000 C 
ATOM      2  O   UNL     1       6.666   4.217  17.146  0.00  0.00    +0.000 OA
ATOM      3  N   UNL     1       5.003   4.330  15.541  0.00  0.00    +0.000 N 
ATOM      4  H   UNL     1       4.001   4.492  15.463  0.00  0.00    +0.000 HD
ENDROOT
BRANCH   1   7
ATOM      5  C   UNL     1       3.689   1.824  17.847  0.00  0.00    +0.000 C 
ATOM      6  N   UNL     1       3.643   3.204  18.245  0.00  0.00    +0.000 N 
ATOM      7  C   UNL     1       4.417   4.280  17.846  0.00  0.00    +0.000 A 
ATOM      8  N   UNL     1       4.070   5.385  18.504  0.00  0.00    +0.000 NA
ATOM      9  C   UNL     1       3.026   5.007  19.291  0.00  0.00    +0.000 A 
ATOM     10  S   UNL     1       1.984   5.804  20.405  0.00  0.00    +0.000 S 
ATOM     11  C   UNL     1       1.154   4.315  20.681  0.00  0.00    +0.000 A 
ATOM     12  C   UNL     1       1.653   3.247  19.963  0.00  0.00    +0.000 A 
ATOM     13  C   UNL     1       2.737   3.688  19.160  0.00  0.00    +0.000 A 
ENDBRANCH   1   7
BRANCH   3  14
ATOM     14  C   UNL     1       5.784   4.304  14.366  0.00  0.00    +0.000 A 
ATOM     15  C   UNL     1       5.461   3.498  13.271  0.00  0.00    +0.000 A 
ATOM     16  C   UNL     1       6.264   3.480  12.133  0.00  0.00    +0.000 A 
ATOM     17  C   UNL     1       7.408   4.270  12.075  0.00  0.00    +0.000 A 
ATOM     18  C   UNL     1       7.736   5.090  13.153  0.00  0.00    +0.000 A 
ATOM     19  C   UNL     1       6.918   5.118  14.290  0.00  0.00    +0.000 A 
ENDBRANCH   3  14
TORSDOF 2
ENDMDL
MODEL 7
REMARK VINA RESULT:      -6.7      2.457      6.791
REMARK  Name = 
REMARK  3 active torsions:
REMARK  status: ('A' for Active; 'I' for Inactive)
REMARK    1  A    between atoms: C_1  and  N_2
REMARK    2  A    between atoms: C_3  and  C_4
REMARK    3  A    between atoms: N_6  and  C_7
REMARK                            x       y       z     vdW  Elec       q    Type
REMARK                         _______ _______ _______ _____ _____    ______ ____
ROOT
ATOM      1  C   UNL     1       5.130   4.058  17.653  0.00  0.00    +0.000 C 
ATOM      2  O   UNL     1       5.801   4.028  18.680  0.00  0.00    +0.000 OA
ATOM      3  N   UNL     1       3.752   3.930  17.609  0.00  0.00    +0.000 N 
ATOM      4  H   UNL     1       3.363   3.842  16.672  0.00  0.00    +0.000 HD
ENDROOT
BRANCH   1   7
ATOM      5  C   UNL     1       7.312   6.182  16.718  0.00  0.00    +0.000 C 
ATOM      6  N   UNL     1       6.672   5.147  15.952  0.00  0.00    +0.000 N 
ATOM      7  C   UNL     1       5.740   4.197  16.331  0.00  0.00    +0.000 A 
ATOM      8  N   UNL     1       5.444   3.390  15.313  0.00  0.00    +0.000 NA
ATOM      9  C   UNL     1       6.162   3.877  14.264  0.00  0.00    +0.000 A 
ATOM     10  S   UNL     1       6.332   3.462  12.602  0.00  0.00    +0.000 S 
ATOM     11  C   UNL     1       7.445   4.767  12.400  0.00  0.00    +0.000 A 
ATOM     12  C   UNL     1       7.690   5.487  13.552  0.00  0.00    +0.000 A 
ATOM     13  C   UNL     1       6.922   4.945  14.615  0.00  0.00    +0.000 A 
ENDBRANCH   1   7
BRANCH   3  14
ATOM     14  C   UNL     1       2.892   3.806  18.721  0.00  0.00    +0.000 A 
ATOM     15  C   UNL     1       2.480   2.565  19.213  0.00  0.00    +0.000 A 
ATOM     16  C   UNL     1       1.614   2.477  20.300  0.00  0.00    +0.000 A 
ATOM     17  C   UNL     1       1.143   3.636  20.912  0.00  0.00    +0.000 A 
ATOM     18  C   UNL     1       1.557   4.881  20.441  0.00  0.00    +0.000 A 
ATOM     19  C   UNL     1       2.440   4.966  19.358  0.00  0.00    +0.000 A 
ENDBRANCH   3  14
TORSDOF 2
ENDMDL
MODEL 8
REMARK VINA RESULT:      -6.7      2.507      6.835
REMARK  Name = 
REMARK  3 active torsions:
REMARK  status: ('A' for Active; 'I' for Inactive)
REMARK    1  A    between atoms: C_1  and  N_2
REMARK    2  A    between atoms: C_3  and  C_4
REMARK    3  A    between atoms: N_6  and  C_7
REMARK                            x       y       z     vdW  Elec       q    Type
REMARK                         _______ _______ _______ _____ _____    ______ ____
ROOT
ATOM      1  C   UNL     1       4.457   4.800  17.528  0.00  0.00    +0.000 C 
ATOM      2  O   UNL     1       4.434   5.832  18.191  0.00  0.00    +0.000 OA
ATOM      3  N   UNL     1       3.810   3.626  17.875  0.00  0.00    +0.000 N 
ATOM      4  H   UNL     1       4.036   2.825  17.289  0.00  0.00    +0.000 HD
ENDROOT
BRANCH   1   7
ATOM      5  C   UNL     1       7.197   6.247  16.787  0.00  0.00    +0.000 C 
ATOM      6  N   UNL     1       6.403   5.352  15.989  0.00  0.00    +0.000 N 
ATOM      7  C   UNL     1       5.224   4.691  16.287  0.00  0.00    +0.000 A 
ATOM      8  N   UNL     1       4.846   3.914  15.273  0.00  0.00    +0.000 NA
ATOM      9  C   UNL     1       5.776   4.134  14.303  0.00  0.00    +0.000 A 
ATOM     10  S   UNL     1       6.016   3.575  12.692  0.00  0.00    +0.000 S 
ATOM     11  C   UNL     1       7.440   4.546  12.578  0.00  0.00    +0.000 A 
ATOM     12  C   UNL     1       7.731   5.261  13.722  0.00  0.00    +0.000 A 
ATOM     13  C   UNL     1       6.738   5.002  14.702  0.00  0.00    +0.000 A 
ENDBRANCH   1   7
BRANCH   3  14
ATOM     14  C   UNL     1       2.978   3.436  18.999  0.00  0.00    +0.000 A 
ATOM     15  C   UNL     1       1.639   3.834  19.015  0.00  0.00    +0.000 A 
ATOM     16  C   UNL     1       0.850   3.650  20.148  0.00  0.00    +0.000 A 
ATOM     17  C   UNL     1       1.393   3.064  21.288  0.00  0.00    +0.000 A 
ATOM     18  C   UNL     1       2.723   2.648  21.283  0.00  0.00    +0.000 A 
ATOM     19  C   UNL     1       3.510   2.820  20.137  0.00  0.00    +0.000 A 
ENDBRANCH   3  14
TORSDOF 2
ENDMDL
MODEL 9
REMARK VINA RESULT:      -6.7      1.392      1.938
REMARK  Name = 
REMARK  3 active torsions:
REMARK  status: ('A' for Active; 'I' for Inactive)
REMARK    1  A    between atoms: C_1  and  N_2
REMARK    2  A    between atoms: C_3  and  C_4
REMARK    3  A    between atoms: N_6  and  C_7
REMARK                            x       y       z     vdW  Elec       q    Type
REMARK                         _______ _______ _______ _____ _____    ______ ____
ROOT
ATOM      1  C   UNL     1       4.646   4.949  16.332  0.00  0.00    +0.000 C 
ATOM      2  O   UNL     1       4.801   6.154  16.157  0.00  0.00    +0.000 OA
ATOM      3  N   UNL     1       5.137   3.963  15.493  0.00  0.00    +0.000 N 
ATOM      4  H   UNL     1       4.811   3.022  15.705  0.00  0.00    +0.000 HD
ENDROOT
BRANCH   1   7
ATOM      5  C   UNL     1       5.442   4.927  19.417  0.00  0.00    +0.000 C 
ATOM      6  N   UNL     1       4.260   4.407  18.784  0.00  0.00    +0.000 N 
ATOM      7  C   UNL     1       3.874   4.420  17.455  0.00  0.00    +0.000 A 
ATOM      8  N   UNL     1       2.670   3.869  17.305  0.00  0.00    +0.000 NA
ATOM      9  C   UNL     1       2.320   3.455  18.554  0.00  0.00    +0.000 A 
ATOM     10  S   UNL     1       0.971   2.631  19.235  0.00  0.00    +0.000 S 
ATOM     11  C   UNL     1       1.715   2.716  20.790  0.00  0.00    +0.000 A 
ATOM     12  C   UNL     1       2.939   3.355  20.799  0.00  0.00    +0.000 A 
ATOM     13  C   UNL     1       3.262   3.766  19.480  0.00  0.00    +0.000 A 
ENDBRANCH   1   7
BRANCH   3  14
ATOM     14  C   UNL     1       5.935   4.167  14.347  0.00  0.00    +0.000 A 
ATOM     15  C   UNL     1       5.662   3.546  13.125  0.00  0.00    +0.000 A 
ATOM     16  C   UNL     1       6.481   3.752  12.017  0.00  0.00    +0.000 A 
ATOM     17  C   UNL     1       7.592   4.584  12.117  0.00  0.00    +0.000 A 
ATOM     18  C   UNL     1       7.870   5.222  13.325  0.00  0.00    +0.000 A 
ATOM     19  C   UNL     1       7.036   5.026  14.433  0.00  0.00    +0.000 A 
ENDBRANCH   3  14
TORSDOF 2
ENDMDL
