MODEL 1
REMARK VINA RESULT:      -8.5      0.000      0.000
REMARK  Name = 
REMARK  8 active torsions:
REMARK  status: ('A' for Active; 'I' for Inactive)
REMARK    1  A    between atoms: C_1  and  C_2
REMARK    2  A    between atoms: C_4  and  C_5
REMARK    3  A    between atoms: C_8  and  O_9
REMARK    4  A    between atoms: O_9  and  C_10
REMARK    5  A    between atoms: C_10  and  C_11
REMARK    6  A    between atoms: C_14  and  N_15
REMARK    7  A    between atoms: C_20  and  C_21
REMARK    8  A    between atoms: N_26  and  C_27
REMARK                            x       y       z     vdW  Elec       q    Type
REMARK                         _______ _______ _______ _____ _____    ______ ____
ROOT
ATOM      1  C   UNL     1       2.362   7.238  18.531  0.00  0.00    +0.000 A 
ATOM      2  C   UNL     1       1.994   8.310  17.734  0.00  0.00    +0.000 A 
ATOM      3  N   UNL     1       1.444   9.446  18.193  0.00  0.00    +0.000 NA
ATOM      4  C   UNL     1       1.185   9.551  19.514  0.00  0.00    +0.000 A 
ATOM      5  C   UNL     1       1.430   8.514  20.407  0.00  0.00    +0.000 A 
ATOM      6  C   UNL     1       1.087   8.532  21.863  0.00  0.00    +0.000 C 
ATOM      7  C   UNL     1       2.048   7.361  19.892  0.00  0.00    +0.000 A 
ENDROOT
BRANCH   1  11
ATOM      8  C   UNL     1       2.485   2.305  17.667  0.00  0.00    +0.000 C 
ATOM      9  C   UNL     1       3.114   3.664  17.538  0.00  0.00    +0.000 A 
ATOM     10  C   UNL     1       2.443   4.772  18.052  0.00  0.00    +0.000 A 
ATOM     11  C   UNL     1       3.019   6.051  17.986  0.00  0.00    +0.000 A 
ATOM     12  C   UNL     1       4.290   6.128  17.376  0.00  0.00    +0.000 A 
ATOM     13  C   UNL     1       5.271   7.115  17.100  0.00  0.00    +0.000 A 
ATOM     14  N   UNL     1       6.331   6.636  16.447  0.00  0.00    +0.000 NA
ATOM     15  N   UNL     1       6.047   5.322  16.327  0.00  0.00    +0.000 N 
ATOM     16  C   UNL     1       6.984   4.445  15.669  0.00  0.00    +0.000 C 
ATOM     17  C   UNL     1       4.847   4.956  16.876  0.00  0.00    +0.000 A 
ATOM     18  N   UNL     1       4.321   3.717  16.929  0.00  0.00    +0.000 NA
ENDBRANCH   1  11
BRANCH   4  19
ATOM     19  O   UNL     1       0.658  10.753  19.953  0.00  0.00    +0.000 OA
BRANCH  19  20
ATOM     20  C   UNL     1       0.553  11.679  18.852  0.00  0.00    +0.000 C 
BRANCH  20  21
ATOM     21  C   UNL     1       1.358  12.966  19.069  0.00  0.00    +0.000 C 
ATOM     22  C   UNL     1       1.895  13.060  20.511  0.00  0.00    +0.000 C 
ATOM     23  C   UNL     1       2.720  14.343  20.696  0.00  0.00    +0.000 C 
ATOM     24  C   UNL     1       2.776  15.142  19.379  0.00  0.00    +0.000 C 
ATOM     25  C   UNL     1       1.333  15.492  18.955  0.00  0.00    +0.000 C 
ATOM     26  C   UNL     1       0.503  14.215  18.772  0.00  0.00    +0.000 C 
ATOM     27  C   UNL     1       3.405  14.255  18.290  0.00  0.00    +0.000 C 
ATOM     28  C   UNL     1       2.576  12.978  18.106  0.00  0.00    +0.000 C 
BRANCH  24  29
ATOM     29  N   UNL     1       3.567  16.356  19.562  0.00  0.00    +0.000 NA
ATOM     30  H   UNL     1       2.953  17.168  19.575  0.00  0.00    +0.000 HD
ATOM     31  H   UNL     1       4.190  16.485  18.767  0.00  0.00    +0.000 HD
ENDBRANCH  24  29
ENDBRANCH  20  21
ENDBRANCH  19  20
ENDBRANCH   4  19
TORSDOF 5
ENDMDL
MODEL 2
REMARK VINA RESULT:      -8.4      0.044      1.139
REMARK  Name = 
REMARK  8 active torsions:
REMARK  status: ('A' for Active; 'I' for Inactive)
REMARK    1  A    between atoms: C_1  and  C_2
REMARK    2  A    between atoms: C_4  and  C_5
REMARK    3  A    between atoms: C_8  and  O_9
REMARK    4  A    between atoms: O_9  and  C_10
REMARK    5  A    between atoms: C_10  and  C_11
REMARK    6  A    between atoms: C_14  and  N_15
REMARK    7  A    between atoms: C_20  and  C_21
REMARK    8  A    between atoms: N_26  and  C_27
REMARK                            x       y       z     vdW  Elec       q    Type
REMARK                         _______ _______ _______ _____ _____    ______ ____
ROOT
ATOM      1  C   UNL     1       2.380   7.244  18.546  0.00  0.00    +0.000 A 
ATOM      2  C   UNL     1       2.049   8.335  17.759  0.00  0.00    +0.000 A 
ATOM      3  N   UNL     1       1.512   9.475  18.226  0.00  0.00    +0.000 NA
ATOM      4  C   UNL     1       1.230   9.564  19.543  0.00  0.00    +0.000 A 
ATOM      5  C   UNL     1       1.438   8.509  20.424  0.00  0.00    +0.000 A 
ATOM      6  C   UNL     1       1.068   8.511  21.873  0.00  0.00    +0.000 C 
ATOM      7  C   UNL     1       2.042   7.352  19.902  0.00  0.00    +0.000 A 
ENDROOT
BRANCH   1  11
ATOM      8  C   UNL     1       2.457   2.311  17.673  0.00  0.00    +0.000 C 
ATOM      9  C   UNL     1       3.096   3.666  17.541  0.00  0.00    +0.000 A 
ATOM     10  C   UNL     1       2.438   4.779  18.061  0.00  0.00    +0.000 A 
ATOM     11  C   UNL     1       3.024   6.053  17.994  0.00  0.00    +0.000 A 
ATOM     12  C   UNL     1       4.291   6.121  17.375  0.00  0.00    +0.000 A 
ATOM     13  C   UNL     1       5.278   7.101  17.094  0.00  0.00    +0.000 A 
ATOM     14  N   UNL     1       6.329   6.614  16.433  0.00  0.00    +0.000 NA
ATOM     15  N   UNL     1       6.034   5.303  16.312  0.00  0.00    +0.000 N 
ATOM     16  C   UNL     1       6.959   4.420  15.646  0.00  0.00    +0.000 C 
ATOM     17  C   UNL     1       4.835   4.946  16.869  0.00  0.00    +0.000 A 
ATOM     18  N   UNL     1       4.300   3.711  16.924  0.00  0.00    +0.000 NA
ENDBRANCH   1  11
BRANCH   4  19
ATOM     19  O   UNL     1       0.719  10.769  19.991  0.00  0.00    +0.000 OA
BRANCH  19  20
ATOM     20  C   UNL     1       0.549  11.678  18.884  0.00  0.00    +0.000 C 
BRANCH  20  21
ATOM     21  C   UNL     1       1.345  12.979  19.045  0.00  0.00    +0.000 C 
ATOM     22  C   UNL     1       0.466  14.216  18.771  0.00  0.00    +0.000 C 
ATOM     23  C   UNL     1       1.277  15.507  18.966  0.00  0.00    +0.000 C 
ATOM     24  C   UNL     1       2.721  15.176  19.392  0.00  0.00    +0.000 C 
ATOM     25  C   UNL     1       3.368  14.300  18.298  0.00  0.00    +0.000 C 
ATOM     26  C   UNL     1       2.560  13.010  18.097  0.00  0.00    +0.000 C 
ATOM     27  C   UNL     1       2.676  14.371  20.703  0.00  0.00    +0.000 C 
ATOM     28  C   UNL     1       1.870  13.082  20.503  0.00  0.00    +0.000 C 
BRANCH  24  29
ATOM     29  N   UNL     1       3.482  16.408  19.580  0.00  0.00    +0.000 NA
ATOM     30  H   UNL     1       4.475  16.223  19.449  0.00  0.00    +0.000 HD
ATOM     31  H   UNL     1       3.380  16.733  20.541  0.00  0.00    +0.000 HD
ENDBRANCH  24  29
ENDBRANCH  20  21
ENDBRANCH  19  20
ENDBRANCH   4  19
TORSDOF 5
ENDMDL
MODEL 3
REMARK VINA RESULT:      -8.4      0.083      1.144
REMARK  Name = 
REMARK  8 active torsions:
REMARK  status: ('A' for Active; 'I' for Inactive)
REMARK    1  A    between atoms: C_1  and  C_2
REMARK    2  A    between atoms: C_4  and  C_5
REMARK    3  A    between atoms: C_8  and  O_9
REMARK    4  A    between atoms: O_9  and  C_10
REMARK    5  A    between atoms: C_10  and  C_11
REMARK    6  A    between atoms: C_14  and  N_15
REMARK    7  A    between atoms: C_20  and  C_21
REMARK    8  A    between atoms: N_26  and  C_27
REMARK                            x       y       z     vdW  Elec       q    Type
REMARK                         _______ _______ _______ _____ _____    ______ ____
ROOT
ATOM      1  C   UNL     1       2.341   7.307  18.543  0.00  0.00    +0.000 A 
ATOM      2  C   UNL     1       1.977   8.383  17.750  0.00  0.00    +0.000 A 
ATOM      3  N   UNL     1       1.434   9.521  18.213  0.00  0.00    +0.000 NA
ATOM      4  C   UNL     1       1.180   9.625  19.534  0.00  0.00    +0.000 A 
ATOM      5  C   UNL     1       1.423   8.585  20.424  0.00  0.00    +0.000 A 
ATOM      6  C   UNL     1       1.085   8.601  21.882  0.00  0.00    +0.000 C 
ATOM      7  C   UNL     1       2.032   7.429  19.905  0.00  0.00    +0.000 A 
ENDROOT
BRANCH   1  11
ATOM      8  C   UNL     1       2.425   2.378  17.651  0.00  0.00    +0.000 C 
ATOM      9  C   UNL     1       3.066   3.733  17.532  0.00  0.00    +0.000 A 
ATOM     10  C   UNL     1       2.402   4.844  18.050  0.00  0.00    +0.000 A 
ATOM     11  C   UNL     1       2.990   6.118  17.994  0.00  0.00    +0.000 A 
ATOM     12  C   UNL     1       4.264   6.187  17.387  0.00  0.00    +0.000 A 
ATOM     13  C   UNL     1       5.254   7.168  17.121  0.00  0.00    +0.000 A 
ATOM     14  N   UNL     1       6.311   6.683  16.468  0.00  0.00    +0.000 NA
ATOM     15  N   UNL     1       6.017   5.372  16.339  0.00  0.00    +0.000 N 
ATOM     16  C   UNL     1       6.948   4.491  15.680  0.00  0.00    +0.000 C 
ATOM     17  C   UNL     1       4.812   5.014  16.883  0.00  0.00    +0.000 A 
ATOM     18  N   UNL     1       4.276   3.779  16.927  0.00  0.00    +0.000 NA
ENDBRANCH   1  11
BRANCH   4  19
ATOM     19  O   UNL     1       0.662  10.828  19.977  0.00  0.00    +0.000 OA
BRANCH  19  20
ATOM     20  C   UNL     1       0.573  11.763  18.882  0.00  0.00    +0.000 C 
BRANCH  20  21
ATOM     21  C   UNL     1       1.442  13.009  19.082  0.00  0.00    +0.000 C 
ATOM     22  C   UNL     1       2.643  13.022  18.114  0.00  0.00    +0.000 C 
ATOM     23  C   UNL     1       3.483  14.292  18.313  0.00  0.00    +0.000 C 
ATOM     24  C   UNL     1       2.864  15.180  19.411  0.00  0.00    +0.000 C 
ATOM     25  C   UNL     1       2.803  14.369  20.723  0.00  0.00    +0.000 C 
ATOM     26  C   UNL     1       1.968  13.097  20.529  0.00  0.00    +0.000 C 
ATOM     27  C   UNL     1       1.428  15.549  18.995  0.00  0.00    +0.000 C 
ATOM     28  C   UNL     1       0.592  14.278  18.802  0.00  0.00    +0.000 C 
BRANCH  24  29
ATOM     29  N   UNL     1       3.665  16.388  19.589  0.00  0.00    +0.000 NA
ATOM     30  H   UNL     1       3.159  17.194  19.227  0.00  0.00    +0.000 HD
ATOM     31  H   UNL     1       4.519  16.320  19.038  0.00  0.00    +0.000 HD
ENDBRANCH  24  29
ENDBRANCH  20  21
ENDBRANCH  19  20
ENDBRANCH   4  19
TORSDOF 5
ENDMDL
MODEL 4
REMARK VINA RESULT:      -8.3      3.394      9.873
REMARK  Name = 
REMARK  8 active torsions:
REMARK  status: ('A' for Active; 'I' for Inactive)
REMARK    1  A    between atoms: C_1  and  C_2
REMARK    2  A    between atoms: C_4  and  C_5
REMARK    3  A    between atoms: C_8  and  O_9
REMARK    4  A    between atoms: O_9  and  C_10
REMARK    5  A    between atoms: C_10  and  C_11
REMARK    6  A    between atoms: C_14  and  N_15
REMARK    7  A    between atoms: C_20  and  C_21
REMARK    8  A    between atoms: N_26  and  C_27
REMARK                            x       y       z     vdW  Elec       q    Type
REMARK                         _______ _______ _______ _____ _____    ______ ____
ROOT
ATOM      1  C   UNL     1      -0.133  10.709  21.655  0.00  0.00    +0.000 A 
ATOM      2  C   UNL     1       0.369   9.642  22.382  0.00  0.00    +0.000 A 
ATOM      3  N   UNL     1       1.076   8.627  21.857  0.00  0.00    +0.000 NA
ATOM      4  C   UNL     1       1.286   8.609  20.524  0.00  0.00    +0.000 A 
ATOM      5  C   UNL     1       0.765   9.577  19.673  0.00  0.00    +0.000 A 
ATOM      6  C   UNL     1       0.885   9.569  18.182  0.00  0.00    +0.000 C 
ATOM      7  C   UNL     1       0.069  10.644  20.269  0.00  0.00    +0.000 A 
ENDROOT
BRANCH   1  11
ATOM      8  C   UNL     1      -3.989  12.514  24.295  0.00  0.00    +0.000 C 
ATOM      9  C   UNL     1      -2.687  12.736  23.576  0.00  0.00    +0.000 A 
ATOM     10  C   UNL     1      -2.035  11.645  23.005  0.00  0.00    +0.000 A 
ATOM     11  C   UNL     1      -0.839  11.820  22.289  0.00  0.00    +0.000 A 
ATOM     12  C   UNL     1      -0.360  13.146  22.198  0.00  0.00    +0.000 A 
ATOM     13  C   UNL     1       0.721  13.838  21.594  0.00  0.00    +0.000 A 
ATOM     14  N   UNL     1       0.718  15.147  21.854  0.00  0.00    +0.000 NA
ATOM     15  N   UNL     1      -0.391  15.307  22.606  0.00  0.00    +0.000 N 
ATOM     16  C   UNL     1      -0.748  16.619  23.084  0.00  0.00    +0.000 C 
ATOM     17  C   UNL     1      -1.085  14.148  22.833  0.00  0.00    +0.000 A 
ATOM     18  N   UNL     1      -2.235  14.011  23.520  0.00  0.00    +0.000 NA
ENDBRANCH   1  11
BRANCH   4  19
ATOM     19  O   UNL     1       2.055   7.572  20.028  0.00  0.00    +0.000 OA
BRANCH  19  20
ATOM     20  C   UNL     1       1.768   6.354  20.745  0.00  0.00    +0.000 C 
BRANCH  20  21
ATOM     21  C   UNL     1       1.998   5.092  19.906  0.00  0.00    +0.000 C 
ATOM     22  C   UNL     1       3.372   4.459  20.203  0.00  0.00    +0.000 C 
ATOM     23  C   UNL     1       3.569   3.182  19.372  0.00  0.00    +0.000 C 
ATOM     24  C   UNL     1       2.325   2.909  18.502  0.00  0.00    +0.000 C 
ATOM     25  C   UNL     1       2.099   4.121  17.573  0.00  0.00    +0.000 C 
ATOM     26  C   UNL     1       1.906   5.400  18.398  0.00  0.00    +0.000 C 
ATOM     27  C   UNL     1       1.101   2.763  19.425  0.00  0.00    +0.000 C 
ATOM     28  C   UNL     1       0.906   4.042  20.249  0.00  0.00    +0.000 C 
BRANCH  24  29
ATOM     29  N   UNL     1       2.517   1.691  17.721  0.00  0.00    +0.000 NA
ATOM     30  H   UNL     1       2.244   1.855  16.753  0.00  0.00    +0.000 HD
ATOM     31  H   UNL     1       1.901   0.957  18.067  0.00  0.00    +0.000 HD
ENDBRANCH  24  29
ENDBRANCH  20  21
ENDBRANCH  19  20
ENDBRANCH   4  19
TORSDOF 5
ENDMDL
MODEL 5
REMARK VINA RESULT:      -8.2      3.278      9.833
REMARK  Name = 
REMARK  8 active torsions:
REMARK  status: ('A' for Active; 'I' for Inactive)
REMARK    1  A    between atoms: C_1  and  C_2
REMARK    2  A    between atoms: C_4  and  C_5
REMARK    3  A    between atoms: C_8  and  O_9
REMARK    4  A    between atoms: O_9  and  C_10
REMARK    5  A    between atoms: C_10  and  C_11
REMARK    6  A    between atoms: C_14  and  N_15
REMARK    7  A    between atoms: C_20  and  C_21
REMARK    8  A    between atoms: N_26  and  C_27
REMARK                            x       y       z     vdW  Elec       q    Type
REMARK                         _______ _______ _______ _____ _____    ______ ____
ROOT
ATOM      1  C   UNL     1      -0.022  10.714  21.529  0.00  0.00    +0.000 A 
ATOM      2  C   UNL     1       0.419   9.637  22.280  0.00  0.00    +0.000 A 
ATOM      3  N   UNL     1       1.109   8.596  21.786  0.00  0.00    +0.000 NA
ATOM      4  C   UNL     1       1.362   8.559  20.461  0.00  0.00    +0.000 A 
ATOM      5  C   UNL     1       0.903   9.537  19.586  0.00  0.00    +0.000 A 
ATOM      6  C   UNL     1       1.072   9.513  18.100  0.00  0.00    +0.000 C 
ATOM      7  C   UNL     1       0.224  10.631  20.151  0.00  0.00    +0.000 A 
ENDROOT
BRANCH   1  11
ATOM      8  C   UNL     1      -3.862  12.656  24.093  0.00  0.00    +0.000 C 
ATOM      9  C   UNL     1      -2.551  12.835  23.380  0.00  0.00    +0.000 A 
ATOM     10  C   UNL     1      -1.916  11.719  22.840  0.00  0.00    +0.000 A 
ATOM     11  C   UNL     1      -0.711  11.854  22.131  0.00  0.00    +0.000 A 
ATOM     12  C   UNL     1      -0.205  13.167  22.013  0.00  0.00    +0.000 A 
ATOM     13  C   UNL     1       0.894  13.824  21.403  0.00  0.00    +0.000 A 
ATOM     14  N   UNL     1       0.915  15.138  21.632  0.00  0.00    +0.000 NA
ATOM     15  N   UNL     1      -0.197  15.337  22.371  0.00  0.00    +0.000 N 
ATOM     16  C   UNL     1      -0.532  16.667  22.815  0.00  0.00    +0.000 C 
ATOM     17  C   UNL     1      -0.915  14.198  22.618  0.00  0.00    +0.000 A 
ATOM     18  N   UNL     1      -2.073  14.099  23.299  0.00  0.00    +0.000 NA
ENDBRANCH   1  11
BRANCH   4  19
ATOM     19  O   UNL     1       2.113   7.493  19.998  0.00  0.00    +0.000 OA
BRANCH  19  20
ATOM     20  C   UNL     1       1.775   6.295  20.728  0.00  0.00    +0.000 C 
BRANCH  20  21
ATOM     21  C   UNL     1       1.976   5.014  19.910  0.00  0.00    +0.000 C 
ATOM     22  C   UNL     1       0.890   3.966  20.226  0.00  0.00    +0.000 C 
ATOM     23  C   UNL     1       1.097   2.704  19.375  0.00  0.00    +0.000 C 
ATOM     24  C   UNL     1       2.319   2.872  18.450  0.00  0.00    +0.000 C 
ATOM     25  C   UNL     1       3.564   3.135  19.324  0.00  0.00    +0.000 C 
ATOM     26  C   UNL     1       3.362   4.393  20.179  0.00  0.00    +0.000 C 
ATOM     27  C   UNL     1       2.087   4.094  17.544  0.00  0.00    +0.000 C 
ATOM     28  C   UNL     1       1.887   5.353  18.398  0.00  0.00    +0.000 C 
BRANCH  24  29
ATOM     29  N   UNL     1       2.504   1.670  17.641  0.00  0.00    +0.000 NA
ATOM     30  H   UNL     1       1.836   1.666  16.872  0.00  0.00    +0.000 HD
ATOM     31  H   UNL     1       2.296   0.843  18.199  0.00  0.00    +0.000 HD
ENDBRANCH  24  29
ENDBRANCH  20  21
ENDBRANCH  19  20
ENDBRANCH   4  19
TORSDOF 5
ENDMDL
MODEL 6
REMARK VINA RESULT:      -8.2      2.407      3.135
REMARK  Name = 
REMARK  8 active torsions:
REMARK  status: ('A' for Active; 'I' for Inactive)
REMARK    1  A    between atoms: C_1  and  C_2
REMARK    2  A    between atoms: C_4  and  C_5
REMARK    3  A    between atoms: C_8  and  O_9
REMARK    4  A    between atoms: O_9  and  C_10
REMARK    5  A    between atoms: C_10  and  C_11
REMARK    6  A    between atoms: C_14  and  N_15
REMARK    7  A    between atoms: C_20  and  C_21
REMARK    8  A    between atoms: N_26  and  C_27
REMARK                            x       y       z     vdW  Elec       q    Type
REMARK                         _______ _______ _______ _____ _____    ______ ____
ROOT
ATOM      1  C   UNL     1       2.408   7.330  18.498  0.00  0.00    +0.000 A 
ATOM      2  C   UNL     1       2.178   8.446  17.710  0.00  0.00    +0.000 A 
ATOM      3  N   UNL     1       1.680   9.609  18.162  0.00  0.00    +0.000 NA
ATOM      4  C   UNL     1       1.333   9.700  19.463  0.00  0.00    +0.000 A 
ATOM      5  C   UNL     1       1.437   8.626  20.340  0.00  0.00    +0.000 A 
ATOM      6  C   UNL     1       0.990   8.633  21.768  0.00  0.00    +0.000 C 
ATOM      7  C   UNL     1       2.004   7.443  19.836  0.00  0.00    +0.000 A 
ENDROOT
BRANCH   1  11
ATOM      8  C   UNL     1       2.332   2.385  17.699  0.00  0.00    +0.000 C 
ATOM      9  C   UNL     1       3.013   3.717  17.549  0.00  0.00    +0.000 A 
ATOM     10  C   UNL     1       2.389   4.857  18.051  0.00  0.00    +0.000 A 
ATOM     11  C   UNL     1       3.015   6.112  17.966  0.00  0.00    +0.000 A 
ATOM     12  C   UNL     1       4.284   6.130  17.348  0.00  0.00    +0.000 A 
ATOM     13  C   UNL     1       5.302   7.075  17.055  0.00  0.00    +0.000 A 
ATOM     14  N   UNL     1       6.338   6.546  16.403  0.00  0.00    +0.000 NA
ATOM     15  N   UNL     1       6.003   5.242  16.301  0.00  0.00    +0.000 N 
ATOM     16  C   UNL     1       6.901   4.321  15.651  0.00  0.00    +0.000 C 
ATOM     17  C   UNL     1       4.792   4.932  16.861  0.00  0.00    +0.000 A 
ATOM     18  N   UNL     1       4.219   3.715  16.933  0.00  0.00    +0.000 NA
ENDBRANCH   1  11
BRANCH   4  19
ATOM     19  O   UNL     1       0.865  10.926  19.900  0.00  0.00    +0.000 OA
BRANCH  19  20
ATOM     20  C   UNL     1      -0.236  11.359  19.074  0.00  0.00    +0.000 C 
BRANCH  20  21
ATOM     21  C   UNL     1      -1.295  12.152  19.849  0.00  0.00    +0.000 C 
ATOM     22  C   UNL     1      -2.708  11.919  19.277  0.00  0.00    +0.000 C 
ATOM     23  C   UNL     1      -3.753  12.701  20.086  0.00  0.00    +0.000 C 
ATOM     24  C   UNL     1      -3.076  13.472  21.237  0.00  0.00    +0.000 C 
ATOM     25  C   UNL     1      -2.035  14.440  20.635  0.00  0.00    +0.000 C 
ATOM     26  C   UNL     1      -0.989  13.663  19.822  0.00  0.00    +0.000 C 
ATOM     27  C   UNL     1      -2.345  12.465  22.142  0.00  0.00    +0.000 C 
ATOM     28  C   UNL     1      -1.299  11.690  21.331  0.00  0.00    +0.000 C 
BRANCH  24  29
ATOM     29  N   UNL     1      -4.078  14.208  22.004  0.00  0.00    +0.000 NA
ATOM     30  H   UNL     1      -3.805  14.241  22.985  0.00  0.00    +0.000 HD
ATOM     31  H   UNL     1      -4.967  13.712  21.975  0.00  0.00    +0.000 HD
ENDBRANCH  24  29
ENDBRANCH  20  21
ENDBRANCH  19  20
ENDBRANCH   4  19
TORSDOF 5
ENDMDL
MODEL 7
REMARK VINA RESULT:      -8.2      0.933      2.365
REMARK  Name = 
REMARK  8 active torsions:
REMARK  status: ('A' for Active; 'I' for Inactive)
REMARK    1  A    between atoms: C_1  and  C_2
REMARK    2  A    between atoms: C_4  and  C_5
REMARK    3  A    between atoms: C_8  and  O_9
REMARK    4  A    between atoms: O_9  and  C_10
REMARK    5  A    between atoms: C_10  and  C_11
REMARK    6  A    between atoms: C_14  and  N_15
REMARK    7  A    between atoms: C_20  and  C_21
REMARK    8  A    between atoms: N_26  and  C_27
REMARK                            x       y       z     vdW  Elec       q    Type
REMARK                         _______ _______ _______ _____ _____    ______ ____
ROOT
ATOM      1  C   UNL     1       2.341   7.527  18.614  0.00  0.00    +0.000 A 
ATOM      2  C   UNL     1       1.900   8.542  17.780  0.00  0.00    +0.000 A 
ATOM      3  N   UNL     1       1.255   9.644  18.198  0.00  0.00    +0.000 NA
ATOM      4  C   UNL     1       0.970   9.767  19.511  0.00  0.00    +0.000 A 
ATOM      5  C   UNL     1       1.285   8.781  20.439  0.00  0.00    +0.000 A 
ATOM      6  C   UNL     1       0.922   8.814  21.890  0.00  0.00    +0.000 C 
ATOM      7  C   UNL     1       1.999   7.665  19.967  0.00  0.00    +0.000 A 
ENDROOT
BRANCH   1  11
ATOM      8  C   UNL     1       6.026   5.587  15.830  0.00  0.00    +0.000 C 
ATOM      9  C   UNL     1       4.880   5.399  16.784  0.00  0.00    +0.000 A 
ATOM     10  C   UNL     1       4.199   6.521  17.254  0.00  0.00    +0.000 A 
ATOM     11  C   UNL     1       3.097   6.381  18.113  0.00  0.00    +0.000 A 
ATOM     12  C   UNL     1       2.743   5.058  18.457  0.00  0.00    +0.000 A 
ATOM     13  C   UNL     1       1.746   4.396  19.220  0.00  0.00    +0.000 A 
ATOM     14  N   UNL     1       1.891   3.070  19.236  0.00  0.00    +0.000 NA
ATOM     15  N   UNL     1       2.971   2.870  18.452  0.00  0.00    +0.000 N 
ATOM     16  C   UNL     1       3.444   1.529  18.213  0.00  0.00    +0.000 C 
ATOM     17  C   UNL     1       3.515   4.021  17.946  0.00  0.00    +0.000 A 
ATOM     18  N   UNL     1       4.572   4.124  17.118  0.00  0.00    +0.000 NA
ENDBRANCH   1  11
BRANCH   4  19
ATOM     19  O   UNL     1       0.344  10.936  19.907  0.00  0.00    +0.000 OA
BRANCH  19  20
ATOM     20  C   UNL     1       0.344  11.889  18.825  0.00  0.00    +0.000 C 
BRANCH  20  21
ATOM     21  C   UNL     1       1.262  13.091  19.081  0.00  0.00    +0.000 C 
ATOM     22  C   UNL     1       1.839  13.066  20.511  0.00  0.00    +0.000 C 
ATOM     23  C   UNL     1       2.776  14.263  20.734  0.00  0.00    +0.000 C 
ATOM     24  C   UNL     1       2.868  15.120  19.456  0.00  0.00    +0.000 C 
ATOM     25  C   UNL     1       1.452  15.612  19.090  0.00  0.00    +0.000 C 
ATOM     26  C   UNL     1       0.511  14.420  18.869  0.00  0.00    +0.000 C 
ATOM     27  C   UNL     1       3.393  14.239  18.308  0.00  0.00    +0.000 C 
ATOM     28  C   UNL     1       2.453  13.048  18.085  0.00  0.00    +0.000 C 
BRANCH  24  29
ATOM     29  N   UNL     1       3.765  16.252  19.675  0.00  0.00    +0.000 NA
ATOM     30  H   UNL     1       3.771  16.500  20.663  0.00  0.00    +0.000 HD
ATOM     31  H   UNL     1       3.415  17.071  19.181  0.00  0.00    +0.000 HD
ENDBRANCH  24  29
ENDBRANCH  20  21
ENDBRANCH  19  20
ENDBRANCH   4  19
TORSDOF 5
ENDMDL
MODEL 8
REMARK VINA RESULT:      -8.2      2.449      3.184
REMARK  Name = 
REMARK  8 active torsions:
REMARK  status: ('A' for Active; 'I' for Inactive)
REMARK    1  A    between atoms: C_1  and  C_2
REMARK    2  A    between atoms: C_4  and  C_5
REMARK    3  A    between atoms: C_8  and  O_9
REMARK    4  A    between atoms: O_9  and  C_10
REMARK    5  A    between atoms: C_10  and  C_11
REMARK    6  A    between atoms: C_14  and  N_15
REMARK    7  A    between atoms: C_20  and  C_21
REMARK    8  A    between atoms: N_26  and  C_27
REMARK                            x       y       z     vdW  Elec       q    Type
REMARK                         _______ _______ _______ _____ _____    ______ ____
ROOT
ATOM      1  C   UNL     1       2.401   7.397  18.510  0.00  0.00    +0.000 A 
ATOM      2  C   UNL     1       2.157   8.505  17.715  0.00  0.00    +0.000 A 
ATOM      3  N   UNL     1       1.659   9.669  18.164  0.00  0.00    +0.000 NA
ATOM      4  C   UNL     1       1.328   9.770  19.469  0.00  0.00    +0.000 A 
ATOM      5  C   UNL     1       1.448   8.705  20.353  0.00  0.00    +0.000 A 
ATOM      6  C   UNL     1       1.021   8.722  21.787  0.00  0.00    +0.000 C 
ATOM      7  C   UNL     1       2.015   7.519  19.852  0.00  0.00    +0.000 A 
ENDROOT
BRANCH   1  11
ATOM      8  C   UNL     1       2.314   2.452  17.711  0.00  0.00    +0.000 C 
ATOM      9  C   UNL     1       3.000   3.782  17.564  0.00  0.00    +0.000 A 
ATOM     10  C   UNL     1       2.377   4.924  18.063  0.00  0.00    +0.000 A 
ATOM     11  C   UNL     1       3.007   6.176  17.981  0.00  0.00    +0.000 A 
ATOM     12  C   UNL     1       4.279   6.191  17.368  0.00  0.00    +0.000 A 
ATOM     13  C   UNL     1       5.301   7.133  17.079  0.00  0.00    +0.000 A 
ATOM     14  N   UNL     1       6.339   6.600  16.432  0.00  0.00    +0.000 NA
ATOM     15  N   UNL     1       5.999   5.298  16.329  0.00  0.00    +0.000 N 
ATOM     16  C   UNL     1       6.897   4.374  15.682  0.00  0.00    +0.000 C 
ATOM     17  C   UNL     1       4.786   4.991  16.884  0.00  0.00    +0.000 A 
ATOM     18  N   UNL     1       4.208   3.776  16.953  0.00  0.00    +0.000 NA
ENDBRANCH   1  11
BRANCH   4  19
ATOM     19  O   UNL     1       0.861  10.998  19.900  0.00  0.00    +0.000 OA
BRANCH  19  20
ATOM     20  C   UNL     1      -0.291  11.391  19.125  0.00  0.00    +0.000 C 
BRANCH  20  21
ATOM     21  C   UNL     1      -1.327  12.173  19.940  0.00  0.00    +0.000 C 
ATOM     22  C   UNL     1      -1.038  13.688  19.916  0.00  0.00    +0.000 C 
ATOM     23  C   UNL     1      -2.105  14.453  20.714  0.00  0.00    +0.000 C 
ATOM     24  C   UNL     1      -3.152  13.476  21.287  0.00  0.00    +0.000 C 
ATOM     25  C   UNL     1      -2.431  12.460  22.197  0.00  0.00    +0.000 C 
ATOM     26  C   UNL     1      -1.362  11.695  21.405  0.00  0.00    +0.000 C 
ATOM     27  C   UNL     1      -3.804  12.714  20.119  0.00  0.00    +0.000 C 
ATOM     28  C   UNL     1      -2.737  11.948  19.328  0.00  0.00    +0.000 C 
BRANCH  24  29
ATOM     29  N   UNL     1      -4.164  14.212  22.039  0.00  0.00    +0.000 NA
ATOM     30  H   UNL     1      -3.947  15.207  22.028  0.00  0.00    +0.000 HD
ATOM     31  H   UNL     1      -4.141  13.929  23.018  0.00  0.00    +0.000 HD
ENDBRANCH  24  29
ENDBRANCH  20  21
ENDBRANCH  19  20
ENDBRANCH   4  19
TORSDOF 5
ENDMDL
MODEL 9
REMARK VINA RESULT:      -8.2      2.456      3.072
REMARK  Name = 
REMARK  8 active torsions:
REMARK  status: ('A' for Active; 'I' for Inactive)
REMARK    1  A    between atoms: C_1  and  C_2
REMARK    2  A    between atoms: C_4  and  C_5
REMARK    3  A    between atoms: C_8  and  O_9
REMARK    4  A    between atoms: O_9  and  C_10
REMARK    5  A    between atoms: C_10  and  C_11
REMARK    6  A    between atoms: C_14  and  N_15
REMARK    7  A    between atoms: C_20  and  C_21
REMARK    8  A    between atoms: N_26  and  C_27
REMARK                            x       y       z     vdW  Elec       q    Type
REMARK                         _______ _______ _______ _____ _____    ______ ____
ROOT
ATOM      1  C   UNL     1       2.363   7.403  18.543  0.00  0.00    +0.000 A 
ATOM      2  C   UNL     1       2.102   8.504  17.744  0.00  0.00    +0.000 A 
ATOM      3  N   UNL     1       1.610   9.671  18.192  0.00  0.00    +0.000 NA
ATOM      4  C   UNL     1       1.304   9.782  19.502  0.00  0.00    +0.000 A 
ATOM      5  C   UNL     1       1.441   8.724  20.393  0.00  0.00    +0.000 A 
ATOM      6  C   UNL     1       1.040   8.752  21.834  0.00  0.00    +0.000 C 
ATOM      7  C   UNL     1       2.001   7.536  19.891  0.00  0.00    +0.000 A 
ENDROOT
BRANCH   1  11
ATOM      8  C   UNL     1       2.251   2.458  17.749  0.00  0.00    +0.000 C 
ATOM      9  C   UNL     1       2.942   3.785  17.598  0.00  0.00    +0.000 A 
ATOM     10  C   UNL     1       2.326   4.930  18.098  0.00  0.00    +0.000 A 
ATOM     11  C   UNL     1       2.961   6.180  18.013  0.00  0.00    +0.000 A 
ATOM     12  C   UNL     1       4.232   6.188  17.396  0.00  0.00    +0.000 A 
ATOM     13  C   UNL     1       5.257   7.125  17.103  0.00  0.00    +0.000 A 
ATOM     14  N   UNL     1       6.290   6.587  16.452  0.00  0.00    +0.000 NA
ATOM     15  N   UNL     1       5.945   5.286  16.352  0.00  0.00    +0.000 N 
ATOM     16  C   UNL     1       6.836   4.357  15.703  0.00  0.00    +0.000 C 
ATOM     17  C   UNL     1       4.731   4.985  16.911  0.00  0.00    +0.000 A 
ATOM     18  N   UNL     1       4.148   3.773  16.983  0.00  0.00    +0.000 NA
ENDBRANCH   1  11
BRANCH   4  19
ATOM     19  O   UNL     1       0.841  11.013  19.932  0.00  0.00    +0.000 OA
BRANCH  19  20
ATOM     20  C   UNL     1      -0.280  11.431  19.127  0.00  0.00    +0.000 C 
BRANCH  20  21
ATOM     21  C   UNL     1      -1.359  12.165  19.931  0.00  0.00    +0.000 C 
ATOM     22  C   UNL     1      -1.376  11.708  21.404  0.00  0.00    +0.000 C 
ATOM     23  C   UNL     1      -2.445  12.477  22.195  0.00  0.00    +0.000 C 
ATOM     24  C   UNL     1      -3.169  13.486  21.280  0.00  0.00    +0.000 C 
ATOM     25  C   UNL     1      -3.822  12.712  20.115  0.00  0.00    +0.000 C 
ATOM     26  C   UNL     1      -2.758  11.939  19.323  0.00  0.00    +0.000 C 
ATOM     27  C   UNL     1      -2.129  14.461  20.701  0.00  0.00    +0.000 C 
ATOM     28  C   UNL     1      -1.067  13.690  19.908  0.00  0.00    +0.000 C 
BRANCH  24  29
ATOM     29  N   UNL     1      -4.179  14.216  22.041  0.00  0.00    +0.000 NA
ATOM     30  H   UNL     1      -5.056  14.232  21.524  0.00  0.00    +0.000 HD
ATOM     31  H   UNL     1      -3.896  15.189  22.146  0.00  0.00    +0.000 HD
ENDBRANCH  24  29
ENDBRANCH  20  21
ENDBRANCH  19  20
ENDBRANCH   4  19
TORSDOF 5
ENDMDL
