MODEL 1
REMARK VINA RESULT:      -7.3      0.000      0.000
REMARK  Name = 
REMARK  7 active torsions:
REMARK  status: ('A' for Active; 'I' for Inactive)
REMARK    1  A    between atoms: C_2  and  O_3
REMARK    2  A    between atoms: C_2  and  C_4
REMARK    3  A    between atoms: C_4  and  C_5
REMARK    4  A    between atoms: C_5  and  C_6
REMARK    5  A    between atoms: C_6  and  C_7
REMARK    6  A    between atoms: C_7  and  C_8
REMARK    7  A    between atoms: C_8  and  C_9
REMARK                            x       y       z     vdW  Elec       q    Type
REMARK                         _______ _______ _______ _____ _____    ______ ____
ROOT
ATOM      1  C   UNL     1       4.422   3.252  18.673  0.00  0.00    +0.000 A 
ATOM      2  N   UNL     1       5.418   3.779  19.349  0.00  0.00    +0.000 NA
ATOM      3  C   UNL     1       5.971   4.841  18.646  0.00  0.00    +0.000 A 
ATOM      4  C   UNL     1       7.049   5.655  19.051  0.00  0.00    +0.000 A 
ATOM      5  F   UNL     1       7.657   5.442  20.229  0.00  0.00    +0.000 F 
ATOM      6  C   UNL     1       7.491   6.686  18.226  0.00  0.00    +0.000 A 
ATOM      7  F   UNL     1       8.519   7.457  18.612  0.00  0.00    +0.000 F 
ATOM      8  C   UNL     1       6.888   6.937  17.004  0.00  0.00    +0.000 A 
ATOM      9  C   UNL     1       5.821   6.145  16.590  0.00  0.00    +0.000 A 
ATOM     10  F   UNL     1       5.242   6.394  15.407  0.00  0.00    +0.000 F 
ATOM     11  C   UNL     1       5.369   5.104  17.412  0.00  0.00    +0.000 A 
ATOM     12  S   UNL     1       4.090   3.981  17.155  0.00  0.00    +0.000 S 
ENDROOT
BRANCH   1  13
ATOM     13  C   UNL     1       3.594   2.106  19.166  0.00  0.00    +0.000 C 
BRANCH  13  14
ATOM     14  C   UNL     1       2.113   2.332  18.859  0.00  0.00    +0.000 C 
BRANCH  14  15
ATOM     15  C   UNL     1       1.311   2.633  20.126  0.00  0.00    +0.000 C 
BRANCH  15  16
ATOM     16  C   UNL     1       0.921   4.110  20.179  0.00  0.00    +0.000 C 
BRANCH  16  17
ATOM     17  C   UNL     1       1.982   4.959  20.879  0.00  0.00    +0.000 C 
BRANCH  17  19
ATOM     18  O   UNL     1       2.468   6.493  19.059  0.00  0.00    +0.000 OA
ATOM     19  C   UNL     1       2.134   6.311  20.219  0.00  0.00    +0.000 C 
BRANCH  19  20
ATOM     20  O   UNL     1       1.856   7.337  21.053  0.00  0.00    +0.000 OA
ATOM     21  H   UNL     1       2.518   8.055  21.042  0.00  0.00    +0.000 HD
ENDBRANCH  19  20
ENDBRANCH  17  19
ENDBRANCH  16  17
ENDBRANCH  15  16
ENDBRANCH  14  15
ENDBRANCH  13  14
ENDBRANCH   1  13
TORSDOF 7
ENDMDL
MODEL 2
REMARK VINA RESULT:      -7.3      1.199      1.383
REMARK  Name = 
REMARK  7 active torsions:
REMARK  status: ('A' for Active; 'I' for Inactive)
REMARK    1  A    between atoms: C_2  and  O_3
REMARK    2  A    between atoms: C_2  and  C_4
REMARK    3  A    between atoms: C_4  and  C_5
REMARK    4  A    between atoms: C_5  and  C_6
REMARK    5  A    between atoms: C_6  and  C_7
REMARK    6  A    between atoms: C_7  and  C_8
REMARK    7  A    between atoms: C_8  and  C_9
REMARK                            x       y       z     vdW  Elec       q    Type
REMARK                         _______ _______ _______ _____ _____    ______ ____
ROOT
ATOM      1  C   UNL     1       4.671   3.361  18.565  0.00  0.00    +0.000 A 
ATOM      2  N   UNL     1       5.689   3.838  19.245  0.00  0.00    +0.000 NA
ATOM      3  C   UNL     1       6.189   4.978  18.630  0.00  0.00    +0.000 A 
ATOM      4  C   UNL     1       7.272   5.770  19.066  0.00  0.00    +0.000 A 
ATOM      5  F   UNL     1       7.940   5.452  20.186  0.00  0.00    +0.000 F 
ATOM      6  C   UNL     1       7.655   6.890  18.330  0.00  0.00    +0.000 A 
ATOM      7  F   UNL     1       8.687   7.640  18.746  0.00  0.00    +0.000 F 
ATOM      8  C   UNL     1       6.989   7.250  17.170  0.00  0.00    +0.000 A 
ATOM      9  C   UNL     1       5.916   6.481  16.728  0.00  0.00    +0.000 A 
ATOM     10  F   UNL     1       5.276   6.836  15.606  0.00  0.00    +0.000 F 
ATOM     11  C   UNL     1       5.524   5.352  17.458  0.00  0.00    +0.000 A 
ATOM     12  S   UNL     1       4.252   4.233  17.148  0.00  0.00    +0.000 S 
ENDROOT
BRANCH   1  13
ATOM     13  C   UNL     1       3.888   2.152  18.977  0.00  0.00    +0.000 C 
BRANCH  13  14
ATOM     14  C   UNL     1       2.726   1.902  18.015  0.00  0.00    +0.000 C 
BRANCH  14  15
ATOM     15  C   UNL     1       1.373   2.019  18.717  0.00  0.00    +0.000 C 
BRANCH  15  16
ATOM     16  C   UNL     1       0.994   3.486  18.917  0.00  0.00    +0.000 C 
BRANCH  16  17
ATOM     17  C   UNL     1       0.700   3.809  20.382  0.00  0.00    +0.000 C 
BRANCH  17  19
ATOM     18  O   UNL     1       2.679   5.129  20.877  0.00  0.00    +0.000 OA
ATOM     19  C   UNL     1       1.961   4.176  21.133  0.00  0.00    +0.000 C 
BRANCH  19  20
ATOM     20  O   UNL     1       2.233   3.328  22.149  0.00  0.00    +0.000 OA
ATOM     21  H   UNL     1       1.754   3.526  22.977  0.00  0.00    +0.000 HD
ENDBRANCH  19  20
ENDBRANCH  17  19
ENDBRANCH  16  17
ENDBRANCH  15  16
ENDBRANCH  14  15
ENDBRANCH  13  14
ENDBRANCH   1  13
TORSDOF 7
ENDMDL
MODEL 3
REMARK VINA RESULT:      -7.1      3.356      5.766
REMARK  Name = 
REMARK  7 active torsions:
REMARK  status: ('A' for Active; 'I' for Inactive)
REMARK    1  A    between atoms: C_2  and  O_3
REMARK    2  A    between atoms: C_2  and  C_4
REMARK    3  A    between atoms: C_4  and  C_5
REMARK    4  A    between atoms: C_5  and  C_6
REMARK    5  A    between atoms: C_6  and  C_7
REMARK    6  A    between atoms: C_7  and  C_8
REMARK    7  A    between atoms: C_8  and  C_9
REMARK                            x       y       z     vdW  Elec       q    Type
REMARK                         _______ _______ _______ _____ _____    ______ ____
ROOT
ATOM      1  C   UNL     1       4.288   4.998  17.097  0.00  0.00    +0.000 A 
ATOM      2  N   UNL     1       3.846   3.845  17.546  0.00  0.00    +0.000 NA
ATOM      3  C   UNL     1       3.011   4.040  18.639  0.00  0.00    +0.000 A 
ATOM      4  C   UNL     1       2.344   3.045  19.384  0.00  0.00    +0.000 A 
ATOM      5  F   UNL     1       2.480   1.749  19.062  0.00  0.00    +0.000 F 
ATOM      6  C   UNL     1       1.540   3.405  20.462  0.00  0.00    +0.000 A 
ATOM      7  F   UNL     1       0.908   2.457  21.170  0.00  0.00    +0.000 F 
ATOM      8  C   UNL     1       1.374   4.733  20.823  0.00  0.00    +0.000 A 
ATOM      9  C   UNL     1       2.023   5.728  20.097  0.00  0.00    +0.000 A 
ATOM     10  F   UNL     1       1.857   7.009  20.451  0.00  0.00    +0.000 F 
ATOM     11  C   UNL     1       2.837   5.376  19.012  0.00  0.00    +0.000 A 
ATOM     12  S   UNL     1       3.748   6.383  17.954  0.00  0.00    +0.000 S 
ENDROOT
BRANCH   1  13
ATOM     13  C   UNL     1       5.189   5.139  15.908  0.00  0.00    +0.000 C 
BRANCH  13  14
ATOM     14  C   UNL     1       6.368   4.170  16.002  0.00  0.00    +0.000 C 
BRANCH  14  15
ATOM     15  C   UNL     1       7.463   4.697  16.930  0.00  0.00    +0.000 C 
BRANCH  15  16
ATOM     16  C   UNL     1       7.393   6.221  17.035  0.00  0.00    +0.000 C 
BRANCH  16  17
ATOM     17  C   UNL     1       7.820   6.721  18.415  0.00  0.00    +0.000 C 
BRANCH  17  19
ATOM     18  O   UNL     1       6.437   5.265  19.783  0.00  0.00    +0.000 OA
ATOM     19  C   UNL     1       7.541   5.693  19.489  0.00  0.00    +0.000 C 
BRANCH  19  20
ATOM     20  O   UNL     1       8.662   5.271  20.116  0.00  0.00    +0.000 OA
ATOM     21  H   UNL     1       8.500   4.673  20.870  0.00  0.00    +0.000 HD
ENDBRANCH  19  20
ENDBRANCH  17  19
ENDBRANCH  16  17
ENDBRANCH  15  16
ENDBRANCH  14  15
ENDBRANCH  13  14
ENDBRANCH   1  13
TORSDOF 7
ENDMDL
MODEL 4
REMARK VINA RESULT:      -7.0      4.314      6.952
REMARK  Name = 
REMARK  7 active torsions:
REMARK  status: ('A' for Active; 'I' for Inactive)
REMARK    1  A    between atoms: C_2  and  O_3
REMARK    2  A    between atoms: C_2  and  C_4
REMARK    3  A    between atoms: C_4  and  C_5
REMARK    4  A    between atoms: C_5  and  C_6
REMARK    5  A    between atoms: C_6  and  C_7
REMARK    6  A    between atoms: C_7  and  C_8
REMARK    7  A    between atoms: C_8  and  C_9
REMARK                            x       y       z     vdW  Elec       q    Type
REMARK                         _______ _______ _______ _____ _____    ______ ____
ROOT
ATOM      1  C   UNL     1       5.344   4.517  17.943  0.00  0.00    +0.000 A 
ATOM      2  N   UNL     1       4.543   3.569  17.510  0.00  0.00    +0.000 NA
ATOM      3  C   UNL     1       3.364   3.560  18.244  0.00  0.00    +0.000 A 
ATOM      4  C   UNL     1       2.265   2.694  18.071  0.00  0.00    +0.000 A 
ATOM      5  F   UNL     1       2.286   1.751  17.115  0.00  0.00    +0.000 F 
ATOM      6  C   UNL     1       1.149   2.812  18.895  0.00  0.00    +0.000 A 
ATOM      7  F   UNL     1       0.106   1.984  18.730  0.00  0.00    +0.000 F 
ATOM      8  C   UNL     1       1.090   3.773  19.891  0.00  0.00    +0.000 A 
ATOM      9  C   UNL     1       2.164   4.639  20.075  0.00  0.00    +0.000 A 
ATOM     10  F   UNL     1       2.100   5.566  21.039  0.00  0.00    +0.000 F 
ATOM     11  C   UNL     1       3.293   4.527  19.252  0.00  0.00    +0.000 A 
ATOM     12  S   UNL     1       4.748   5.449  19.256  0.00  0.00    +0.000 S 
ENDROOT
BRANCH   1  13
ATOM     13  C   UNL     1       6.686   4.811  17.346  0.00  0.00    +0.000 C 
BRANCH  13  14
ATOM     14  C   UNL     1       6.539   5.568  16.025  0.00  0.00    +0.000 C 
BRANCH  14  15
ATOM     15  C   UNL     1       7.179   4.808  14.863  0.00  0.00    +0.000 C 
BRANCH  15  16
ATOM     16  C   UNL     1       6.131   3.991  14.109  0.00  0.00    +0.000 C 
BRANCH  16  17
ATOM     17  C   UNL     1       6.409   3.943  12.607  0.00  0.00    +0.000 C 
BRANCH  17  19
ATOM     18  O   UNL     1       4.403   3.408  11.345  0.00  0.00    +0.000 OA
ATOM     19  C   UNL     1       5.431   3.039  11.890  0.00  0.00    +0.000 C 
BRANCH  19  20
ATOM     20  O   UNL     1       5.808   1.742  11.903  0.00  0.00    +0.000 OA
ATOM     21  H   UNL     1       5.089   1.112  11.704  0.00  0.00    +0.000 HD
ENDBRANCH  19  20
ENDBRANCH  17  19
ENDBRANCH  16  17
ENDBRANCH  15  16
ENDBRANCH  14  15
ENDBRANCH  13  14
ENDBRANCH   1  13
TORSDOF 7
ENDMDL
MODEL 5
REMARK VINA RESULT:      -6.9      4.281      6.732
REMARK  Name = 
REMARK  7 active torsions:
REMARK  status: ('A' for Active; 'I' for Inactive)
REMARK    1  A    between atoms: C_2  and  O_3
REMARK    2  A    between atoms: C_2  and  C_4
REMARK    3  A    between atoms: C_4  and  C_5
REMARK    4  A    between atoms: C_5  and  C_6
REMARK    5  A    between atoms: C_6  and  C_7
REMARK    6  A    between atoms: C_7  and  C_8
REMARK    7  A    between atoms: C_8  and  C_9
REMARK                            x       y       z     vdW  Elec       q    Type
REMARK                         _______ _______ _______ _____ _____    ______ ____
ROOT
ATOM      1  C   UNL     1       4.387   5.283  17.364  0.00  0.00    +0.000 A 
ATOM      2  N   UNL     1       4.510   4.105  17.933  0.00  0.00    +0.000 NA
ATOM      3  C   UNL     1       3.718   4.034  19.072  0.00  0.00    +0.000 A 
ATOM      4  C   UNL     1       3.582   2.932  19.941  0.00  0.00    +0.000 A 
ATOM      5  F   UNL     1       4.257   1.795  19.710  0.00  0.00    +0.000 F 
ATOM      6  C   UNL     1       2.744   3.020  21.051  0.00  0.00    +0.000 A 
ATOM      7  F   UNL     1       2.619   1.971  21.878  0.00  0.00    +0.000 F 
ATOM      8  C   UNL     1       2.031   4.176  21.322  0.00  0.00    +0.000 A 
ATOM      9  C   UNL     1       2.151   5.272  20.472  0.00  0.00    +0.000 A 
ATOM     10  F   UNL     1       1.457   6.387  20.740  0.00  0.00    +0.000 F 
ATOM     11  C   UNL     1       2.993   5.195  19.355  0.00  0.00    +0.000 A 
ATOM     12  S   UNL     1       3.331   6.381  18.153  0.00  0.00    +0.000 S 
ENDROOT
BRANCH   1  13
ATOM     13  C   UNL     1       5.088   5.674  16.098  0.00  0.00    +0.000 C 
BRANCH  13  14
ATOM     14  C   UNL     1       6.529   5.163  16.095  0.00  0.00    +0.000 C 
BRANCH  14  15
ATOM     15  C   UNL     1       7.035   4.905  14.676  0.00  0.00    +0.000 C 
BRANCH  15  16
ATOM     16  C   UNL     1       6.211   3.811  13.999  0.00  0.00    +0.000 C 
BRANCH  16  17
ATOM     17  C   UNL     1       6.424   3.783  12.486  0.00  0.00    +0.000 C 
BRANCH  17  19
ATOM     18  O   UNL     1       4.307   3.237  11.425  0.00  0.00    +0.000 OA
ATOM     19  C   UNL     1       5.415   2.889  11.799  0.00  0.00    +0.000 C 
BRANCH  19  20
ATOM     20  O   UNL     1       5.864   1.625  11.629  0.00  0.00    +0.000 OA
ATOM     21  H   UNL     1       6.836   1.536  11.656  0.00  0.00    +0.000 HD
ENDBRANCH  19  20
ENDBRANCH  17  19
ENDBRANCH  16  17
ENDBRANCH  15  16
ENDBRANCH  14  15
ENDBRANCH  13  14
ENDBRANCH   1  13
TORSDOF 7
ENDMDL
MODEL 6
REMARK VINA RESULT:      -6.8      4.296      6.543
REMARK  Name = 
REMARK  7 active torsions:
REMARK  status: ('A' for Active; 'I' for Inactive)
REMARK    1  A    between atoms: C_2  and  O_3
REMARK    2  A    between atoms: C_2  and  C_4
REMARK    3  A    between atoms: C_4  and  C_5
REMARK    4  A    between atoms: C_5  and  C_6
REMARK    5  A    between atoms: C_6  and  C_7
REMARK    6  A    between atoms: C_7  and  C_8
REMARK    7  A    between atoms: C_8  and  C_9
REMARK                            x       y       z     vdW  Elec       q    Type
REMARK                         _______ _______ _______ _____ _____    ______ ____
ROOT
ATOM      1  C   UNL     1       5.850   4.644  18.049  0.00  0.00    +0.000 A 
ATOM      2  N   UNL     1       5.406   3.747  18.900  0.00  0.00    +0.000 NA
ATOM      3  C   UNL     1       4.209   4.168  19.465  0.00  0.00    +0.000 A 
ATOM      4  C   UNL     1       3.430   3.475  20.414  0.00  0.00    +0.000 A 
ATOM      5  F   UNL     1       3.821   2.273  20.868  0.00  0.00    +0.000 F 
ATOM      6  C   UNL     1       2.247   4.037  20.889  0.00  0.00    +0.000 A 
ATOM      7  F   UNL     1       1.509   3.377  21.794  0.00  0.00    +0.000 F 
ATOM      8  C   UNL     1       1.811   5.275  20.443  0.00  0.00    +0.000 A 
ATOM      9  C   UNL     1       2.566   5.972  19.504  0.00  0.00    +0.000 A 
ATOM     10  F   UNL     1       2.137   7.167  19.077  0.00  0.00    +0.000 F 
ATOM     11  C   UNL     1       3.759   5.416  19.022  0.00  0.00    +0.000 A 
ATOM     12  S   UNL     1       4.878   6.048  17.876  0.00  0.00    +0.000 S 
ENDROOT
BRANCH   1  13
ATOM     13  C   UNL     1       7.106   4.482  17.248  0.00  0.00    +0.000 C 
BRANCH  13  14
ATOM     14  C   UNL     1       6.889   4.926  15.801  0.00  0.00    +0.000 C 
BRANCH  14  15
ATOM     15  C   UNL     1       6.319   3.797  14.941  0.00  0.00    +0.000 C 
BRANCH  15  16
ATOM     16  C   UNL     1       5.852   4.333  13.588  0.00  0.00    +0.000 C 
BRANCH  16  17
ATOM     17  C   UNL     1       6.506   3.594  12.420  0.00  0.00    +0.000 C 
BRANCH  17  19
ATOM     18  O   UNL     1       4.365   2.908  11.497  0.00  0.00    +0.000 OA
ATOM     19  C   UNL     1       5.533   2.653  11.744  0.00  0.00    +0.000 C 
BRANCH  19  20
ATOM     20  O   UNL     1       6.089   1.464  11.424  0.00  0.00    +0.000 OA
ATOM     21  H   UNL     1       6.005   1.221  10.482  0.00  0.00    +0.000 HD
ENDBRANCH  19  20
ENDBRANCH  17  19
ENDBRANCH  16  17
ENDBRANCH  15  16
ENDBRANCH  14  15
ENDBRANCH  13  14
ENDBRANCH   1  13
TORSDOF 7
ENDMDL
MODEL 7
REMARK VINA RESULT:      -6.8      1.556      2.013
REMARK  Name = 
REMARK  7 active torsions:
REMARK  status: ('A' for Active; 'I' for Inactive)
REMARK    1  A    between atoms: C_2  and  O_3
REMARK    2  A    between atoms: C_2  and  C_4
REMARK    3  A    between atoms: C_4  and  C_5
REMARK    4  A    between atoms: C_5  and  C_6
REMARK    5  A    between atoms: C_6  and  C_7
REMARK    6  A    between atoms: C_7  and  C_8
REMARK    7  A    between atoms: C_8  and  C_9
REMARK                            x       y       z     vdW  Elec       q    Type
REMARK                         _______ _______ _______ _____ _____    ______ ____
ROOT
ATOM      1  C   UNL     1       4.712   3.346  18.795  0.00  0.00    +0.000 A 
ATOM      2  N   UNL     1       5.685   3.921  19.466  0.00  0.00    +0.000 NA
ATOM      3  C   UNL     1       6.218   4.975  18.735  0.00  0.00    +0.000 A 
ATOM      4  C   UNL     1       7.269   5.830  19.125  0.00  0.00    +0.000 A 
ATOM      5  F   UNL     1       7.868   5.673  20.316  0.00  0.00    +0.000 F 
ATOM      6  C   UNL     1       7.694   6.846  18.271  0.00  0.00    +0.000 A 
ATOM      7  F   UNL     1       8.696   7.656  18.643  0.00  0.00    +0.000 F 
ATOM      8  C   UNL     1       7.099   7.039  17.034  0.00  0.00    +0.000 A 
ATOM      9  C   UNL     1       6.059   6.206  16.634  0.00  0.00    +0.000 A 
ATOM     10  F   UNL     1       5.488   6.401  15.438  0.00  0.00    +0.000 F 
ATOM     11  C   UNL     1       5.625   5.180  17.485  0.00  0.00    +0.000 A 
ATOM     12  S   UNL     1       4.380   4.015  17.251  0.00  0.00    +0.000 S 
ENDROOT
BRANCH   1  13
ATOM     13  C   UNL     1       3.909   2.194  19.317  0.00  0.00    +0.000 C 
BRANCH  13  14
ATOM     14  C   UNL     1       3.894   2.190  20.846  0.00  0.00    +0.000 C 
BRANCH  14  15
ATOM     15  C   UNL     1       2.544   2.647  21.400  0.00  0.00    +0.000 C 
BRANCH  15  16
ATOM     16  C   UNL     1       2.033   3.869  20.637  0.00  0.00    +0.000 C 
BRANCH  16  17
ATOM     17  C   UNL     1       0.636   3.644  20.060  0.00  0.00    +0.000 C 
BRANCH  17  19
ATOM     18  O   UNL     1       1.020   3.879  17.673  0.00  0.00    +0.000 OA
ATOM     19  C   UNL     1       0.698   3.182  18.621  0.00  0.00    +0.000 C 
BRANCH  19  20
ATOM     20  O   UNL     1       0.357   1.883  18.471  0.00  0.00    +0.000 OA
ATOM     21  H   UNL     1      -0.597   1.732  18.324  0.00  0.00    +0.000 HD
ENDBRANCH  19  20
ENDBRANCH  17  19
ENDBRANCH  16  17
ENDBRANCH  15  16
ENDBRANCH  14  15
ENDBRANCH  13  14
ENDBRANCH   1  13
TORSDOF 7
ENDMDL
MODEL 8
REMARK VINA RESULT:      -6.8      3.172      5.635
REMARK  Name = 
REMARK  7 active torsions:
REMARK  status: ('A' for Active; 'I' for Inactive)
REMARK    1  A    between atoms: C_2  and  O_3
REMARK    2  A    between atoms: C_2  and  C_4
REMARK    3  A    between atoms: C_4  and  C_5
REMARK    4  A    between atoms: C_5  and  C_6
REMARK    5  A    between atoms: C_6  and  C_7
REMARK    6  A    between atoms: C_7  and  C_8
REMARK    7  A    between atoms: C_8  and  C_9
REMARK                            x       y       z     vdW  Elec       q    Type
REMARK                         _______ _______ _______ _____ _____    ______ ____
ROOT
ATOM      1  C   UNL     1       4.416   4.088  17.136  0.00  0.00    +0.000 A 
ATOM      2  N   UNL     1       4.025   5.224  17.670  0.00  0.00    +0.000 NA
ATOM      3  C   UNL     1       3.108   4.989  18.687  0.00  0.00    +0.000 A 
ATOM      4  C   UNL     1       2.472   5.956  19.493  0.00  0.00    +0.000 A 
ATOM      5  F   UNL     1       2.729   7.262  19.320  0.00  0.00    +0.000 F 
ATOM      6  C   UNL     1       1.567   5.557  20.474  0.00  0.00    +0.000 A 
ATOM      7  F   UNL     1       0.961   6.479  21.238  0.00  0.00    +0.000 F 
ATOM      8  C   UNL     1       1.277   4.218  20.683  0.00  0.00    +0.000 A 
ATOM      9  C   UNL     1       1.899   3.251  19.898  0.00  0.00    +0.000 A 
ATOM     10  F   UNL     1       1.614   1.958  20.106  0.00  0.00    +0.000 F 
ATOM     11  C   UNL     1       2.808   3.641  18.906  0.00  0.00    +0.000 A 
ATOM     12  S   UNL     1       3.709   2.674  17.802  0.00  0.00    +0.000 S 
ENDROOT
BRANCH   1  13
ATOM     13  C   UNL     1       5.425   3.991  16.033  0.00  0.00    +0.000 C 
BRANCH  13  14
ATOM     14  C   UNL     1       5.727   5.371  15.449  0.00  0.00    +0.000 C 
BRANCH  14  15
ATOM     15  C   UNL     1       7.073   5.909  15.934  0.00  0.00    +0.000 C 
BRANCH  15  16
ATOM     16  C   UNL     1       6.871   6.992  16.994  0.00  0.00    +0.000 C 
BRANCH  16  17
ATOM     17  C   UNL     1       7.747   6.762  18.225  0.00  0.00    +0.000 C 
BRANCH  17  19
ATOM     18  O   UNL     1       8.145   4.386  18.539  0.00  0.00    +0.000 OA
ATOM     19  C   UNL     1       7.515   5.392  18.822  0.00  0.00    +0.000 C 
BRANCH  19  20
ATOM     20  O   UNL     1       6.516   5.378  19.732  0.00  0.00    +0.000 OA
ATOM     21  H   UNL     1       5.645   5.642  19.377  0.00  0.00    +0.000 HD
ENDBRANCH  19  20
ENDBRANCH  17  19
ENDBRANCH  16  17
ENDBRANCH  15  16
ENDBRANCH  14  15
ENDBRANCH  13  14
ENDBRANCH   1  13
TORSDOF 7
ENDMDL
MODEL 9
REMARK VINA RESULT:      -6.7      3.490      5.829
REMARK  Name = 
REMARK  7 active torsions:
REMARK  status: ('A' for Active; 'I' for Inactive)
REMARK    1  A    between atoms: C_2  and  O_3
REMARK    2  A    between atoms: C_2  and  C_4
REMARK    3  A    between atoms: C_4  and  C_5
REMARK    4  A    between atoms: C_5  and  C_6
REMARK    5  A    between atoms: C_6  and  C_7
REMARK    6  A    between atoms: C_7  and  C_8
REMARK    7  A    between atoms: C_8  and  C_9
REMARK                            x       y       z     vdW  Elec       q    Type
REMARK                         _______ _______ _______ _____ _____    ______ ____
ROOT
ATOM      1  C   UNL     1       4.355   4.344  16.960  0.00  0.00    +0.000 A 
ATOM      2  N   UNL     1       3.828   3.331  17.610  0.00  0.00    +0.000 NA
ATOM      3  C   UNL     1       3.049   3.786  18.666  0.00  0.00    +0.000 A 
ATOM      4  C   UNL     1       2.322   2.999  19.583  0.00  0.00    +0.000 A 
ATOM      5  F   UNL     1       2.334   1.660  19.490  0.00  0.00    +0.000 F 
ATOM      6  C   UNL     1       1.586   3.612  20.595  0.00  0.00    +0.000 A 
ATOM      7  F   UNL     1       0.898   2.861  21.468  0.00  0.00    +0.000 F 
ATOM      8  C   UNL     1       1.548   4.991  20.722  0.00  0.00    +0.000 A 
ATOM      9  C   UNL     1       2.258   5.783  19.823  0.00  0.00    +0.000 A 
ATOM     10  F   UNL     1       2.216   7.116  19.952  0.00  0.00    +0.000 F 
ATOM     11  C   UNL     1       3.003   5.177  18.803  0.00  0.00    +0.000 A 
ATOM     12  S   UNL     1       3.965   5.900  17.571  0.00  0.00    +0.000 S 
ENDROOT
BRANCH   1  13
ATOM     13  C   UNL     1       5.226   4.195  15.750  0.00  0.00    +0.000 C 
BRANCH  13  14
ATOM     14  C   UNL     1       6.515   5.003  15.906  0.00  0.00    +0.000 C 
BRANCH  14  15
ATOM     15  C   UNL     1       7.278   4.613  17.172  0.00  0.00    +0.000 C 
BRANCH  15  16
ATOM     16  C   UNL     1       7.522   5.837  18.054  0.00  0.00    +0.000 C 
BRANCH  16  17
ATOM     17  C   UNL     1       7.595   7.127  17.237  0.00  0.00    +0.000 C 
BRANCH  17  19
ATOM     18  O   UNL     1       7.865   9.464  17.848  0.00  0.00    +0.000 OA
ATOM     19  C   UNL     1       8.091   8.286  18.074  0.00  0.00    +0.000 C 
BRANCH  19  20
ATOM     20  O   UNL     1       8.832   7.890  19.133  0.00  0.00    +0.000 OA
ATOM     21  H   UNL     1       9.734   7.594  18.905  0.00  0.00    +0.000 HD
ENDBRANCH  19  20
ENDBRANCH  17  19
ENDBRANCH  16  17
ENDBRANCH  15  16
ENDBRANCH  14  15
ENDBRANCH  13  14
ENDBRANCH   1  13
TORSDOF 7
ENDMDL
