MODEL 1
REMARK VINA RESULT:      -7.0      0.000      0.000
REMARK  Name = 
REMARK  3 active torsions:
REMARK  status: ('A' for Active; 'I' for Inactive)
REMARK    1  A    between atoms: C_5  and  C_6
REMARK    2  A    between atoms: C_6  and  C_7
REMARK    3  A    between atoms: C_14  and  N_15
REMARK                            x       y       z     vdW  Elec       q    Type
REMARK                         _______ _______ _______ _____ _____    ______ ____
ROOT
ATOM      1  N   UNL     1       7.667   5.373  13.744  0.00  0.00    +0.000 N 
ATOM      2  C   UNL     1       7.001   5.228  14.946  0.00  0.00    +0.000 A 
ATOM      3  N   UNL     1       5.724   5.604  14.989  0.00  0.00    +0.000 NA
ATOM      4  C   UNL     1       5.115   5.491  16.181  0.00  0.00    +0.000 A 
ATOM      5  C   UNL     1       5.731   5.027  17.324  0.00  0.00    +0.000 A 
ATOM      6  C   UNL     1       7.055   4.655  17.157  0.00  0.00    +0.000 A 
ATOM      7  N   UNL     1       7.700   4.766  15.988  0.00  0.00    +0.000 NA
ATOM      8  H   UNL     1       7.208   6.092  13.201  0.00  0.00    +0.000 HD
ATOM      9  H   UNL     1       8.652   5.493  13.927  0.00  0.00    +0.000 HD
ENDROOT
BRANCH   6  10
ATOM     10  N   UNL     1       7.823   4.169  18.215  0.00  0.00    +0.000 N 
ATOM     11  H   UNL     1       7.358   4.293  19.109  0.00  0.00    +0.000 HD
ATOM     12  H   UNL     1       8.006   3.186  18.026  0.00  0.00    +0.000 HD
ENDBRANCH   6  10
BRANCH   5  13
ATOM     13  C   UNL     1       4.981   4.933  18.622  0.00  0.00    +0.000 C 
BRANCH  13  14
ATOM     14  C   UNL     1       3.705   4.103  18.637  0.00  0.00    +0.000 A 
ATOM     15  C   UNL     1       3.700   2.756  18.225  0.00  0.00    +0.000 A 
ATOM     16  C   UNL     1       2.545   1.973  18.302  0.00  0.00    +0.000 A 
ATOM     17  C   UNL     1       1.363   2.518  18.789  0.00  0.00    +0.000 A 
ATOM     18  C   UNL     1       1.327   3.857  19.166  0.00  0.00    +0.000 A 
ATOM     19  C   UNL     1       2.481   4.649  19.081  0.00  0.00    +0.000 A 
ATOM     20  I   UNL     1       2.256   6.671  19.627  0.00  0.00    +0.000 I 
ENDBRANCH  13  14
ENDBRANCH   5  13
TORSDOF 3
ENDMDL
MODEL 2
REMARK VINA RESULT:      -6.8      4.236      5.247
REMARK  Name = 
REMARK  3 active torsions:
REMARK  status: ('A' for Active; 'I' for Inactive)
REMARK    1  A    between atoms: C_5  and  C_6
REMARK    2  A    between atoms: C_6  and  C_7
REMARK    3  A    between atoms: C_14  and  N_15
REMARK                            x       y       z     vdW  Elec       q    Type
REMARK                         _______ _______ _______ _____ _____    ______ ____
ROOT
ATOM      1  N   UNL     1       0.833  10.624  17.917  0.00  0.00    +0.000 N 
ATOM      2  C   UNL     1       1.461   9.473  18.351  0.00  0.00    +0.000 A 
ATOM      3  N   UNL     1       2.177   8.791  17.459  0.00  0.00    +0.000 NA
ATOM      4  C   UNL     1       2.742   7.654  17.898  0.00  0.00    +0.000 A 
ATOM      5  C   UNL     1       2.613   7.172  19.185  0.00  0.00    +0.000 A 
ATOM      6  C   UNL     1       1.855   7.970  20.026  0.00  0.00    +0.000 A 
ATOM      7  N   UNL     1       1.265   9.103  19.620  0.00  0.00    +0.000 NA
ATOM      8  H   UNL     1       0.692  10.562  16.918  0.00  0.00    +0.000 HD
ATOM      9  H   UNL     1       0.016  10.787  18.487  0.00  0.00    +0.000 HD
ENDROOT
BRANCH   6  10
ATOM     10  N   UNL     1       1.624   7.624  21.358  0.00  0.00    +0.000 N 
ATOM     11  H   UNL     1       0.820   8.112  21.742  0.00  0.00    +0.000 HD
ATOM     12  H   UNL     1       1.494   6.616  21.388  0.00  0.00    +0.000 HD
ENDBRANCH   6  10
BRANCH   5  13
ATOM     13  C   UNL     1       3.274   5.889  19.599  0.00  0.00    +0.000 C 
BRANCH  13  14
ATOM     14  C   UNL     1       2.526   4.593  19.320  0.00  0.00    +0.000 A 
ATOM     15  C   UNL     1       1.435   4.188  20.114  0.00  0.00    +0.000 A 
ATOM     16  C   UNL     1       0.705   3.034  19.818  0.00  0.00    +0.000 A 
ATOM     17  C   UNL     1       1.051   2.250  18.723  0.00  0.00    +0.000 A 
ATOM     18  C   UNL     1       2.149   2.602  17.944  0.00  0.00    +0.000 A 
ATOM     19  C   UNL     1       2.889   3.755  18.244  0.00  0.00    +0.000 A 
ATOM     20  I   UNL     1       4.560   4.124  17.014  0.00  0.00    +0.000 I 
ENDBRANCH  13  14
ENDBRANCH   5  13
TORSDOF 3
ENDMDL
MODEL 3
REMARK VINA RESULT:      -6.8      1.700      2.458
REMARK  Name = 
REMARK  3 active torsions:
REMARK  status: ('A' for Active; 'I' for Inactive)
REMARK    1  A    between atoms: C_5  and  C_6
REMARK    2  A    between atoms: C_6  and  C_7
REMARK    3  A    between atoms: C_14  and  N_15
REMARK                            x       y       z     vdW  Elec       q    Type
REMARK                         _______ _______ _______ _____ _____    ______ ____
ROOT
ATOM      1  N   UNL     1       7.829   5.231  14.096  0.00  0.00    +0.000 N 
ATOM      2  C   UNL     1       6.927   4.867  15.078  0.00  0.00    +0.000 A 
ATOM      3  N   UNL     1       5.663   4.671  14.707  0.00  0.00    +0.000 NA
ATOM      4  C   UNL     1       4.800   4.360  15.688  0.00  0.00    +0.000 A 
ATOM      5  C   UNL     1       5.149   4.247  17.018  0.00  0.00    +0.000 A 
ATOM      6  C   UNL     1       6.492   4.462  17.283  0.00  0.00    +0.000 A 
ATOM      7  N   UNL     1       7.379   4.787  16.333  0.00  0.00    +0.000 NA
ATOM      8  H   UNL     1       7.325   5.666  13.335  0.00  0.00    +0.000 HD
ATOM      9  H   UNL     1       8.576   5.763  14.517  0.00  0.00    +0.000 HD
ENDROOT
BRANCH   6  10
ATOM     10  N   UNL     1       7.008   4.389  18.578  0.00  0.00    +0.000 N 
ATOM     11  H   UNL     1       7.085   3.430  18.901  0.00  0.00    +0.000 HD
ATOM     12  H   UNL     1       7.915   4.850  18.565  0.00  0.00    +0.000 HD
ENDBRANCH   6  10
BRANCH   5  13
ATOM     13  C   UNL     1       4.124   3.898  18.059  0.00  0.00    +0.000 C 
BRANCH  13  14
ATOM     14  C   UNL     1       3.395   5.048  18.739  0.00  0.00    +0.000 A 
ATOM     15  C   UNL     1       3.481   6.365  18.248  0.00  0.00    +0.000 A 
ATOM     16  C   UNL     1       2.758   7.410  18.831  0.00  0.00    +0.000 A 
ATOM     17  C   UNL     1       1.936   7.166  19.924  0.00  0.00    +0.000 A 
ATOM     18  C   UNL     1       1.863   5.883  20.457  0.00  0.00    +0.000 A 
ATOM     19  C   UNL     1       2.593   4.834  19.881  0.00  0.00    +0.000 A 
ATOM     20  I   UNL     1       2.430   2.962  20.835  0.00  0.00    +0.000 I 
ENDBRANCH  13  14
ENDBRANCH   5  13
TORSDOF 3
ENDMDL
MODEL 4
REMARK VINA RESULT:      -6.6      3.731      5.992
REMARK  Name = 
REMARK  3 active torsions:
REMARK  status: ('A' for Active; 'I' for Inactive)
REMARK    1  A    between atoms: C_5  and  C_6
REMARK    2  A    between atoms: C_6  and  C_7
REMARK    3  A    between atoms: C_14  and  N_15
REMARK                            x       y       z     vdW  Elec       q    Type
REMARK                         _______ _______ _______ _____ _____    ______ ____
ROOT
ATOM      1  N   UNL     1       1.062   2.644  22.108  0.00  0.00    +0.000 N 
ATOM      2  C   UNL     1       1.899   2.900  21.039  0.00  0.00    +0.000 A 
ATOM      3  N   UNL     1       1.455   3.732  20.098  0.00  0.00    +0.000 NA
ATOM      4  C   UNL     1       2.271   3.929  19.050  0.00  0.00    +0.000 A 
ATOM      5  C   UNL     1       3.502   3.323  18.903  0.00  0.00    +0.000 A 
ATOM      6  C   UNL     1       3.863   2.487  19.948  0.00  0.00    +0.000 A 
ATOM      7  N   UNL     1       3.069   2.256  21.002  0.00  0.00    +0.000 NA
ATOM      8  H   UNL     1       0.107   2.815  21.824  0.00  0.00    +0.000 HD
ATOM      9  H   UNL     1       1.275   1.731  22.480  0.00  0.00    +0.000 HD
ENDROOT
BRANCH   6  10
ATOM     10  N   UNL     1       5.075   1.796  19.953  0.00  0.00    +0.000 N 
ATOM     11  H   UNL     1       5.521   1.808  19.042  0.00  0.00    +0.000 HD
ATOM     12  H   UNL     1       5.664   2.229  20.661  0.00  0.00    +0.000 HD
ENDBRANCH   6  10
BRANCH   5  13
ATOM     13  C   UNL     1       4.357   3.592  17.698  0.00  0.00    +0.000 C 
BRANCH  13  14
ATOM     14  C   UNL     1       5.509   4.575  17.859  0.00  0.00    +0.000 A 
ATOM     15  C   UNL     1       5.874   5.078  19.123  0.00  0.00    +0.000 A 
ATOM     16  C   UNL     1       6.973   5.926  19.282  0.00  0.00    +0.000 A 
ATOM     17  C   UNL     1       7.733   6.298  18.179  0.00  0.00    +0.000 A 
ATOM     18  C   UNL     1       7.372   5.851  16.912  0.00  0.00    +0.000 A 
ATOM     19  C   UNL     1       6.264   5.007  16.748  0.00  0.00    +0.000 A 
ATOM     20  I   UNL     1       5.804   4.462  14.765  0.00  0.00    +0.000 I 
ENDBRANCH  13  14
ENDBRANCH   5  13
TORSDOF 3
ENDMDL
MODEL 5
REMARK VINA RESULT:      -6.6      1.291      1.450
REMARK  Name = 
REMARK  3 active torsions:
REMARK  status: ('A' for Active; 'I' for Inactive)
REMARK    1  A    between atoms: C_5  and  C_6
REMARK    2  A    between atoms: C_6  and  C_7
REMARK    3  A    between atoms: C_14  and  N_15
REMARK                            x       y       z     vdW  Elec       q    Type
REMARK                         _______ _______ _______ _____ _____    ______ ____
ROOT
ATOM      1  N   UNL     1       7.435   4.667  12.476  0.00  0.00    +0.000 N 
ATOM      2  C   UNL     1       6.966   4.635  13.775  0.00  0.00    +0.000 A 
ATOM      3  N   UNL     1       6.012   3.750  14.061  0.00  0.00    +0.000 NA
ATOM      4  C   UNL     1       5.545   3.770  15.321  0.00  0.00    +0.000 A 
ATOM      5  C   UNL     1       5.987   4.640  16.296  0.00  0.00    +0.000 A 
ATOM      6  C   UNL     1       6.986   5.507  15.886  0.00  0.00    +0.000 A 
ATOM      7  N   UNL     1       7.467   5.526  14.636  0.00  0.00    +0.000 NA
ATOM      8  H   UNL     1       6.723   4.294  11.863  0.00  0.00    +0.000 HD
ATOM      9  H   UNL     1       7.776   5.595  12.273  0.00  0.00    +0.000 HD
ENDROOT
BRANCH   6  10
ATOM     10  N   UNL     1       7.540   6.453  16.750  0.00  0.00    +0.000 N 
ATOM     11  H   UNL     1       8.513   6.643  16.531  0.00  0.00    +0.000 HD
ATOM     12  H   UNL     1       6.972   7.295  16.676  0.00  0.00    +0.000 HD
ENDBRANCH   6  10
BRANCH   5  13
ATOM     13  C   UNL     1       5.411   4.602  17.683  0.00  0.00    +0.000 C 
BRANCH  13  14
ATOM     14  C   UNL     1       4.010   4.031  17.846  0.00  0.00    +0.000 A 
ATOM     15  C   UNL     1       3.770   2.644  17.782  0.00  0.00    +0.000 A 
ATOM     16  C   UNL     1       2.496   2.113  18.000  0.00  0.00    +0.000 A 
ATOM     17  C   UNL     1       1.427   2.955  18.282  0.00  0.00    +0.000 A 
ATOM     18  C   UNL     1       1.625   4.332  18.311  0.00  0.00    +0.000 A 
ATOM     19  C   UNL     1       2.900   4.869  18.084  0.00  0.00    +0.000 A 
ATOM     20  I   UNL     1       3.032   6.972  18.098  0.00  0.00    +0.000 I 
ENDBRANCH  13  14
ENDBRANCH   5  13
TORSDOF 3
ENDMDL
MODEL 6
REMARK VINA RESULT:      -6.5      1.523      2.670
REMARK  Name = 
REMARK  3 active torsions:
REMARK  status: ('A' for Active; 'I' for Inactive)
REMARK    1  A    between atoms: C_5  and  C_6
REMARK    2  A    between atoms: C_6  and  C_7
REMARK    3  A    between atoms: C_14  and  N_15
REMARK                            x       y       z     vdW  Elec       q    Type
REMARK                         _______ _______ _______ _____ _____    ______ ____
ROOT
ATOM      1  N   UNL     1       8.563   6.348  19.323  0.00  0.00    +0.000 N 
ATOM      2  C   UNL     1       7.401   5.873  18.746  0.00  0.00    +0.000 A 
ATOM      3  N   UNL     1       6.768   4.879  19.368  0.00  0.00    +0.000 NA
ATOM      4  C   UNL     1       5.666   4.410  18.762  0.00  0.00    +0.000 A 
ATOM      5  C   UNL     1       5.179   4.886  17.562  0.00  0.00    +0.000 A 
ATOM      6  C   UNL     1       5.912   5.926  17.014  0.00  0.00    +0.000 A 
ATOM      7  N   UNL     1       7.024   6.412  17.582  0.00  0.00    +0.000 NA
ATOM      8  H   UNL     1       8.958   5.623  19.906  0.00  0.00    +0.000 HD
ATOM      9  H   UNL     1       9.155   6.732  18.602  0.00  0.00    +0.000 HD
ENDROOT
BRANCH   6  10
ATOM     10  N   UNL     1       5.557   6.519  15.802  0.00  0.00    +0.000 N 
ATOM     11  H   UNL     1       4.550   6.597  15.700  0.00  0.00    +0.000 HD
ATOM     12  H   UNL     1       6.005   7.432  15.772  0.00  0.00    +0.000 HD
ENDBRANCH   6  10
BRANCH   5  13
ATOM     13  C   UNL     1       3.939   4.305  16.946  0.00  0.00    +0.000 C 
BRANCH  13  14
ATOM     14  C   UNL     1       2.839   3.839  17.889  0.00  0.00    +0.000 A 
ATOM     15  C   UNL     1       2.476   2.481  17.980  0.00  0.00    +0.000 A 
ATOM     16  C   UNL     1       1.514   2.041  18.894  0.00  0.00    +0.000 A 
ATOM     17  C   UNL     1       0.886   2.950  19.738  0.00  0.00    +0.000 A 
ATOM     18  C   UNL     1       1.194   4.304  19.642  0.00  0.00    +0.000 A 
ATOM     19  C   UNL     1       2.152   4.749  18.720  0.00  0.00    +0.000 A 
ATOM     20  I   UNL     1       2.465   6.832  18.648  0.00  0.00    +0.000 I 
ENDBRANCH  13  14
ENDBRANCH   5  13
TORSDOF 3
ENDMDL
MODEL 7
REMARK VINA RESULT:      -6.5      3.686      5.860
REMARK  Name = 
REMARK  3 active torsions:
REMARK  status: ('A' for Active; 'I' for Inactive)
REMARK    1  A    between atoms: C_5  and  C_6
REMARK    2  A    between atoms: C_6  and  C_7
REMARK    3  A    between atoms: C_14  and  N_15
REMARK                            x       y       z     vdW  Elec       q    Type
REMARK                         _______ _______ _______ _____ _____    ______ ____
ROOT
ATOM      1  N   UNL     1       1.220   2.411  22.451  0.00  0.00    +0.000 N 
ATOM      2  C   UNL     1       1.593   2.913  21.219  0.00  0.00    +0.000 A 
ATOM      3  N   UNL     1       1.547   4.234  21.055  0.00  0.00    +0.000 NA
ATOM      4  C   UNL     1       1.873   4.690  19.834  0.00  0.00    +0.000 A 
ATOM      5  C   UNL     1       2.233   3.880  18.776  0.00  0.00    +0.000 A 
ATOM      6  C   UNL     1       2.256   2.526  19.068  0.00  0.00    +0.000 A 
ATOM      7  N   UNL     1       1.924   2.033  20.268  0.00  0.00    +0.000 NA
ATOM      8  H   UNL     1       0.609   3.077  22.903  0.00  0.00    +0.000 HD
ATOM      9  H   UNL     1       0.870   1.473  22.332  0.00  0.00    +0.000 HD
ENDROOT
BRANCH   6  10
ATOM     10  N   UNL     1       2.596   1.572  18.107  0.00  0.00    +0.000 N 
ATOM     11  H   UNL     1       2.393   0.629  18.422  0.00  0.00    +0.000 HD
ATOM     12  H   UNL     1       2.077   1.800  17.262  0.00  0.00    +0.000 HD
ENDBRANCH   6  10
BRANCH   5  13
ATOM     13  C   UNL     1       2.582   4.467  17.439  0.00  0.00    +0.000 C 
BRANCH  13  14
ATOM     14  C   UNL     1       3.995   5.001  17.253  0.00  0.00    +0.000 A 
ATOM     15  C   UNL     1       5.076   4.141  16.975  0.00  0.00    +0.000 A 
ATOM     16  C   UNL     1       6.361   4.637  16.737  0.00  0.00    +0.000 A 
ATOM     17  C   UNL     1       6.600   6.005  16.777  0.00  0.00    +0.000 A 
ATOM     18  C   UNL     1       5.561   6.877  17.090  0.00  0.00    +0.000 A 
ATOM     19  C   UNL     1       4.272   6.383  17.338  0.00  0.00    +0.000 A 
ATOM     20  I   UNL     1       2.819   7.816  17.860  0.00  0.00    +0.000 I 
ENDBRANCH  13  14
ENDBRANCH   5  13
TORSDOF 3
ENDMDL
MODEL 8
REMARK VINA RESULT:      -6.5      1.002      1.776
REMARK  Name = 
REMARK  3 active torsions:
REMARK  status: ('A' for Active; 'I' for Inactive)
REMARK    1  A    between atoms: C_5  and  C_6
REMARK    2  A    between atoms: C_6  and  C_7
REMARK    3  A    between atoms: C_14  and  N_15
REMARK                            x       y       z     vdW  Elec       q    Type
REMARK                         _______ _______ _______ _____ _____    ______ ____
ROOT
ATOM      1  N   UNL     1       7.725   5.503  14.482  0.00  0.00    +0.000 N 
ATOM      2  C   UNL     1       7.023   5.438  15.670  0.00  0.00    +0.000 A 
ATOM      3  N   UNL     1       7.440   4.562  16.582  0.00  0.00    +0.000 NA
ATOM      4  C   UNL     1       6.714   4.490  17.710  0.00  0.00    +0.000 A 
ATOM      5  C   UNL     1       5.589   5.250  17.955  0.00  0.00    +0.000 A 
ATOM      6  C   UNL     1       5.256   6.133  16.941  0.00  0.00    +0.000 A 
ATOM      7  N   UNL     1       5.948   6.223  15.797  0.00  0.00    +0.000 NA
ATOM      8  H   UNL     1       8.197   4.622  14.333  0.00  0.00    +0.000 HD
ATOM      9  H   UNL     1       7.106   5.823  13.752  0.00  0.00    +0.000 HD
ENDROOT
BRANCH   6  10
ATOM     10  N   UNL     1       4.144   6.972  17.030  0.00  0.00    +0.000 N 
ATOM     11  H   UNL     1       3.288   6.450  17.188  0.00  0.00    +0.000 HD
ATOM     12  H   UNL     1       4.324   7.629  17.786  0.00  0.00    +0.000 HD
ENDBRANCH   6  10
BRANCH   5  13
ATOM     13  C   UNL     1       4.827   5.110  19.242  0.00  0.00    +0.000 C 
BRANCH  13  14
ATOM     14  C   UNL     1       3.589   4.224  19.231  0.00  0.00    +0.000 A 
ATOM     15  C   UNL     1       3.648   2.884  18.801  0.00  0.00    +0.000 A 
ATOM     16  C   UNL     1       2.528   2.050  18.855  0.00  0.00    +0.000 A 
ATOM     17  C   UNL     1       1.318   2.536  19.336  0.00  0.00    +0.000 A 
ATOM     18  C   UNL     1       1.218   3.867  19.730  0.00  0.00    +0.000 A 
ATOM     19  C   UNL     1       2.338   4.710  19.668  0.00  0.00    +0.000 A 
ATOM     20  I   UNL     1       2.018   6.713  20.238  0.00  0.00    +0.000 I 
ENDBRANCH  13  14
ENDBRANCH   5  13
TORSDOF 3
ENDMDL
MODEL 9
REMARK VINA RESULT:      -6.5      3.837      5.848
REMARK  Name = 
REMARK  3 active torsions:
REMARK  status: ('A' for Active; 'I' for Inactive)
REMARK    1  A    between atoms: C_5  and  C_6
REMARK    2  A    between atoms: C_6  and  C_7
REMARK    3  A    between atoms: C_14  and  N_15
REMARK                            x       y       z     vdW  Elec       q    Type
REMARK                         _______ _______ _______ _____ _____    ______ ____
ROOT
ATOM      1  N   UNL     1       1.891   2.342  22.035  0.00  0.00    +0.000 N 
ATOM      2  C   UNL     1       2.457   3.216  21.127  0.00  0.00    +0.000 A 
ATOM      3  N   UNL     1       3.401   2.736  20.319  0.00  0.00    +0.000 NA
ATOM      4  C   UNL     1       3.963   3.618  19.476  0.00  0.00    +0.000 A 
ATOM      5  C   UNL     1       3.624   4.954  19.416  0.00  0.00    +0.000 A 
ATOM      6  C   UNL     1       2.624   5.337  20.294  0.00  0.00    +0.000 A 
ATOM      7  N   UNL     1       2.050   4.489  21.159  0.00  0.00    +0.000 NA
ATOM      8  H   UNL     1       2.542   1.589  22.212  0.00  0.00    +0.000 HD
ATOM      9  H   UNL     1       1.564   2.865  22.834  0.00  0.00    +0.000 HD
ENDROOT
BRANCH   6  10
ATOM     10  N   UNL     1       2.167   6.654  20.362  0.00  0.00    +0.000 N 
ATOM     11  H   UNL     1       2.861   7.275  20.767  0.00  0.00    +0.000 HD
ATOM     12  H   UNL     1       1.925   6.936  19.415  0.00  0.00    +0.000 HD
ENDBRANCH   6  10
BRANCH   5  13
ATOM     13  C   UNL     1       4.302   5.880  18.446  0.00  0.00    +0.000 C 
BRANCH  13  14
ATOM     14  C   UNL     1       5.121   5.249  17.329  0.00  0.00    +0.000 A 
ATOM     15  C   UNL     1       4.511   4.747  16.163  0.00  0.00    +0.000 A 
ATOM     16  C   UNL     1       5.267   4.230  15.108  0.00  0.00    +0.000 A 
ATOM     17  C   UNL     1       6.654   4.195  15.193  0.00  0.00    +0.000 A 
ATOM     18  C   UNL     1       7.283   4.645  16.350  0.00  0.00    +0.000 A 
ATOM     19  C   UNL     1       6.527   5.157  17.415  0.00  0.00    +0.000 A 
ATOM     20  I   UNL     1       7.615   5.741  19.122  0.00  0.00    +0.000 I 
ENDBRANCH  13  14
ENDBRANCH   5  13
TORSDOF 3
ENDMDL
