MODEL 1
REMARK VINA RESULT:      -5.7      0.000      0.000
REMARK  Name = 
REMARK  6 active torsions:
REMARK  status: ('A' for Active; 'I' for Inactive)
REMARK    1  A    between atoms: C_1  and  C_2
REMARK    2  A    between atoms: C_2  and  N_3
REMARK    3  A    between atoms: N_3  and  C_4
REMARK    4  A    between atoms: N_3  and  C_5
REMARK    5  A    between atoms: C_9  and  C_11
REMARK    6  A    between atoms: C_14  and  C_15
REMARK                            x       y       z     vdW  Elec       q    Type
REMARK                         _______ _______ _______ _____ _____    ______ ____
ROOT
ATOM      1  C   UNL     1       1.480   4.336  18.864  0.00  0.00    +0.000 C 
ATOM      2  C   UNL     1       2.204   5.363  19.748  0.00  0.00    +0.000 C 
ATOM      3  C   UNL     1       3.253   5.956  18.843  0.00  0.00    +0.000 C 
ATOM      4  N   UNL     1       3.691   4.832  18.043  0.00  0.00    +0.000 N 
ATOM      5  C   UNL     1       4.976   4.521  17.609  0.00  0.00    +0.000 C 
ATOM      6  O   UNL     1       5.165   3.445  17.023  0.00  0.00    +0.000 OA
ATOM      7  C   UNL     1       2.596   3.880  17.884  0.00  0.00    +0.000 C 
ENDROOT
BRANCH   5   8
ATOM      8  C   UNL     1       6.080   5.441  17.872  0.00  0.00    +0.000 A 
ATOM      9  S   UNL     1       7.193   5.168  19.151  0.00  0.00    +0.000 S 
ATOM     10  C   UNL     1       8.070   6.582  18.799  0.00  0.00    +0.000 A 
ATOM     11  C   UNL     1       7.460   7.356  17.834  0.00  0.00    +0.000 A 
ATOM     12  C   UNL     1       7.933   8.721  17.454  0.00  0.00    +0.000 C 
ATOM     13  C   UNL     1       6.319   6.674  17.280  0.00  0.00    +0.000 A 
ATOM     14 CL   UNL     1       5.387   7.372  16.013  0.00  0.00    +0.000 Cl
ENDBRANCH   5   8
BRANCH   1  15
ATOM     15  N   UNL     1       0.856   3.271  19.669  0.00  0.00    +0.000 NA
ATOM     16  C   UNL     1       1.080   1.936  19.110  0.00  0.00    +0.000 C 
BRANCH  15  18
ATOM     17  C   UNL     1       2.322   2.399  21.552  0.00  0.00    +0.000 C 
ATOM     18  C   UNL     1       1.195   3.323  21.100  0.00  0.00    +0.000 C 
ENDBRANCH  15  18
ENDBRANCH   1  15
TORSDOF 3
ENDMDL
MODEL 2
REMARK VINA RESULT:      -5.6      2.991      5.978
REMARK  Name = 
REMARK  6 active torsions:
REMARK  status: ('A' for Active; 'I' for Inactive)
REMARK    1  A    between atoms: C_1  and  C_2
REMARK    2  A    between atoms: C_2  and  N_3
REMARK    3  A    between atoms: N_3  and  C_4
REMARK    4  A    between atoms: N_3  and  C_5
REMARK    5  A    between atoms: C_9  and  C_11
REMARK    6  A    between atoms: C_14  and  C_15
REMARK                            x       y       z     vdW  Elec       q    Type
REMARK                         _______ _______ _______ _____ _____    ______ ____
ROOT
ATOM      1  C   UNL     1       6.588   4.581  15.577  0.00  0.00    +0.000 C 
ATOM      2  C   UNL     1       6.353   5.806  16.473  0.00  0.00    +0.000 C 
ATOM      3  C   UNL     1       5.772   5.231  17.740  0.00  0.00    +0.000 C 
ATOM      4  N   UNL     1       4.929   4.152  17.272  0.00  0.00    +0.000 N 
ATOM      5  C   UNL     1       3.684   3.751  17.748  0.00  0.00    +0.000 C 
ATOM      6  O   UNL     1       3.067   2.868  17.136  0.00  0.00    +0.000 OA
ATOM      7  C   UNL     1       5.469   3.603  16.031  0.00  0.00    +0.000 C 
ENDROOT
BRANCH   5   8
ATOM      8  C   UNL     1       3.114   4.388  18.932  0.00  0.00    +0.000 A 
ATOM      9  S   UNL     1       2.773   3.493  20.358  0.00  0.00    +0.000 S 
ATOM     10  C   UNL     1       2.176   4.861  21.172  0.00  0.00    +0.000 A 
ATOM     11  C   UNL     1       2.075   5.964  20.349  0.00  0.00    +0.000 A 
ATOM     12  C   UNL     1       1.434   7.247  20.768  0.00  0.00    +0.000 C 
ATOM     13  C   UNL     1       2.648   5.689  19.057  0.00  0.00    +0.000 A 
ATOM     14 CL   UNL     1       2.715   6.897  17.833  0.00  0.00    +0.000 Cl
ENDBRANCH   5   8
BRANCH   1  15
ATOM     15  N   UNL     1       6.583   4.944  14.149  0.00  0.00    +0.000 NA
ATOM     16  C   UNL     1       7.912   5.311  13.654  0.00  0.00    +0.000 C 
BRANCH  15  18
ATOM     17  C   UNL     1       6.703   3.571  12.014  0.00  0.00    +0.000 C 
ATOM     18  C   UNL     1       5.937   3.949  13.279  0.00  0.00    +0.000 C 
ENDBRANCH  15  18
ENDBRANCH   1  15
TORSDOF 3
ENDMDL
MODEL 3
REMARK VINA RESULT:      -5.5      3.273      6.010
REMARK  Name = 
REMARK  6 active torsions:
REMARK  status: ('A' for Active; 'I' for Inactive)
REMARK    1  A    between atoms: C_1  and  C_2
REMARK    2  A    between atoms: C_2  and  N_3
REMARK    3  A    between atoms: N_3  and  C_4
REMARK    4  A    between atoms: N_3  and  C_5
REMARK    5  A    between atoms: C_9  and  C_11
REMARK    6  A    between atoms: C_14  and  C_15
REMARK                            x       y       z     vdW  Elec       q    Type
REMARK                         _______ _______ _______ _____ _____    ______ ____
ROOT
ATOM      1  C   UNL     1       6.360   4.466  16.215  0.00  0.00    +0.000 C 
ATOM      2  C   UNL     1       6.340   5.978  16.484  0.00  0.00    +0.000 C 
ATOM      3  C   UNL     1       5.471   6.125  17.707  0.00  0.00    +0.000 C 
ATOM      4  N   UNL     1       4.442   5.124  17.519  0.00  0.00    +0.000 N 
ATOM      5  C   UNL     1       3.086   5.204  17.818  0.00  0.00    +0.000 C 
ATOM      6  O   UNL     1       2.343   4.272  17.475  0.00  0.00    +0.000 OA
ATOM      7  C   UNL     1       4.975   4.004  16.748  0.00  0.00    +0.000 C 
ENDROOT
BRANCH   5   8
ATOM      8  C   UNL     1       2.554   6.382  18.497  0.00  0.00    +0.000 A 
ATOM      9  S   UNL     1       2.483   7.912  17.720  0.00  0.00    +0.000 S 
ATOM     10  C   UNL     1       1.806   8.666  19.086  0.00  0.00    +0.000 A 
ATOM     11  C   UNL     1       1.770   7.834  20.186  0.00  0.00    +0.000 A 
ATOM     12  C   UNL     1       1.373   8.292  21.551  0.00  0.00    +0.000 C 
ATOM     13  C   UNL     1       2.180   6.500  19.829  0.00  0.00    +0.000 A 
ATOM     14 CL   UNL     1       2.185   5.226  20.985  0.00  0.00    +0.000 Cl
ENDBRANCH   5   8
BRANCH   1  15
ATOM     15  N   UNL     1       6.634   4.171  14.797  0.00  0.00    +0.000 NA
ATOM     16  C   UNL     1       5.412   3.996  14.010  0.00  0.00    +0.000 C 
BRANCH  15  18
ATOM     17  C   UNL     1       7.629   5.054  12.633  0.00  0.00    +0.000 C 
ATOM     18  C   UNL     1       7.562   5.115  14.156  0.00  0.00    +0.000 C 
ENDBRANCH  15  18
ENDBRANCH   1  15
TORSDOF 3
ENDMDL
MODEL 4
REMARK VINA RESULT:      -5.5      3.071      5.785
REMARK  Name = 
REMARK  6 active torsions:
REMARK  status: ('A' for Active; 'I' for Inactive)
REMARK    1  A    between atoms: C_1  and  C_2
REMARK    2  A    between atoms: C_2  and  N_3
REMARK    3  A    between atoms: N_3  and  C_4
REMARK    4  A    between atoms: N_3  and  C_5
REMARK    5  A    between atoms: C_9  and  C_11
REMARK    6  A    between atoms: C_14  and  C_15
REMARK                            x       y       z     vdW  Elec       q    Type
REMARK                         _______ _______ _______ _____ _____    ______ ____
ROOT
ATOM      1  C   UNL     1       6.005   4.784  15.929  0.00  0.00    +0.000 C 
ATOM      2  C   UNL     1       6.018   6.155  16.622  0.00  0.00    +0.000 C 
ATOM      3  C   UNL     1       5.268   5.927  17.909  0.00  0.00    +0.000 C 
ATOM      4  N   UNL     1       4.221   5.000  17.536  0.00  0.00    +0.000 N 
ATOM      5  C   UNL     1       2.899   4.961  17.968  0.00  0.00    +0.000 C 
ATOM      6  O   UNL     1       2.122   4.151  17.443  0.00  0.00    +0.000 OA
ATOM      7  C   UNL     1       4.673   4.159  16.432  0.00  0.00    +0.000 C 
ENDROOT
BRANCH   5   8
ATOM      8  C   UNL     1       2.440   5.884  19.002  0.00  0.00    +0.000 A 
ATOM      9  S   UNL     1       1.900   5.323  20.533  0.00  0.00    +0.000 S 
ATOM     10  C   UNL     1       1.566   6.897  21.084  0.00  0.00    +0.000 A 
ATOM     11  C   UNL     1       1.700   7.845  20.090  0.00  0.00    +0.000 A 
ATOM     12  C   UNL     1       1.315   9.278  20.263  0.00  0.00    +0.000 C 
ATOM     13  C   UNL     1       2.235   7.253  18.891  0.00  0.00    +0.000 A 
ATOM     14 CL   UNL     1       2.564   8.203  17.495  0.00  0.00    +0.000 Cl
ENDBRANCH   5   8
BRANCH   1  15
ATOM     15  N   UNL     1       6.144   4.912  14.468  0.00  0.00    +0.000 NA
ATOM     16  C   UNL     1       7.532   5.109  14.047  0.00  0.00    +0.000 C 
BRANCH  15  18
ATOM     17  C   UNL     1       6.147   3.470  12.376  0.00  0.00    +0.000 C 
ATOM     18  C   UNL     1       5.494   3.834  13.706  0.00  0.00    +0.000 C 
ENDBRANCH  15  18
ENDBRANCH   1  15
TORSDOF 3
ENDMDL
MODEL 5
REMARK VINA RESULT:      -5.5      5.838      6.920
REMARK  Name = 
REMARK  6 active torsions:
REMARK  status: ('A' for Active; 'I' for Inactive)
REMARK    1  A    between atoms: C_1  and  C_2
REMARK    2  A    between atoms: C_2  and  N_3
REMARK    3  A    between atoms: N_3  and  C_4
REMARK    4  A    between atoms: N_3  and  C_5
REMARK    5  A    between atoms: C_9  and  C_11
REMARK    6  A    between atoms: C_14  and  C_15
REMARK                            x       y       z     vdW  Elec       q    Type
REMARK                         _______ _______ _______ _____ _____    ______ ____
ROOT
ATOM      1  C   UNL     1       2.594   6.795  19.405  0.00  0.00    +0.000 C 
ATOM      2  C   UNL     1       2.232   7.525  18.103  0.00  0.00    +0.000 C 
ATOM      3  C   UNL     1       1.975   8.946  18.534  0.00  0.00    +0.000 C 
ATOM      4  N   UNL     1       1.324   8.802  19.820  0.00  0.00    +0.000 N 
ATOM      5  C   UNL     1       0.276   9.545  20.352  0.00  0.00    +0.000 C 
ATOM      6  O   UNL     1      -0.219   9.191  21.432  0.00  0.00    +0.000 OA
ATOM      7  C   UNL     1       1.787   7.582  20.475  0.00  0.00    +0.000 C 
ENDROOT
BRANCH   5   8
ATOM      8  C   UNL     1      -0.243  10.702  19.628  0.00  0.00    +0.000 A 
ATOM      9  S   UNL     1      -1.428  10.535  18.396  0.00  0.00    +0.000 S 
ATOM     10  C   UNL     1      -1.465  12.207  18.090  0.00  0.00    +0.000 A 
ATOM     11  C   UNL     1      -0.489  12.893  18.784  0.00  0.00    +0.000 A 
ATOM     12  C   UNL     1      -0.199  14.344  18.577  0.00  0.00    +0.000 C 
ATOM     13  C   UNL     1       0.199  12.016  19.696  0.00  0.00    +0.000 A 
ATOM     14 CL   UNL     1       1.435  12.603  20.739  0.00  0.00    +0.000 Cl
ENDBRANCH   5   8
BRANCH   1  15
ATOM     15  N   UNL     1       2.308   5.352  19.316  0.00  0.00    +0.000 NA
ATOM     16  C   UNL     1       3.438   4.583  18.791  0.00  0.00    +0.000 C 
BRANCH  15  18
ATOM     17  C   UNL     1       1.006   3.463  20.407  0.00  0.00    +0.000 C 
ATOM     18  C   UNL     1       1.785   4.766  20.560  0.00  0.00    +0.000 C 
ENDBRANCH  15  18
ENDBRANCH   1  15
TORSDOF 3
ENDMDL
MODEL 6
REMARK VINA RESULT:      -5.5      4.053      5.747
REMARK  Name = 
REMARK  6 active torsions:
REMARK  status: ('A' for Active; 'I' for Inactive)
REMARK    1  A    between atoms: C_1  and  C_2
REMARK    2  A    between atoms: C_2  and  N_3
REMARK    3  A    between atoms: N_3  and  C_4
REMARK    4  A    between atoms: N_3  and  C_5
REMARK    5  A    between atoms: C_9  and  C_11
REMARK    6  A    between atoms: C_14  and  C_15
REMARK                            x       y       z     vdW  Elec       q    Type
REMARK                         _______ _______ _______ _____ _____    ______ ____
ROOT
ATOM      1  C   UNL     1       0.757   9.457  20.151  0.00  0.00    +0.000 C 
ATOM      2  C   UNL     1       0.578   8.091  20.828  0.00  0.00    +0.000 C 
ATOM      3  C   UNL     1       1.899   7.396  20.617  0.00  0.00    +0.000 C 
ATOM      4  N   UNL     1       2.297   7.816  19.289  0.00  0.00    +0.000 N 
ATOM      5  C   UNL     1       2.925   7.073  18.295  0.00  0.00    +0.000 C 
ATOM      6  O   UNL     1       3.084   7.585  17.177  0.00  0.00    +0.000 OA
ATOM      7  C   UNL     1       1.762   9.145  19.007  0.00  0.00    +0.000 C 
ENDROOT
BRANCH   5   8
ATOM      8  C   UNL     1       3.360   5.705  18.567  0.00  0.00    +0.000 A 
ATOM      9  S   UNL     1       4.902   5.370  19.245  0.00  0.00    +0.000 S 
ATOM     10  C   UNL     1       4.635   3.690  19.227  0.00  0.00    +0.000 A 
ATOM     11  C   UNL     1       3.469   3.347  18.574  0.00  0.00    +0.000 A 
ATOM     12  C   UNL     1       3.077   1.936  18.277  0.00  0.00    +0.000 C 
ATOM     13  C   UNL     1       2.719   4.524  18.218  0.00  0.00    +0.000 A 
ATOM     14 CL   UNL     1       1.190   4.409  17.439  0.00  0.00    +0.000 Cl
ENDBRANCH   5   8
BRANCH   1  15
ATOM     15  N   UNL     1      -0.536  10.029  19.732  0.00  0.00    +0.000 NA
ATOM     16  C   UNL     1      -0.925  11.191  20.533  0.00  0.00    +0.000 C 
BRANCH  15  18
ATOM     17  C   UNL     1      -1.947   9.927  17.622  0.00  0.00    +0.000 C 
ATOM     18  C   UNL     1      -0.629  10.308  18.290  0.00  0.00    +0.000 C 
ENDBRANCH  15  18
ENDBRANCH   1  15
TORSDOF 3
ENDMDL
MODEL 7
REMARK VINA RESULT:      -5.5      3.310      6.466
REMARK  Name = 
REMARK  6 active torsions:
REMARK  status: ('A' for Active; 'I' for Inactive)
REMARK    1  A    between atoms: C_1  and  C_2
REMARK    2  A    between atoms: C_2  and  N_3
REMARK    3  A    between atoms: N_3  and  C_4
REMARK    4  A    between atoms: N_3  and  C_5
REMARK    5  A    between atoms: C_9  and  C_11
REMARK    6  A    between atoms: C_14  and  C_15
REMARK                            x       y       z     vdW  Elec       q    Type
REMARK                         _______ _______ _______ _____ _____    ______ ____
ROOT
ATOM      1  C   UNL     1       6.369   5.516  15.371  0.00  0.00    +0.000 C 
ATOM      2  C   UNL     1       4.876   5.161  15.331  0.00  0.00    +0.000 C 
ATOM      3  C   UNL     1       4.348   5.628  16.663  0.00  0.00    +0.000 C 
ATOM      4  N   UNL     1       5.427   5.333  17.582  0.00  0.00    +0.000 N 
ATOM      5  C   UNL     1       5.352   4.857  18.887  0.00  0.00    +0.000 C 
ATOM      6  O   UNL     1       6.402   4.559  19.475  0.00  0.00    +0.000 OA
ATOM      7  C   UNL     1       6.707   5.409  16.884  0.00  0.00    +0.000 C 
ENDROOT
BRANCH   5   8
ATOM      8  C   UNL     1       4.053   4.689  19.531  0.00  0.00    +0.000 A 
ATOM      9  S   UNL     1       2.990   6.017  19.774  0.00  0.00    +0.000 S 
ATOM     10  C   UNL     1       1.815   5.045  20.526  0.00  0.00    +0.000 A 
ATOM     11  C   UNL     1       2.258   3.757  20.750  0.00  0.00    +0.000 A 
ATOM     12  C   UNL     1       1.486   2.747  21.535  0.00  0.00    +0.000 C 
ATOM     13  C   UNL     1       3.548   3.551  20.144  0.00  0.00    +0.000 A 
ATOM     14 CL   UNL     1       4.331   2.020  20.210  0.00  0.00    +0.000 Cl
ENDBRANCH   5   8
BRANCH   1  15
ATOM     15  N   UNL     1       7.157   4.652  14.473  0.00  0.00    +0.000 NA
ATOM     16  C   UNL     1       6.343   3.627  13.818  0.00  0.00    +0.000 C 
BRANCH  15  18
ATOM     17  C   UNL     1       7.633   5.182  12.034  0.00  0.00    +0.000 C 
ATOM     18  C   UNL     1       7.984   5.389  13.505  0.00  0.00    +0.000 C 
ENDBRANCH  15  18
ENDBRANCH   1  15
TORSDOF 3
ENDMDL
MODEL 8
REMARK VINA RESULT:      -5.5      3.311      4.481
REMARK  Name = 
REMARK  6 active torsions:
REMARK  status: ('A' for Active; 'I' for Inactive)
REMARK    1  A    between atoms: C_1  and  C_2
REMARK    2  A    between atoms: C_2  and  N_3
REMARK    3  A    between atoms: N_3  and  C_4
REMARK    4  A    between atoms: N_3  and  C_5
REMARK    5  A    between atoms: C_9  and  C_11
REMARK    6  A    between atoms: C_14  and  C_15
REMARK                            x       y       z     vdW  Elec       q    Type
REMARK                         _______ _______ _______ _____ _____    ______ ____
ROOT
ATOM      1  C   UNL     1       1.431   8.336  19.547  0.00  0.00    +0.000 C 
ATOM      2  C   UNL     1       2.189   8.797  18.294  0.00  0.00    +0.000 C 
ATOM      3  C   UNL     1       2.681   7.518  17.667  0.00  0.00    +0.000 C 
ATOM      4  N   UNL     1       3.026   6.689  18.803  0.00  0.00    +0.000 N 
ATOM      5  C   UNL     1       4.098   5.814  18.946  0.00  0.00    +0.000 C 
ATOM      6  O   UNL     1       4.286   5.276  20.047  0.00  0.00    +0.000 OA
ATOM      7  C   UNL     1       2.180   7.033  19.942  0.00  0.00    +0.000 C 
ENDROOT
BRANCH   5   8
ATOM      8  C   UNL     1       4.995   5.565  17.822  0.00  0.00    +0.000 A 
ATOM      9  S   UNL     1       6.345   6.580  17.506  0.00  0.00    +0.000 S 
ATOM     10  C   UNL     1       6.808   5.676  16.142  0.00  0.00    +0.000 A 
ATOM     11  C   UNL     1       5.884   4.708  15.809  0.00  0.00    +0.000 A 
ATOM     12  C   UNL     1       5.967   3.884  14.566  0.00  0.00    +0.000 C 
ATOM     13  C   UNL     1       4.847   4.631  16.806  0.00  0.00    +0.000 A 
ATOM     14 CL   UNL     1       3.579   3.473  16.690  0.00  0.00    +0.000 Cl
ENDBRANCH   5   8
BRANCH   1  15
ATOM     15  N   UNL     1       1.389   9.391  20.576  0.00  0.00    +0.000 NA
ATOM     16  C   UNL     1       0.464  10.474  20.238  0.00  0.00    +0.000 C 
BRANCH  15  18
ATOM     17  C   UNL     1      -0.151   9.308  22.594  0.00  0.00    +0.000 C 
ATOM     18  C   UNL     1       1.162   8.890  21.940  0.00  0.00    +0.000 C 
ENDBRANCH  15  18
ENDBRANCH   1  15
TORSDOF 3
ENDMDL
MODEL 9
REMARK VINA RESULT:      -5.3      5.775      6.938
REMARK  Name = 
REMARK  6 active torsions:
REMARK  status: ('A' for Active; 'I' for Inactive)
REMARK    1  A    between atoms: C_1  and  C_2
REMARK    2  A    between atoms: C_2  and  N_3
REMARK    3  A    between atoms: N_3  and  C_4
REMARK    4  A    between atoms: N_3  and  C_5
REMARK    5  A    between atoms: C_9  and  C_11
REMARK    6  A    between atoms: C_14  and  C_15
REMARK                            x       y       z     vdW  Elec       q    Type
REMARK                         _______ _______ _______ _____ _____    ______ ____
ROOT
ATOM      1  C   UNL     1       2.711   6.757  19.256  0.00  0.00    +0.000 C 
ATOM      2  C   UNL     1       2.295   7.488  17.971  0.00  0.00    +0.000 C 
ATOM      3  C   UNL     1       2.023   8.901  18.420  0.00  0.00    +0.000 C 
ATOM      4  N   UNL     1       1.416   8.736  19.723  0.00  0.00    +0.000 N 
ATOM      5  C   UNL     1       0.370   9.455  20.292  0.00  0.00    +0.000 C 
ATOM      6  O   UNL     1      -0.085   9.085  21.385  0.00  0.00    +0.000 OA
ATOM      7  C   UNL     1       1.922   7.521  20.356  0.00  0.00    +0.000 C 
ENDROOT
BRANCH   5   8
ATOM      8  C   UNL     1      -0.193  10.607  19.592  0.00  0.00    +0.000 A 
ATOM      9  S   UNL     1      -1.414  10.424  18.398  0.00  0.00    +0.000 S 
ATOM     10  C   UNL     1      -1.491  12.097  18.104  0.00  0.00    +0.000 A 
ATOM     11  C   UNL     1      -0.506  12.797  18.770  0.00  0.00    +0.000 A 
ATOM     12  C   UNL     1      -0.250  14.254  18.563  0.00  0.00    +0.000 C 
ATOM     13  C   UNL     1       0.227  11.928  19.654  0.00  0.00    +0.000 A 
ATOM     14 CL   UNL     1       1.486  12.532  20.660  0.00  0.00    +0.000 Cl
ENDBRANCH   5   8
BRANCH   1  15
ATOM     15  N   UNL     1       2.449   5.309  19.166  0.00  0.00    +0.000 NA
ATOM     16  C   UNL     1       1.928   4.910  17.858  0.00  0.00    +0.000 C 
BRANCH  15  18
ATOM     17  C   UNL     1       4.971   5.017  19.259  0.00  0.00    +0.000 C 
ATOM     18  C   UNL     1       3.584   4.468  19.578  0.00  0.00    +0.000 C 
ENDBRANCH  15  18
ENDBRANCH   1  15
TORSDOF 3
ENDMDL
