MODEL 1
REMARK VINA RESULT:      -8.4      0.000      0.000
REMARK  Name = 
REMARK  7 active torsions:
REMARK  status: ('A' for Active; 'I' for Inactive)
REMARK    1  A    between atoms: C_2  and  C_3
REMARK    2  A    between atoms: C_3  and  N_4
REMARK    3  A    between atoms: N_10  and  C_11
REMARK    4  A    between atoms: C_13  and  C_14
REMARK    5  A    between atoms: C_14  and  N_15
REMARK    6  A    between atoms: C_21  and  N_22
REMARK    7  A    between atoms: N_22  and  C_23
REMARK                            x       y       z     vdW  Elec       q    Type
REMARK                         _______ _______ _______ _____ _____    ______ ____
ROOT
ATOM      1  C   UNL     1       2.887   5.954  20.381  0.00  0.00    +0.000 A 
ATOM      2  C   UNL     1       3.754   5.591  19.358  0.00  0.00    +0.000 A 
ATOM      3  C   UNL     1       3.747   6.321  18.149  0.00  0.00    +0.000 A 
ATOM      4  C   UNL     1       2.901   7.456  18.012  0.00  0.00    +0.000 A 
ATOM      5  C   UNL     1       2.148   7.920  19.102  0.00  0.00    +0.000 A 
ATOM      6  C   UNL     1       2.169   7.148  20.284  0.00  0.00    +0.000 A 
ENDROOT
BRANCH   1   9
ATOM      7  O   UNL     1       1.891   3.091  22.250  0.00  0.00    +0.000 OA
ATOM      8  C   UNL     1       1.854   3.925  21.336  0.00  0.00    +0.000 C 
ATOM      9  N   UNL     1       2.671   5.036  21.427  0.00  0.00    +0.000 N 
ATOM     10  H   UNL     1       3.445   4.843  22.049  0.00  0.00    +0.000 HD
BRANCH   8  11
ATOM     11  C   UNL     1       0.977   3.684  20.091  0.00  0.00    +0.000 C 
BRANCH  11  12
ATOM     12  N   UNL     1       1.675   2.864  19.073  0.00  0.00    +0.000 NA
ATOM     13  C   UNL     1       1.855   3.576  17.802  0.00  0.00    +0.000 C 
ATOM     14  C   UNL     1       2.464   2.657  16.738  0.00  0.00    +0.000 C 
ATOM     15  C   UNL     1       3.769   2.034  17.219  0.00  0.00    +0.000 C 
ATOM     16  C   UNL     1       3.572   1.371  18.575  0.00  0.00    +0.000 C 
ATOM     17  C   UNL     1       2.945   2.339  19.581  0.00  0.00    +0.000 C 
ENDBRANCH  11  12
ENDBRANCH   8  11
ENDBRANCH   1   9
BRANCH   5  18
ATOM     18  N   UNL     1       1.071   8.873  19.052  0.00  0.00    +0.000 N 
ATOM     19  H   UNL     1       0.322   8.169  18.942  0.00  0.00    +0.000 HD
BRANCH  18  20
ATOM     20  C   UNL     1       0.554   9.916  18.110  0.00  0.00    +0.000 A 
ATOM     21  C   UNL     1       1.480  10.959  18.101  0.00  0.00    +0.000 A 
ATOM     22  C   UNL     1       1.278  11.875  19.118  0.00  0.00    +0.000 A 
ATOM     23  N   UNL     1       0.113  11.955  19.810  0.00  0.00    +0.000 NA
ATOM     24  C   UNL     1      -0.945  11.339  19.250  0.00  0.00    +0.000 A 
ATOM     25  C   UNL     1      -2.232  11.777  19.498  0.00  0.00    +0.000 A 
ATOM     26  C   UNL     1      -3.234  11.561  18.551  0.00  0.00    +0.000 A 
ATOM     27 CL   UNL     1      -4.807  12.205  18.811  0.00  0.00    +0.000 Cl
ATOM     28  C   UNL     1      -2.944  10.910  17.356  0.00  0.00    +0.000 A 
ATOM     29  C   UNL     1      -1.701  10.297  17.207  0.00  0.00    +0.000 A 
ATOM     30  C   UNL     1      -0.742  10.401  18.234  0.00  0.00    +0.000 A 
ENDBRANCH  18  20
ENDBRANCH   5  18
BRANCH   3  31
ATOM     31  C   UNL     1       4.583   5.757  17.009  0.00  0.00    +0.000 C 
BRANCH  31  32
ATOM     32  N   UNL     1       5.946   6.264  16.820  0.00  0.00    +0.000 NA
ATOM     33  C   UNL     1       6.901   5.308  16.256  0.00  0.00    +0.000 C 
ATOM     34  C   UNL     1       7.555   4.649  17.454  0.00  0.00    +0.000 C 
ATOM     35  C   UNL     1       7.550   5.737  18.520  0.00  0.00    +0.000 C 
ATOM     36  C   UNL     1       6.564   6.794  18.031  0.00  0.00    +0.000 C 
ENDBRANCH  31  32
ENDBRANCH   3  31
TORSDOF 7
ENDMDL
MODEL 2
REMARK VINA RESULT:      -8.4      3.164      7.460
REMARK  Name = 
REMARK  7 active torsions:
REMARK  status: ('A' for Active; 'I' for Inactive)
REMARK    1  A    between atoms: C_2  and  C_3
REMARK    2  A    between atoms: C_3  and  N_4
REMARK    3  A    between atoms: N_10  and  C_11
REMARK    4  A    between atoms: C_13  and  C_14
REMARK    5  A    between atoms: C_14  and  N_15
REMARK    6  A    between atoms: C_21  and  N_22
REMARK    7  A    between atoms: N_22  and  C_23
REMARK                            x       y       z     vdW  Elec       q    Type
REMARK                         _______ _______ _______ _____ _____    ______ ____
ROOT
ATOM      1  C   UNL     1       2.410   6.157  20.094  0.00  0.00    +0.000 A 
ATOM      2  C   UNL     1       1.750   7.378  20.118  0.00  0.00    +0.000 A 
ATOM      3  C   UNL     1       1.978   8.313  19.083  0.00  0.00    +0.000 A 
ATOM      4  C   UNL     1       2.830   7.972  17.996  0.00  0.00    +0.000 A 
ATOM      5  C   UNL     1       3.364   6.678  17.888  0.00  0.00    +0.000 A 
ATOM      6  C   UNL     1       3.127   5.784  18.955  0.00  0.00    +0.000 A 
ENDROOT
BRANCH   1   9
ATOM      7  O   UNL     1       2.095   3.483  22.425  0.00  0.00    +0.000 OA
ATOM      8  C   UNL     1       1.850   4.141  21.406  0.00  0.00    +0.000 C 
ATOM      9  N   UNL     1       2.431   5.389  21.274  0.00  0.00    +0.000 N 
ATOM     10  H   UNL     1       3.255   5.447  21.858  0.00  0.00    +0.000 HD
BRANCH   8  11
ATOM     11  C   UNL     1       0.983   3.546  20.277  0.00  0.00    +0.000 C 
BRANCH  11  12
ATOM     12  N   UNL     1       1.766   2.656  19.390  0.00  0.00    +0.000 NA
ATOM     13  C   UNL     1       1.826   3.146  18.008  0.00  0.00    +0.000 C 
ATOM     14  C   UNL     1       2.534   2.140  17.096  0.00  0.00    +0.000 C 
ATOM     15  C   UNL     1       3.918   1.785  17.623  0.00  0.00    +0.000 C 
ATOM     16  C   UNL     1       3.837   1.354  19.081  0.00  0.00    +0.000 C 
ATOM     17  C   UNL     1       3.105   2.397  19.928  0.00  0.00    +0.000 C 
ENDBRANCH  11  12
ENDBRANCH   8  11
ENDBRANCH   1   9
BRANCH   5  18
ATOM     18  N   UNL     1       4.426   6.264  17.011  0.00  0.00    +0.000 N 
ATOM     19  H   UNL     1       3.888   6.393  16.137  0.00  0.00    +0.000 HD
BRANCH  18  20
ATOM     20  C   UNL     1       5.146   4.999  16.659  0.00  0.00    +0.000 A 
ATOM     21  C   UNL     1       6.134   4.804  17.623  0.00  0.00    +0.000 A 
ATOM     22  C   UNL     1       7.312   5.472  17.338  0.00  0.00    +0.000 A 
ATOM     23  N   UNL     1       7.599   5.954  16.103  0.00  0.00    +0.000 NA
ATOM     24  C   UNL     1       6.851   5.467  15.095  0.00  0.00    +0.000 A 
ATOM     25  C   UNL     1       7.350   5.407  13.808  0.00  0.00    +0.000 A 
ATOM     26  C   UNL     1       6.869   4.444  12.920  0.00  0.00    +0.000 A 
ATOM     27 CL   UNL     1       7.569   4.297  11.357  0.00  0.00    +0.000 Cl
ATOM     28  C   UNL     1       5.892   3.539  13.325  0.00  0.00    +0.000 A 
ATOM     29  C   UNL     1       5.254   3.740  14.549  0.00  0.00    +0.000 A 
ATOM     30  C   UNL     1       5.653   4.805  15.380  0.00  0.00    +0.000 A 
ENDBRANCH  18  20
ENDBRANCH   5  18
BRANCH   3  31
ATOM     31  C   UNL     1       1.372   9.697  19.270  0.00  0.00    +0.000 C 
BRANCH  31  32
ATOM     32  N   UNL     1       0.054   9.806  19.903  0.00  0.00    +0.000 NA
ATOM     33  C   UNL     1      -1.034  10.234  19.022  0.00  0.00    +0.000 C 
ATOM     34  C   UNL     1      -1.090  11.742  19.167  0.00  0.00    +0.000 C 
ATOM     35  C   UNL     1      -0.641  11.990  20.601  0.00  0.00    +0.000 C 
ATOM     36  C   UNL     1       0.015  10.692  21.063  0.00  0.00    +0.000 C 
ENDBRANCH  31  32
ENDBRANCH   3  31
TORSDOF 7
ENDMDL
MODEL 3
REMARK VINA RESULT:      -8.4      2.808      6.706
REMARK  Name = 
REMARK  7 active torsions:
REMARK  status: ('A' for Active; 'I' for Inactive)
REMARK    1  A    between atoms: C_2  and  C_3
REMARK    2  A    between atoms: C_3  and  N_4
REMARK    3  A    between atoms: N_10  and  C_11
REMARK    4  A    between atoms: C_13  and  C_14
REMARK    5  A    between atoms: C_14  and  N_15
REMARK    6  A    between atoms: C_21  and  N_22
REMARK    7  A    between atoms: N_22  and  C_23
REMARK                            x       y       z     vdW  Elec       q    Type
REMARK                         _______ _______ _______ _____ _____    ______ ____
ROOT
ATOM      1  C   UNL     1       0.592   9.489  20.387  0.00  0.00    +0.000 A 
ATOM      2  C   UNL     1       1.728   8.883  19.869  0.00  0.00    +0.000 A 
ATOM      3  C   UNL     1       1.859   8.729  18.470  0.00  0.00    +0.000 A 
ATOM      4  C   UNL     1       0.858   9.251  17.605  0.00  0.00    +0.000 A 
ATOM      5  C   UNL     1      -0.206  10.007  18.120  0.00  0.00    +0.000 A 
ATOM      6  C   UNL     1      -0.308  10.118  19.524  0.00  0.00    +0.000 A 
ENDROOT
BRANCH   1   9
ATOM      7  O   UNL     1      -0.595  10.009  23.704  0.00  0.00    +0.000 OA
ATOM      8  C   UNL     1      -0.235  10.318  22.561  0.00  0.00    +0.000 C 
ATOM      9  N   UNL     1       0.327   9.339  21.762  0.00  0.00    +0.000 N 
ATOM     10  H   UNL     1       0.043   8.425  22.089  0.00  0.00    +0.000 HD
BRANCH   8  11
ATOM     11  C   UNL     1      -0.483  11.740  22.019  0.00  0.00    +0.000 C 
BRANCH  11  12
ATOM     12  N   UNL     1      -1.927  12.022  21.849  0.00  0.00    +0.000 NA
ATOM     13  C   UNL     1      -2.521  12.657  23.031  0.00  0.00    +0.000 C 
ATOM     14  C   UNL     1      -4.036  12.818  22.868  0.00  0.00    +0.000 C 
ATOM     15  C   UNL     1      -4.383  13.577  21.594  0.00  0.00    +0.000 C 
ATOM     16  C   UNL     1      -3.691  12.945  20.394  0.00  0.00    +0.000 C 
ATOM     17  C   UNL     1      -2.186  12.800  20.633  0.00  0.00    +0.000 C 
ENDBRANCH  11  12
ENDBRANCH   8  11
ENDBRANCH   1   9
BRANCH   5  18
ATOM     18  N   UNL     1      -1.411  10.373  17.422  0.00  0.00    +0.000 N 
ATOM     19  H   UNL     1      -1.689  11.114  18.088  0.00  0.00    +0.000 HD
BRANCH  18  20
ATOM     20  C   UNL     1      -2.759   9.782  17.150  0.00  0.00    +0.000 A 
ATOM     21  C   UNL     1      -2.776   9.389  15.813  0.00  0.00    +0.000 A 
ATOM     22  C   UNL     1      -3.126  10.411  14.949  0.00  0.00    +0.000 A 
ATOM     23  N   UNL     1      -3.734  11.549  15.370  0.00  0.00    +0.000 NA
ATOM     24  C   UNL     1      -4.280  11.500  16.600  0.00  0.00    +0.000 A 
ATOM     25  C   UNL     1      -5.357  12.303  16.928  0.00  0.00    +0.000 A 
ATOM     26  C   UNL     1      -6.254  11.893  17.915  0.00  0.00    +0.000 A 
ATOM     27 CL   UNL     1      -7.653  12.837  18.243  0.00  0.00    +0.000 Cl
ATOM     28  C   UNL     1      -6.074  10.677  18.568  0.00  0.00    +0.000 A 
ATOM     29  C   UNL     1      -4.882   9.979  18.376  0.00  0.00    +0.000 A 
ATOM     30  C   UNL     1      -3.916  10.478  17.479  0.00  0.00    +0.000 A 
ENDBRANCH  18  20
ENDBRANCH   5  18
BRANCH   3  31
ATOM     31  C   UNL     1       3.033   7.893  17.984  0.00  0.00    +0.000 C 
BRANCH  31  32
ATOM     32  N   UNL     1       2.852   6.445  17.841  0.00  0.00    +0.000 NA
ATOM     33  C   UNL     1       2.444   5.738  19.057  0.00  0.00    +0.000 C 
ATOM     34  C   UNL     1       3.738   5.284  19.703  0.00  0.00    +0.000 C 
ATOM     35  C   UNL     1       4.674   5.046  18.525  0.00  0.00    +0.000 C 
ATOM     36  C   UNL     1       4.023   5.738  17.331  0.00  0.00    +0.000 C 
ENDBRANCH  31  32
ENDBRANCH   3  31
TORSDOF 7
ENDMDL
MODEL 4
REMARK VINA RESULT:      -8.2      2.306      4.485
REMARK  Name = 
REMARK  7 active torsions:
REMARK  status: ('A' for Active; 'I' for Inactive)
REMARK    1  A    between atoms: C_2  and  C_3
REMARK    2  A    between atoms: C_3  and  N_4
REMARK    3  A    between atoms: N_10  and  C_11
REMARK    4  A    between atoms: C_13  and  C_14
REMARK    5  A    between atoms: C_14  and  N_15
REMARK    6  A    between atoms: C_21  and  N_22
REMARK    7  A    between atoms: N_22  and  C_23
REMARK                            x       y       z     vdW  Elec       q    Type
REMARK                         _______ _______ _______ _____ _____    ______ ____
ROOT
ATOM      1  C   UNL     1       4.577   6.459  18.128  0.00  0.00    +0.000 A 
ATOM      2  C   UNL     1       4.335   5.274  18.810  0.00  0.00    +0.000 A 
ATOM      3  C   UNL     1       3.165   5.147  19.591  0.00  0.00    +0.000 A 
ATOM      4  C   UNL     1       2.216   6.206  19.621  0.00  0.00    +0.000 A 
ATOM      5  C   UNL     1       2.381   7.334  18.802  0.00  0.00    +0.000 A 
ATOM      6  C   UNL     1       3.574   7.429  18.055  0.00  0.00    +0.000 A 
ENDROOT
BRANCH   1   9
ATOM      7  O   UNL     1       7.510   6.436  16.109  0.00  0.00    +0.000 OA
ATOM      8  C   UNL     1       6.440   6.018  16.569  0.00  0.00    +0.000 C 
ATOM      9  N   UNL     1       5.876   6.691  17.637  0.00  0.00    +0.000 N 
ATOM     10  H   UNL     1       6.230   7.638  17.670  0.00  0.00    +0.000 HD
BRANCH   8  11
ATOM     11  C   UNL     1       5.716   4.825  15.911  0.00  0.00    +0.000 C 
BRANCH  11  12
ATOM     12  N   UNL     1       5.957   4.770  14.450  0.00  0.00    +0.000 NA
ATOM     13  C   UNL     1       7.383   4.835  14.110  0.00  0.00    +0.000 C 
ATOM     14  C   UNL     1       7.586   4.903  12.594  0.00  0.00    +0.000 C 
ATOM     15  C   UNL     1       6.896   3.744  11.885  0.00  0.00    +0.000 C 
ATOM     16  C   UNL     1       5.439   3.651  12.316  0.00  0.00    +0.000 C 
ATOM     17  C   UNL     1       5.311   3.604  13.840  0.00  0.00    +0.000 C 
ENDBRANCH  11  12
ENDBRANCH   8  11
ENDBRANCH   1   9
BRANCH   5  18
ATOM     18  N   UNL     1       1.664   8.578  18.908  0.00  0.00    +0.000 N 
ATOM     19  H   UNL     1       0.796   8.159  19.285  0.00  0.00    +0.000 HD
BRANCH  18  20
ATOM     20  C   UNL     1       1.057   9.591  17.989  0.00  0.00    +0.000 A 
ATOM     21  C   UNL     1       1.996  10.607  17.815  0.00  0.00    +0.000 A 
ATOM     22  C   UNL     1       1.943  11.573  18.804  0.00  0.00    +0.000 A 
ATOM     23  N   UNL     1       0.876  11.716  19.630  0.00  0.00    +0.000 NA
ATOM     24  C   UNL     1      -0.257  11.105  19.235  0.00  0.00    +0.000 A 
ATOM     25  C   UNL     1      -1.493  11.589  19.619  0.00  0.00    +0.000 A 
ATOM     26  C   UNL     1      -2.611  11.358  18.815  0.00  0.00    +0.000 A 
ATOM     27 CL   UNL     1      -4.125  12.056  19.236  0.00  0.00    +0.000 Cl
ATOM     28  C   UNL     1      -2.486  10.647  17.625  0.00  0.00    +0.000 A 
ATOM     29  C   UNL     1      -1.285   9.993  17.354  0.00  0.00    +0.000 A 
ATOM     30  C   UNL     1      -0.203  10.117  18.248  0.00  0.00    +0.000 A 
ENDBRANCH  18  20
ENDBRANCH   5  18
BRANCH   3  31
ATOM     31  C   UNL     1       3.056   3.900  20.457  0.00  0.00    +0.000 C 
BRANCH  31  32
ATOM     32  N   UNL     1       2.460   2.693  19.877  0.00  0.00    +0.000 NA
ATOM     33  C   UNL     1       3.411   1.703  19.366  0.00  0.00    +0.000 C 
ATOM     34  C   UNL     1       3.589   2.046  17.900  0.00  0.00    +0.000 C 
ATOM     35  C   UNL     1       2.240   2.624  17.492  0.00  0.00    +0.000 C 
ATOM     36  C   UNL     1       1.514   2.948  18.795  0.00  0.00    +0.000 C 
ENDBRANCH  31  32
ENDBRANCH   3  31
TORSDOF 7
ENDMDL
MODEL 5
REMARK VINA RESULT:      -7.9      1.605      2.133
REMARK  Name = 
REMARK  7 active torsions:
REMARK  status: ('A' for Active; 'I' for Inactive)
REMARK    1  A    between atoms: C_2  and  C_3
REMARK    2  A    between atoms: C_3  and  N_4
REMARK    3  A    between atoms: N_10  and  C_11
REMARK    4  A    between atoms: C_13  and  C_14
REMARK    5  A    between atoms: C_14  and  N_15
REMARK    6  A    between atoms: C_21  and  N_22
REMARK    7  A    between atoms: N_22  and  C_23
REMARK                            x       y       z     vdW  Elec       q    Type
REMARK                         _______ _______ _______ _____ _____    ______ ____
ROOT
ATOM      1  C   UNL     1       2.770   6.393  20.106  0.00  0.00    +0.000 A 
ATOM      2  C   UNL     1       3.631   5.990  19.094  0.00  0.00    +0.000 A 
ATOM      3  C   UNL     1       3.660   6.709  17.878  0.00  0.00    +0.000 A 
ATOM      4  C   UNL     1       2.855   7.872  17.724  0.00  0.00    +0.000 A 
ATOM      5  C   UNL     1       2.111   8.372  18.804  0.00  0.00    +0.000 A 
ATOM      6  C   UNL     1       2.096   7.611  19.993  0.00  0.00    +0.000 A 
ENDROOT
BRANCH   1   9
ATOM      7  O   UNL     1       1.756   3.536  21.975  0.00  0.00    +0.000 OA
ATOM      8  C   UNL     1       1.753   4.344  21.037  0.00  0.00    +0.000 C 
ATOM      9  N   UNL     1       2.514   5.493  21.158  0.00  0.00    +0.000 N 
ATOM     10  H   UNL     1       3.245   5.349  21.843  0.00  0.00    +0.000 HD
BRANCH   8  11
ATOM     11  C   UNL     1       0.985   4.034  19.737  0.00  0.00    +0.000 C 
BRANCH  11  12
ATOM     12  N   UNL     1       1.721   3.081  18.874  0.00  0.00    +0.000 NA
ATOM     13  C   UNL     1       2.058   3.651  17.563  0.00  0.00    +0.000 C 
ATOM     14  C   UNL     1       2.705   2.600  16.655  0.00  0.00    +0.000 C 
ATOM     15  C   UNL     1       3.921   1.963  17.316  0.00  0.00    +0.000 C 
ATOM     16  C   UNL     1       3.562   1.451  18.704  0.00  0.00    +0.000 C 
ATOM     17  C   UNL     1       2.907   2.546  19.549  0.00  0.00    +0.000 C 
ENDBRANCH  11  12
ENDBRANCH   8  11
ENDBRANCH   1   9
BRANCH   5  18
ATOM     18  N   UNL     1       1.069   9.362  18.738  0.00  0.00    +0.000 N 
ATOM     19  H   UNL     1       1.653  10.142  19.087  0.00  0.00    +0.000 HD
BRANCH  18  20
ATOM     20  C   UNL     1      -0.205   9.683  19.455  0.00  0.00    +0.000 A 
ATOM     21  C   UNL     1      -1.205   9.795  18.489  0.00  0.00    +0.000 A 
ATOM     22  C   UNL     1      -1.282  11.059  17.930  0.00  0.00    +0.000 A 
ATOM     23  N   UNL     1      -0.712  12.148  18.504  0.00  0.00    +0.000 NA
ATOM     24  C   UNL     1      -0.358  12.013  19.795  0.00  0.00    +0.000 A 
ATOM     25  C   UNL     1      -0.307  13.111  20.634  0.00  0.00    +0.000 A 
ATOM     26  C   UNL     1      -0.506  12.947  22.006  0.00  0.00    +0.000 A 
ATOM     27 CL   UNL     1      -0.554  14.326  23.032  0.00  0.00    +0.000 Cl
ATOM     28  C   UNL     1      -0.760  11.685  22.534  0.00  0.00    +0.000 A 
ATOM     29  C   UNL     1      -0.605  10.568  21.714  0.00  0.00    +0.000 A 
ATOM     30  C   UNL     1      -0.264  10.738  20.358  0.00  0.00    +0.000 A 
ENDBRANCH  18  20
ENDBRANCH   5  18
BRANCH   3  31
ATOM     31  C   UNL     1       4.483   6.106  16.749  0.00  0.00    +0.000 C 
BRANCH  31  32
ATOM     32  N   UNL     1       5.867   6.556  16.572  0.00  0.00    +0.000 NA
ATOM     33  C   UNL     1       6.801   5.544  16.074  0.00  0.00    +0.000 C 
ATOM     34  C   UNL     1       7.403   4.916  17.316  0.00  0.00    +0.000 C 
ATOM     35  C   UNL     1       7.412   6.050  18.333  0.00  0.00    +0.000 C 
ATOM     36  C   UNL     1       6.476   7.118  17.774  0.00  0.00    +0.000 C 
ENDBRANCH  31  32
ENDBRANCH   3  31
TORSDOF 7
ENDMDL
MODEL 6
REMARK VINA RESULT:      -7.9      3.550      9.055
REMARK  Name = 
REMARK  7 active torsions:
REMARK  status: ('A' for Active; 'I' for Inactive)
REMARK    1  A    between atoms: C_2  and  C_3
REMARK    2  A    between atoms: C_3  and  N_4
REMARK    3  A    between atoms: N_10  and  C_11
REMARK    4  A    between atoms: C_13  and  C_14
REMARK    5  A    between atoms: C_14  and  N_15
REMARK    6  A    between atoms: C_21  and  N_22
REMARK    7  A    between atoms: N_22  and  C_23
REMARK                            x       y       z     vdW  Elec       q    Type
REMARK                         _______ _______ _______ _____ _____    ______ ____
ROOT
ATOM      1  C   UNL     1       1.081   9.016  20.600  0.00  0.00    +0.000 A 
ATOM      2  C   UNL     1       0.123   9.827  20.006  0.00  0.00    +0.000 A 
ATOM      3  C   UNL     1       0.136  10.007  18.605  0.00  0.00    +0.000 A 
ATOM      4  C   UNL     1       1.087   9.309  17.810  0.00  0.00    +0.000 A 
ATOM      5  C   UNL     1       1.946   8.364  18.394  0.00  0.00    +0.000 A 
ATOM      6  C   UNL     1       1.913   8.232  19.799  0.00  0.00    +0.000 A 
ENDROOT
BRANCH   1   9
ATOM      7  O   UNL     1       0.520   9.526  24.080  0.00  0.00    +0.000 OA
ATOM      8  C   UNL     1       0.342   9.671  22.864  0.00  0.00    +0.000 C 
ATOM      9  N   UNL     1       1.259   9.109  21.994  0.00  0.00    +0.000 N 
ATOM     10  H   UNL     1       1.754   8.358  22.456  0.00  0.00    +0.000 HD
BRANCH   8  11
ATOM     11  C   UNL     1      -0.916  10.390  22.336  0.00  0.00    +0.000 C 
BRANCH  11  12
ATOM     12  N   UNL     1      -1.038  11.762  22.881  0.00  0.00    +0.000 NA
ATOM     13  C   UNL     1      -0.400  12.769  22.025  0.00  0.00    +0.000 C 
ATOM     14  C   UNL     1      -0.436  14.153  22.681  0.00  0.00    +0.000 C 
ATOM     15  C   UNL     1      -1.857  14.557  23.055  0.00  0.00    +0.000 C 
ATOM     16  C   UNL     1      -2.522  13.461  23.876  0.00  0.00    +0.000 C 
ATOM     17  C   UNL     1      -2.434  12.106  23.169  0.00  0.00    +0.000 C 
ENDBRANCH  11  12
ENDBRANCH   8  11
ENDBRANCH   1   9
BRANCH   5  18
ATOM     18  N   UNL     1       3.112   7.781  17.785  0.00  0.00    +0.000 N 
ATOM     19  H   UNL     1       2.591   7.097  17.209  0.00  0.00    +0.000 HD
BRANCH  18  20
ATOM     20  C   UNL     1       4.263   6.914  18.194  0.00  0.00    +0.000 A 
ATOM     21  C   UNL     1       5.326   7.210  17.341  0.00  0.00    +0.000 A 
ATOM     22  C   UNL     1       5.293   6.488  16.160  0.00  0.00    +0.000 A 
ATOM     23  N   UNL     1       4.536   5.373  16.006  0.00  0.00    +0.000 NA
ATOM     24  C   UNL     1       4.084   4.810  17.142  0.00  0.00    +0.000 A 
ATOM     25  C   UNL     1       3.815   3.455  17.202  0.00  0.00    +0.000 A 
ATOM     26  C   UNL     1       3.904   2.783  18.422  0.00  0.00    +0.000 A 
ATOM     27 CL   UNL     1       3.680   1.079  18.476  0.00  0.00    +0.000 Cl
ATOM     28  C   UNL     1       4.267   3.467  19.578  0.00  0.00    +0.000 A 
ATOM     29  C   UNL     1       4.334   4.860  19.543  0.00  0.00    +0.000 A 
ATOM     30  C   UNL     1       4.102   5.541  18.332  0.00  0.00    +0.000 A 
ENDBRANCH  18  20
ENDBRANCH   5  18
BRANCH   3  31
ATOM     31  C   UNL     1      -0.819  11.050  18.043  0.00  0.00    +0.000 C 
BRANCH  31  32
ATOM     32  N   UNL     1      -2.254  10.751  18.026  0.00  0.00    +0.000 NA
ATOM     33  C   UNL     1      -2.619   9.448  17.467  0.00  0.00    +0.000 C 
ATOM     34  C   UNL     1      -2.886   9.707  15.997  0.00  0.00    +0.000 C 
ATOM     35  C   UNL     1      -3.421  11.133  15.968  0.00  0.00    +0.000 C 
ATOM     36  C   UNL     1      -3.067  11.740  17.323  0.00  0.00    +0.000 C 
ENDBRANCH  31  32
ENDBRANCH   3  31
TORSDOF 7
ENDMDL
MODEL 7
REMARK VINA RESULT:      -7.9      2.642      4.998
REMARK  Name = 
REMARK  7 active torsions:
REMARK  status: ('A' for Active; 'I' for Inactive)
REMARK    1  A    between atoms: C_2  and  C_3
REMARK    2  A    between atoms: C_3  and  N_4
REMARK    3  A    between atoms: N_10  and  C_11
REMARK    4  A    between atoms: C_13  and  C_14
REMARK    5  A    between atoms: C_14  and  N_15
REMARK    6  A    between atoms: C_21  and  N_22
REMARK    7  A    between atoms: N_22  and  C_23
REMARK                            x       y       z     vdW  Elec       q    Type
REMARK                         _______ _______ _______ _____ _____    ______ ____
ROOT
ATOM      1  C   UNL     1       4.297   6.993  17.343  0.00  0.00    +0.000 A 
ATOM      2  C   UNL     1       3.741   5.735  17.528  0.00  0.00    +0.000 A 
ATOM      3  C   UNL     1       2.387   5.622  17.918  0.00  0.00    +0.000 A 
ATOM      4  C   UNL     1       1.591   6.793  18.056  0.00  0.00    +0.000 A 
ATOM      5  C   UNL     1       2.108   8.051  17.709  0.00  0.00    +0.000 A 
ATOM      6  C   UNL     1       3.470   8.119  17.345  0.00  0.00    +0.000 A 
ENDROOT
BRANCH   1   9
ATOM      7  O   UNL     1       7.717   6.490  16.488  0.00  0.00    +0.000 OA
ATOM      8  C   UNL     1       6.524   6.195  16.637  0.00  0.00    +0.000 C 
ATOM      9  N   UNL     1       5.700   7.098  17.283  0.00  0.00    +0.000 N 
ATOM     10  H   UNL     1       6.101   8.026  17.232  0.00  0.00    +0.000 HD
BRANCH   8  11
ATOM     11  C   UNL     1       5.960   4.889  16.043  0.00  0.00    +0.000 C 
BRANCH  11  12
ATOM     12  N   UNL     1       6.109   4.842  14.570  0.00  0.00    +0.000 NA
ATOM     13  C   UNL     1       7.506   4.979  14.139  0.00  0.00    +0.000 C 
ATOM     14  C   UNL     1       7.607   5.053  12.613  0.00  0.00    +0.000 C 
ATOM     15  C   UNL     1       6.933   3.858  11.949  0.00  0.00    +0.000 C 
ATOM     16  C   UNL     1       5.512   3.693  12.472  0.00  0.00    +0.000 C 
ATOM     17  C   UNL     1       5.485   3.644  14.001  0.00  0.00    +0.000 C 
ENDBRANCH  11  12
ENDBRANCH   8  11
ENDBRANCH   1   9
BRANCH   5  18
ATOM     18  N   UNL     1       1.531   9.329  18.032  0.00  0.00    +0.000 N 
ATOM     19  H   UNL     1       2.111   9.870  17.367  0.00  0.00    +0.000 HD
BRANCH  18  20
ATOM     20  C   UNL     1       1.534  10.291  19.180  0.00  0.00    +0.000 A 
ATOM     21  C   UNL     1       0.793   9.708  20.208  0.00  0.00    +0.000 A 
ATOM     22  C   UNL     1      -0.566   9.945  20.101  0.00  0.00    +0.000 A 
ATOM     23  N   UNL     1      -1.078  10.924  19.313  0.00  0.00    +0.000 NA
ATOM     24  C   UNL     1      -0.205  11.862  18.901  0.00  0.00    +0.000 A 
ATOM     25  C   UNL     1      -0.631  13.143  18.604  0.00  0.00    +0.000 A 
ATOM     26  C   UNL     1       0.252  14.216  18.735  0.00  0.00    +0.000 A 
ATOM     27 CL   UNL     1      -0.310  15.820  18.473  0.00  0.00    +0.000 Cl
ATOM     28  C   UNL     1       1.557  14.005  19.168  0.00  0.00    +0.000 A 
ATOM     29  C   UNL     1       2.031  12.697  19.267  0.00  0.00    +0.000 A 
ATOM     30  C   UNL     1       1.168  11.618  18.993  0.00  0.00    +0.000 A 
ENDBRANCH  18  20
ENDBRANCH   5  18
BRANCH   3  31
ATOM     31  C   UNL     1       1.898   4.229  18.284  0.00  0.00    +0.000 C 
BRANCH  31  32
ATOM     32  N   UNL     1       2.660   3.453  19.268  0.00  0.00    +0.000 NA
ATOM     33  C   UNL     1       2.002   2.242  19.762  0.00  0.00    +0.000 C 
ATOM     34  C   UNL     1       1.263   2.675  21.013  0.00  0.00    +0.000 C 
ATOM     35  C   UNL     1       2.123   3.797  21.578  0.00  0.00    +0.000 C 
ATOM     36  C   UNL     1       3.064   4.210  20.449  0.00  0.00    +0.000 C 
ENDBRANCH  31  32
ENDBRANCH   3  31
TORSDOF 7
ENDMDL
MODEL 8
REMARK VINA RESULT:      -7.8      4.012      9.899
REMARK  Name = 
REMARK  7 active torsions:
REMARK  status: ('A' for Active; 'I' for Inactive)
REMARK    1  A    between atoms: C_2  and  C_3
REMARK    2  A    between atoms: C_3  and  N_4
REMARK    3  A    between atoms: N_10  and  C_11
REMARK    4  A    between atoms: C_13  and  C_14
REMARK    5  A    between atoms: C_14  and  N_15
REMARK    6  A    between atoms: C_21  and  N_22
REMARK    7  A    between atoms: N_22  and  C_23
REMARK                            x       y       z     vdW  Elec       q    Type
REMARK                         _______ _______ _______ _____ _____    ______ ____
ROOT
ATOM      1  C   UNL     1       0.522  11.091  20.352  0.00  0.00    +0.000 A 
ATOM      2  C   UNL     1      -0.454  11.423  19.421  0.00  0.00    +0.000 A 
ATOM      3  C   UNL     1      -0.575  10.661  18.238  0.00  0.00    +0.000 A 
ATOM      4  C   UNL     1       0.259   9.526  18.038  0.00  0.00    +0.000 A 
ATOM      5  C   UNL     1       1.129   9.095  19.052  0.00  0.00    +0.000 A 
ATOM      6  C   UNL     1       1.232   9.897  20.208  0.00  0.00    +0.000 A 
ENDROOT
BRANCH   1   9
ATOM      7  O   UNL     1       1.397  14.111  22.024  0.00  0.00    +0.000 OA
ATOM      8  C   UNL     1       1.331  13.305  21.087  0.00  0.00    +0.000 C 
ATOM      9  N   UNL     1       0.844  12.037  21.344  0.00  0.00    +0.000 N 
ATOM     10  H   UNL     1       0.278  12.050  22.182  0.00  0.00    +0.000 HD
BRANCH   8  11
ATOM     11  C   UNL     1       1.707  13.736  19.654  0.00  0.00    +0.000 C 
BRANCH  11  12
ATOM     12  N   UNL     1       1.300  15.132  19.372  0.00  0.00    +0.000 NA
ATOM     13  C   UNL     1       2.257  15.836  18.511  0.00  0.00    +0.000 C 
ATOM     14  C   UNL     1       1.870  17.309  18.345  0.00  0.00    +0.000 C 
ATOM     15  C   UNL     1       0.444  17.457  17.831  0.00  0.00    +0.000 C 
ATOM     16  C   UNL     1      -0.518  16.653  18.696  0.00  0.00    +0.000 C 
ATOM     17  C   UNL     1      -0.061  15.199  18.831  0.00  0.00    +0.000 C 
ENDBRANCH  11  12
ENDBRANCH   8  11
ENDBRANCH   1   9
BRANCH   5  18
ATOM     18  N   UNL     1       2.200   8.144  18.909  0.00  0.00    +0.000 N 
ATOM     19  H   UNL     1       2.882   8.821  18.525  0.00  0.00    +0.000 HD
BRANCH  18  20
ATOM     20  C   UNL     1       2.531   6.965  18.048  0.00  0.00    +0.000 A 
ATOM     21  C   UNL     1       1.642   5.945  18.386  0.00  0.00    +0.000 A 
ATOM     22  C   UNL     1       2.065   5.189  19.465  0.00  0.00    +0.000 A 
ATOM     23  N   UNL     1       3.348   5.198  19.906  0.00  0.00    +0.000 NA
ATOM     24  C   UNL     1       4.257   5.709  19.054  0.00  0.00    +0.000 A 
ATOM     25  C   UNL     1       5.576   5.296  19.094  0.00  0.00    +0.000 A 
ATOM     26  C   UNL     1       6.357   5.354  17.939  0.00  0.00    +0.000 A 
ATOM     27 CL   UNL     1       7.962   4.735  17.963  0.00  0.00    +0.000 Cl
ATOM     28  C   UNL     1       5.816   5.821  16.746  0.00  0.00    +0.000 A 
ATOM     29  C   UNL     1       4.558   6.422  16.766  0.00  0.00    +0.000 A 
ATOM     30  C   UNL     1       3.833   6.486  17.973  0.00  0.00    +0.000 A 
ENDBRANCH  18  20
ENDBRANCH   5  18
BRANCH   3  31
ATOM     31  C   UNL     1      -1.533  11.192  17.181  0.00  0.00    +0.000 C 
BRANCH  31  32
ATOM     32  N   UNL     1      -2.650  10.342  16.756  0.00  0.00    +0.000 NA
ATOM     33  C   UNL     1      -3.578  10.952  15.801  0.00  0.00    +0.000 C 
ATOM     34  C   UNL     1      -4.669  11.572  16.650  0.00  0.00    +0.000 C 
ATOM     35  C   UNL     1      -4.748  10.663  17.869  0.00  0.00    +0.000 C 
ATOM     36  C   UNL     1      -3.469   9.831  17.852  0.00  0.00    +0.000 C 
ENDBRANCH  31  32
ENDBRANCH   3  31
TORSDOF 7
ENDMDL
MODEL 9
REMARK VINA RESULT:      -7.8      4.017      9.818
REMARK  Name = 
REMARK  7 active torsions:
REMARK  status: ('A' for Active; 'I' for Inactive)
REMARK    1  A    between atoms: C_2  and  C_3
REMARK    2  A    between atoms: C_3  and  N_4
REMARK    3  A    between atoms: N_10  and  C_11
REMARK    4  A    between atoms: C_13  and  C_14
REMARK    5  A    between atoms: C_14  and  N_15
REMARK    6  A    between atoms: C_21  and  N_22
REMARK    7  A    between atoms: N_22  and  C_23
REMARK                            x       y       z     vdW  Elec       q    Type
REMARK                         _______ _______ _______ _____ _____    ______ ____
ROOT
ATOM      1  C   UNL     1      -0.247  10.365  18.288  0.00  0.00    +0.000 A 
ATOM      2  C   UNL     1      -0.527  11.076  19.448  0.00  0.00    +0.000 A 
ATOM      3  C   UNL     1       0.068  10.681  20.667  0.00  0.00    +0.000 A 
ATOM      4  C   UNL     1       0.994   9.602  20.685  0.00  0.00    +0.000 A 
ATOM      5  C   UNL     1       1.402   8.992  19.488  0.00  0.00    +0.000 A 
ATOM      6  C   UNL     1       0.767   9.405  18.297  0.00  0.00    +0.000 A 
ENDROOT
BRANCH   1   9
ATOM      7  O   UNL     1      -2.996  11.246  16.203  0.00  0.00    +0.000 OA
ATOM      8  C   UNL     1      -2.415  10.924  17.247  0.00  0.00    +0.000 C 
ATOM      9  N   UNL     1      -1.084  10.556  17.172  0.00  0.00    +0.000 N 
ATOM     10  H   UNL     1      -0.669  10.940  16.333  0.00  0.00    +0.000 HD
BRANCH   8  11
ATOM     11  C   UNL     1      -3.139  11.011  18.606  0.00  0.00    +0.000 C 
BRANCH  11  12
ATOM     12  N   UNL     1      -4.450  11.692  18.491  0.00  0.00    +0.000 NA
ATOM     13  C   UNL     1      -5.560  10.753  18.293  0.00  0.00    +0.000 C 
ATOM     14  C   UNL     1      -6.876  11.497  18.053  0.00  0.00    +0.000 C 
ATOM     15  C   UNL     1      -7.174  12.483  19.176  0.00  0.00    +0.000 C 
ATOM     16  C   UNL     1      -5.977  13.394  19.413  0.00  0.00    +0.000 C 
ATOM     17  C   UNL     1      -4.696  12.584  19.628  0.00  0.00    +0.000 C 
ENDBRANCH  11  12
ENDBRANCH   8  11
ENDBRANCH   1   9
BRANCH   5  18
ATOM     18  N   UNL     1       2.115   7.748  19.364  0.00  0.00    +0.000 N 
ATOM     19  H   UNL     1       3.042   8.143  19.595  0.00  0.00    +0.000 HD
BRANCH  18  20
ATOM     20  C   UNL     1       2.524   6.808  18.273  0.00  0.00    +0.000 A 
ATOM     21  C   UNL     1       1.640   5.730  18.303  0.00  0.00    +0.000 A 
ATOM     22  C   UNL     1       2.013   4.744  19.200  0.00  0.00    +0.000 A 
ATOM     23  N   UNL     1       3.266   4.659  19.713  0.00  0.00    +0.000 NA
ATOM     24  C   UNL     1       4.214   5.363  19.066  0.00  0.00    +0.000 A 
ATOM     25  C   UNL     1       5.536   4.962  19.094  0.00  0.00    +0.000 A 
ATOM     26  C   UNL     1       6.386   5.297  18.038  0.00  0.00    +0.000 A 
ATOM     27 CL   UNL     1       8.000   4.702  18.020  0.00  0.00    +0.000 Cl
ATOM     28  C   UNL     1       5.908   6.028  16.955  0.00  0.00    +0.000 A 
ATOM     29  C   UNL     1       4.638   6.598  17.035  0.00  0.00    +0.000 A 
ATOM     30  C   UNL     1       3.839   6.370  18.172  0.00  0.00    +0.000 A 
ENDBRANCH  18  20
ENDBRANCH   5  18
BRANCH   3  31
ATOM     31  C   UNL     1      -0.427  11.381  21.924  0.00  0.00    +0.000 C 
BRANCH  31  32
ATOM     32  N   UNL     1      -1.429  12.443  21.787  0.00  0.00    +0.000 NA
ATOM     33  C   UNL     1      -0.937  13.806  22.001  0.00  0.00    +0.000 C 
ATOM     34  C   UNL     1      -1.171  14.085  23.472  0.00  0.00    +0.000 C 
ATOM     35  C   UNL     1      -2.417  13.275  23.806  0.00  0.00    +0.000 C 
ATOM     36  C   UNL     1      -2.593  12.288  22.655  0.00  0.00    +0.000 C 
ENDBRANCH  31  32
ENDBRANCH   3  31
TORSDOF 7
ENDMDL
