MODEL 1
REMARK VINA RESULT:      -7.4      0.000      0.000
REMARK  Name = 
REMARK  1 active torsions:
REMARK  status: ('A' for Active; 'I' for Inactive)
REMARK    1  A    between atoms: C_1  and  C_2
REMARK                            x       y       z     vdW  Elec       q    Type
REMARK                         _______ _______ _______ _____ _____    ______ ____
ROOT
ATOM      1  C   UNL     1       6.386   3.930  14.782  0.00  0.00    +0.000 C 
ATOM      2  C   UNL     1       5.382   4.643  15.684  0.00  0.00    +0.000 C 
ATOM      3  C   UNL     1       6.064   5.908  16.179  0.00  0.00    +0.000 C 
ATOM      4  O   UNL     1       7.277   6.078  16.267  0.00  0.00    +0.000 OA
ATOM      5  C   UNL     1       5.115   6.922  16.708  0.00  0.00    +0.000 C 
ATOM      6  C   UNL     1       4.716   6.315  17.837  0.00  0.00    +0.000 C 
ATOM      7  N   UNL     1       4.206   5.009  17.867  0.00  0.00    +0.000 N 
ATOM      8  C   UNL     1       3.226   4.681  18.825  0.00  0.00    +0.000 A 
ATOM      9  C   UNL     1       2.877   5.608  19.837  0.00  0.00    +0.000 A 
ATOM     10  C   UNL     1       1.795   5.414  20.690  0.00  0.00    +0.000 A 
ATOM     11  C   UNL     1       1.031   4.268  20.560  0.00  0.00    +0.000 A 
ATOM     12  C   UNL     1       1.392   3.301  19.613  0.00  0.00    +0.000 A 
ATOM     13  C   UNL     1       2.479   3.502  18.748  0.00  0.00    +0.000 A 
ATOM     14  C   UNL     1       2.877   2.411  17.781  0.00  0.00    +0.000 C 
ATOM     15  C   UNL     1       3.666   2.935  16.575  0.00  0.00    +0.000 C 
ATOM     16  C   UNL     1       4.760   3.946  16.956  0.00  0.00    +0.000 C 
ENDROOT
TORSDOF 0
ENDMDL
MODEL 2
REMARK VINA RESULT:      -7.4      2.154      5.514
REMARK  Name = 
REMARK  1 active torsions:
REMARK  status: ('A' for Active; 'I' for Inactive)
REMARK    1  A    between atoms: C_1  and  C_2
REMARK                            x       y       z     vdW  Elec       q    Type
REMARK                         _______ _______ _______ _____ _____    ______ ____
ROOT
ATOM      1  C   UNL     1       1.082   4.745  20.598  0.00  0.00    +0.000 C 
ATOM      2  C   UNL     1       1.725   4.285  19.292  0.00  0.00    +0.000 C 
ATOM      3  C   UNL     1       1.947   2.787  19.420  0.00  0.00    +0.000 C 
ATOM      4  O   UNL     1       2.067   2.170  20.475  0.00  0.00    +0.000 OA
ATOM      5  C   UNL     1       2.160   2.108  18.115  0.00  0.00    +0.000 C 
ATOM      6  C   UNL     1       3.374   2.581  17.791  0.00  0.00    +0.000 C 
ATOM      7  N   UNL     1       3.682   3.949  17.761  0.00  0.00    +0.000 N 
ATOM      8  C   UNL     1       4.627   4.416  16.827  0.00  0.00    +0.000 A 
ATOM      9  C   UNL     1       5.366   3.499  16.040  0.00  0.00    +0.000 A 
ATOM     10  C   UNL     1       6.172   3.903  14.980  0.00  0.00    +0.000 A 
ATOM     11  C   UNL     1       6.271   5.251  14.682  0.00  0.00    +0.000 A 
ATOM     12  C   UNL     1       5.605   6.185  15.484  0.00  0.00    +0.000 A 
ATOM     13  C   UNL     1       4.786   5.777  16.549  0.00  0.00    +0.000 A 
ATOM     14  C   UNL     1       4.132   6.814  17.431  0.00  0.00    +0.000 C 
ATOM     15  C   UNL     1       2.888   6.289  18.157  0.00  0.00    +0.000 C 
ATOM     16  C   UNL     1       3.085   4.893  18.771  0.00  0.00    +0.000 C 
ENDROOT
TORSDOF 0
ENDMDL
MODEL 3
REMARK VINA RESULT:      -7.3      2.760      5.375
REMARK  Name = 
REMARK  1 active torsions:
REMARK  status: ('A' for Active; 'I' for Inactive)
REMARK    1  A    between atoms: C_1  and  C_2
REMARK                            x       y       z     vdW  Elec       q    Type
REMARK                         _______ _______ _______ _____ _____    ______ ____
ROOT
ATOM      1  C   UNL     1       0.689   3.687  20.357  0.00  0.00    +0.000 C 
ATOM      2  C   UNL     1       2.093   3.622  19.760  0.00  0.00    +0.000 C 
ATOM      3  C   UNL     1       2.921   2.751  20.691  0.00  0.00    +0.000 C 
ATOM      4  O   UNL     1       2.694   2.562  21.882  0.00  0.00    +0.000 OA
ATOM      5  C   UNL     1       4.164   2.232  20.063  0.00  0.00    +0.000 C 
ATOM      6  C   UNL     1       4.880   3.364  19.969  0.00  0.00    +0.000 C 
ATOM      7  N   UNL     1       4.395   4.530  19.358  0.00  0.00    +0.000 N 
ATOM      8  C   UNL     1       5.300   5.379  18.691  0.00  0.00    +0.000 A 
ATOM      9  C   UNL     1       6.694   5.139  18.771  0.00  0.00    +0.000 A 
ATOM     10  C   UNL     1       7.617   5.828  17.989  0.00  0.00    +0.000 A 
ATOM     11  C   UNL     1       7.167   6.793  17.105  0.00  0.00    +0.000 A 
ATOM     12  C   UNL     1       5.802   7.098  17.054  0.00  0.00    +0.000 A 
ATOM     13  C   UNL     1       4.870   6.398  17.836  0.00  0.00    +0.000 A 
ATOM     14  C   UNL     1       3.413   6.795  17.801  0.00  0.00    +0.000 C 
ATOM     15  C   UNL     1       2.470   5.666  18.231  0.00  0.00    +0.000 C 
ATOM     16  C   UNL     1       2.947   4.921  19.489  0.00  0.00    +0.000 C 
ENDROOT
TORSDOF 0
ENDMDL
MODEL 4
REMARK VINA RESULT:      -7.2      2.353      5.472
REMARK  Name = 
REMARK  1 active torsions:
REMARK  status: ('A' for Active; 'I' for Inactive)
REMARK    1  A    between atoms: C_1  and  C_2
REMARK                            x       y       z     vdW  Elec       q    Type
REMARK                         _______ _______ _______ _____ _____    ______ ____
ROOT
ATOM      1  C   UNL     1       2.207   4.039  21.297  0.00  0.00    +0.000 C 
ATOM      2  C   UNL     1       2.527   4.292  19.826  0.00  0.00    +0.000 C 
ATOM      3  C   UNL     1       1.587   3.412  19.019  0.00  0.00    +0.000 C 
ATOM      4  O   UNL     1       1.058   2.378  19.417  0.00  0.00    +0.000 OA
ATOM      5  C   UNL     1       1.457   3.833  17.599  0.00  0.00    +0.000 C 
ATOM      6  C   UNL     1       2.674   3.503  17.136  0.00  0.00    +0.000 C 
ATOM      7  N   UNL     1       3.865   3.936  17.736  0.00  0.00    +0.000 N 
ATOM      8  C   UNL     1       4.994   4.167  16.925  0.00  0.00    +0.000 A 
ATOM      9  C   UNL     1       4.968   3.822  15.552  0.00  0.00    +0.000 A 
ATOM     10  C   UNL     1       5.977   4.194  14.667  0.00  0.00    +0.000 A 
ATOM     11  C   UNL     1       7.055   4.921  15.141  0.00  0.00    +0.000 A 
ATOM     12  C   UNL     1       7.140   5.220  16.506  0.00  0.00    +0.000 A 
ATOM     13  C   UNL     1       6.119   4.851  17.396  0.00  0.00    +0.000 A 
ATOM     14  C   UNL     1       6.273   5.135  18.872  0.00  0.00    +0.000 C 
ATOM     15  C   UNL     1       4.934   5.198  19.615  0.00  0.00    +0.000 C 
ATOM     16  C   UNL     1       3.971   4.061  19.233  0.00  0.00    +0.000 C 
ENDROOT
TORSDOF 0
ENDMDL
MODEL 5
REMARK VINA RESULT:      -7.2      1.519      1.666
REMARK  Name = 
REMARK  1 active torsions:
REMARK  status: ('A' for Active; 'I' for Inactive)
REMARK    1  A    between atoms: C_1  and  C_2
REMARK                            x       y       z     vdW  Elec       q    Type
REMARK                         _______ _______ _______ _____ _____    ______ ____
ROOT
ATOM      1  C   UNL     1       6.404   4.522  15.225  0.00  0.00    +0.000 C 
ATOM      2  C   UNL     1       5.734   4.740  16.580  0.00  0.00    +0.000 C 
ATOM      3  C   UNL     1       6.850   4.852  17.604  0.00  0.00    +0.000 C 
ATOM      4  O   UNL     1       7.977   4.381  17.487  0.00  0.00    +0.000 OA
ATOM      5  C   UNL     1       6.419   5.480  18.881  0.00  0.00    +0.000 C 
ATOM      6  C   UNL     1       5.633   4.511  19.375  0.00  0.00    +0.000 C 
ATOM      7  N   UNL     1       4.575   3.938  18.654  0.00  0.00    +0.000 N 
ATOM      8  C   UNL     1       3.434   3.495  19.351  0.00  0.00    +0.000 A 
ATOM      9  C   UNL     1       3.421   3.486  20.767  0.00  0.00    +0.000 A 
ATOM     10  C   UNL     1       2.267   3.237  21.504  0.00  0.00    +0.000 A 
ATOM     11  C   UNL     1       1.083   2.977  20.836  0.00  0.00    +0.000 A 
ATOM     12  C   UNL     1       1.079   2.912  19.437  0.00  0.00    +0.000 A 
ATOM     13  C   UNL     1       2.242   3.172  18.695  0.00  0.00    +0.000 A 
ATOM     14  C   UNL     1       2.217   3.033  17.191  0.00  0.00    +0.000 C 
ATOM     15  C   UNL     1       3.315   3.843  16.493  0.00  0.00    +0.000 C 
ATOM     16  C   UNL     1       4.690   3.713  17.169  0.00  0.00    +0.000 C 
ENDROOT
TORSDOF 0
ENDMDL
MODEL 6
REMARK VINA RESULT:      -7.1      1.642      2.184
REMARK  Name = 
REMARK  1 active torsions:
REMARK  status: ('A' for Active; 'I' for Inactive)
REMARK    1  A    between atoms: C_1  and  C_2
REMARK                            x       y       z     vdW  Elec       q    Type
REMARK                         _______ _______ _______ _____ _____    ______ ____
ROOT
ATOM      1  C   UNL     1       5.210   6.517  15.622  0.00  0.00    +0.000 C 
ATOM      2  C   UNL     1       5.010   6.029  17.055  0.00  0.00    +0.000 C 
ATOM      3  C   UNL     1       6.339   5.447  17.506  0.00  0.00    +0.000 C 
ATOM      4  O   UNL     1       7.212   5.002  16.767  0.00  0.00    +0.000 OA
ATOM      5  C   UNL     1       6.457   5.319  18.982  0.00  0.00    +0.000 C 
ATOM      6  C   UNL     1       5.583   4.325  19.210  0.00  0.00    +0.000 C 
ATOM      7  N   UNL     1       4.255   4.353  18.760  0.00  0.00    +0.000 N 
ATOM      8  C   UNL     1       3.259   3.723  19.532  0.00  0.00    +0.000 A 
ATOM      9  C   UNL     1       3.616   2.945  20.660  0.00  0.00    +0.000 A 
ATOM     10  C   UNL     1       2.674   2.457  21.561  0.00  0.00    +0.000 A 
ATOM     11  C   UNL     1       1.333   2.728  21.349  0.00  0.00    +0.000 A 
ATOM     12  C   UNL     1       0.945   3.437  20.206  0.00  0.00    +0.000 A 
ATOM     13  C   UNL     1       1.897   3.936  19.302  0.00  0.00    +0.000 A 
ATOM     14  C   UNL     1       1.439   4.644  18.048  0.00  0.00    +0.000 C 
ATOM     15  C   UNL     1       2.501   5.583  17.465  0.00  0.00    +0.000 C 
ATOM     16  C   UNL     1       3.908   4.962  17.427  0.00  0.00    +0.000 C 
ENDROOT
TORSDOF 0
ENDMDL
MODEL 7
REMARK VINA RESULT:      -6.9      1.088      2.736
REMARK  Name = 
REMARK  1 active torsions:
REMARK  status: ('A' for Active; 'I' for Inactive)
REMARK    1  A    between atoms: C_1  and  C_2
REMARK                            x       y       z     vdW  Elec       q    Type
REMARK                         _______ _______ _______ _____ _____    ______ ____
ROOT
ATOM      1  C   UNL     1       6.571   7.329  17.115  0.00  0.00    +0.000 C 
ATOM      2  C   UNL     1       5.851   6.006  17.363  0.00  0.00    +0.000 C 
ATOM      3  C   UNL     1       5.912   5.227  16.060  0.00  0.00    +0.000 C 
ATOM      4  O   UNL     1       6.042   5.715  14.941  0.00  0.00    +0.000 OA
ATOM      5  C   UNL     1       5.650   3.773  16.229  0.00  0.00    +0.000 C 
ATOM      6  C   UNL     1       4.340   3.796  16.523  0.00  0.00    +0.000 C 
ATOM      7  N   UNL     1       3.798   4.580  17.551  0.00  0.00    +0.000 N 
ATOM      8  C   UNL     1       2.671   4.106  18.250  0.00  0.00    +0.000 A 
ATOM      9  C   UNL     1       2.005   2.932  17.819  0.00  0.00    +0.000 A 
ATOM     10  C   UNL     1       1.008   2.318  18.571  0.00  0.00    +0.000 A 
ATOM     11  C   UNL     1       0.638   2.873  19.784  0.00  0.00    +0.000 A 
ATOM     12  C   UNL     1       1.231   4.070  20.204  0.00  0.00    +0.000 A 
ATOM     13  C   UNL     1       2.242   4.685  19.449  0.00  0.00    +0.000 A 
ATOM     14  C   UNL     1       2.817   6.007  19.901  0.00  0.00    +0.000 C 
ATOM     15  C   UNL     1       4.218   6.278  19.342  0.00  0.00    +0.000 C 
ATOM     16  C   UNL     1       4.350   5.950  17.845  0.00  0.00    +0.000 C 
ENDROOT
TORSDOF 0
ENDMDL
MODEL 8
REMARK VINA RESULT:      -6.6      1.302      2.957
REMARK  Name = 
REMARK  1 active torsions:
REMARK  status: ('A' for Active; 'I' for Inactive)
REMARK    1  A    between atoms: C_1  and  C_2
REMARK                            x       y       z     vdW  Elec       q    Type
REMARK                         _______ _______ _______ _____ _____    ______ ____
ROOT
ATOM      1  C   UNL     1       7.044   8.043  17.105  0.00  0.00    +0.000 C 
ATOM      2  C   UNL     1       6.487   6.662  17.442  0.00  0.00    +0.000 C 
ATOM      3  C   UNL     1       7.208   5.672  16.543  0.00  0.00    +0.000 C 
ATOM      4  O   UNL     1       7.729   5.935  15.463  0.00  0.00    +0.000 OA
ATOM      5  C   UNL     1       7.112   4.266  17.017  0.00  0.00    +0.000 C 
ATOM      6  C   UNL     1       5.813   4.019  16.782  0.00  0.00    +0.000 C 
ATOM      7  N   UNL     1       4.778   4.837  17.259  0.00  0.00    +0.000 N 
ATOM      8  C   UNL     1       3.542   4.250  17.594  0.00  0.00    +0.000 A 
ATOM      9  C   UNL     1       3.300   2.884  17.308  0.00  0.00    +0.000 A 
ATOM     10  C   UNL     1       2.179   2.208  17.779  0.00  0.00    +0.000 A 
ATOM     11  C   UNL     1       1.253   2.890  18.548  0.00  0.00    +0.000 A 
ATOM     12  C   UNL     1       1.431   4.258  18.791  0.00  0.00    +0.000 A 
ATOM     13  C   UNL     1       2.567   4.937  18.322  0.00  0.00    +0.000 A 
ATOM     14  C   UNL     1       2.696   6.425  18.549  0.00  0.00    +0.000 C 
ATOM     15  C   UNL     1       4.147   6.917  18.499  0.00  0.00    +0.000 C 
ATOM     16  C   UNL     1       4.948   6.332  17.325  0.00  0.00    +0.000 C 
ENDROOT
TORSDOF 0
ENDMDL
MODEL 9
REMARK VINA RESULT:      -6.4      2.698      5.158
REMARK  Name = 
REMARK  1 active torsions:
REMARK  status: ('A' for Active; 'I' for Inactive)
REMARK    1  A    between atoms: C_1  and  C_2
REMARK                            x       y       z     vdW  Elec       q    Type
REMARK                         _______ _______ _______ _____ _____    ______ ____
ROOT
ATOM      1  C   UNL     1       0.973   3.258  18.532  0.00  0.00    +0.000 C 
ATOM      2  C   UNL     1       2.497   3.347  18.558  0.00  0.00    +0.000 C 
ATOM      3  C   UNL     1       2.956   2.593  19.795  0.00  0.00    +0.000 C 
ATOM      4  O   UNL     1       2.283   2.396  20.803  0.00  0.00    +0.000 OA
ATOM      5  C   UNL     1       4.392   2.213  19.756  0.00  0.00    +0.000 C 
ATOM      6  C   UNL     1       4.966   3.420  19.890  0.00  0.00    +0.000 C 
ATOM      7  N   UNL     1       4.658   4.511  19.066  0.00  0.00    +0.000 N 
ATOM      8  C   UNL     1       5.667   5.450  18.771  0.00  0.00    +0.000 A 
ATOM      9  C   UNL     1       6.923   5.376  19.420  0.00  0.00    +0.000 A 
ATOM     10  C   UNL     1       8.011   6.156  19.038  0.00  0.00    +0.000 A 
ATOM     11  C   UNL     1       7.866   7.049  17.991  0.00  0.00    +0.000 A 
ATOM     12  C   UNL     1       6.617   7.192  17.374  0.00  0.00    +0.000 A 
ATOM     13  C   UNL     1       5.523   6.400  17.755  0.00  0.00    +0.000 A 
ATOM     14  C   UNL     1       4.175   6.624  17.110  0.00  0.00    +0.000 C 
ATOM     15  C   UNL     1       3.258   5.399  17.191  0.00  0.00    +0.000 C 
ATOM     16  C   UNL     1       3.252   4.733  18.577  0.00  0.00    +0.000 C 
ENDROOT
TORSDOF 0
ENDMDL
