MODEL 1
REMARK VINA RESULT:      -8.8      0.000      0.000
REMARK  Name = 
REMARK  6 active torsions:
REMARK  status: ('A' for Active; 'I' for Inactive)
REMARK    1  A    between atoms: C_2  and  C_5
REMARK    2  A    between atoms: C_8  and  C_9
REMARK    3  A    between atoms: C_9  and  N_10
REMARK    4  A    between atoms: C_12  and  C_13
REMARK    5  A    between atoms: C_13  and  N_14
REMARK    6  A    between atoms: N_14  and  C_15
REMARK                            x       y       z     vdW  Elec       q    Type
REMARK                         _______ _______ _______ _____ _____    ______ ____
ROOT
ATOM      1  N   UNL     1       3.856   5.946  18.923  0.00  0.00    +0.000 N 
ATOM      2  C   UNL     1       3.428   5.894  17.544  0.00  0.00    +0.000 A 
ATOM      3  C   UNL     1       3.981   4.685  17.190  0.00  0.00    +0.000 A 
ATOM      4  C   UNL     1       5.313   4.940  17.424  0.00  0.00    +0.000 A 
ATOM      5  C   UNL     1       6.429   4.390  16.750  0.00  0.00    +0.000 A 
ATOM      6  C   UNL     1       7.703   4.469  17.242  0.00  0.00    +0.000 A 
ATOM      7  C   UNL     1       7.784   5.089  18.473  0.00  0.00    +0.000 A 
ATOM      8  C   UNL     1       6.622   5.589  19.275  0.00  0.00    +0.000 A 
ATOM      9  C   UNL     1       5.288   5.556  18.736  0.00  0.00    +0.000 A 
ENDROOT
BRANCH   1  10
ATOM     10  C   UNL     1       2.615   6.293  19.859  0.00  0.00    +0.000 C 
BRANCH  10  14
ATOM     11  C   UNL     1       0.108  10.103  20.176  0.00  0.00    +0.000 A 
ATOM     12  C   UNL     1       0.221   9.157  21.220  0.00  0.00    +0.000 A 
ATOM     13  C   UNL     1       1.123   8.031  21.120  0.00  0.00    +0.000 A 
ATOM     14  C   UNL     1       1.866   7.687  19.974  0.00  0.00    +0.000 A 
ATOM     15  C   UNL     1       1.760   8.701  18.951  0.00  0.00    +0.000 A 
ATOM     16  C   UNL     1       0.918   9.871  19.043  0.00  0.00    +0.000 A 
BRANCH  11  18
ATOM     17  F   UNL     1      -1.307  11.568  21.502  0.00  0.00    +0.000 F 
ATOM     18  C   UNL     1      -0.847  11.301  20.242  0.00  0.00    +0.000 C 
ATOM     19  F   UNL     1      -1.972  11.147  19.480  0.00  0.00    +0.000 F 
ATOM     20  F   UNL     1      -0.286  12.470  19.811  0.00  0.00    +0.000 F 
ENDBRANCH  11  18
ENDBRANCH  10  14
ENDBRANCH   1  10
BRANCH   3  21
ATOM     21  C   UNL     1       3.577   3.242  17.213  0.00  0.00    +0.000 C 
BRANCH  21  22
ATOM     22  N   UNL     1       4.040   2.541  18.404  0.00  0.00    +0.000 N 
ATOM     23  H   UNL     1       4.965   2.847  18.705  0.00  0.00    +0.000 HD
BRANCH  22  24
ATOM     24  C   UNL     1       3.143   2.569  19.464  0.00  0.00    +0.000 A 
ATOM     25  C   UNL     1       1.787   2.782  19.201  0.00  0.00    +0.000 A 
ATOM     26  C   UNL     1       0.904   2.868  20.271  0.00  0.00    +0.000 A 
ATOM     27  C   UNL     1       1.400   2.843  21.550  0.00  0.00    +0.000 A 
ATOM     28  N   UNL     1       2.704   2.644  21.851  0.00  0.00    +0.000 NA
ATOM     29  C   UNL     1       3.531   2.518  20.809  0.00  0.00    +0.000 A 
ENDBRANCH  22  24
ENDBRANCH  21  22
ENDBRANCH   3  21
TORSDOF 6
ENDMDL
MODEL 2
REMARK VINA RESULT:      -8.6      0.441      1.081
REMARK  Name = 
REMARK  6 active torsions:
REMARK  status: ('A' for Active; 'I' for Inactive)
REMARK    1  A    between atoms: C_2  and  C_5
REMARK    2  A    between atoms: C_8  and  C_9
REMARK    3  A    between atoms: C_9  and  N_10
REMARK    4  A    between atoms: C_12  and  C_13
REMARK    5  A    between atoms: C_13  and  N_14
REMARK    6  A    between atoms: N_14  and  C_15
REMARK                            x       y       z     vdW  Elec       q    Type
REMARK                         _______ _______ _______ _____ _____    ______ ____
ROOT
ATOM      1  N   UNL     1       3.871   5.926  18.985  0.00  0.00    +0.000 N 
ATOM      2  C   UNL     1       3.390   5.909  17.624  0.00  0.00    +0.000 A 
ATOM      3  C   UNL     1       3.929   4.711  17.217  0.00  0.00    +0.000 A 
ATOM      4  C   UNL     1       5.269   4.961  17.405  0.00  0.00    +0.000 A 
ATOM      5  C   UNL     1       6.357   4.431  16.673  0.00  0.00    +0.000 A 
ATOM      6  C   UNL     1       7.650   4.499  17.116  0.00  0.00    +0.000 A 
ATOM      7  C   UNL     1       7.779   5.088  18.358  0.00  0.00    +0.000 A 
ATOM      8  C   UNL     1       6.650   5.564  19.218  0.00  0.00    +0.000 A 
ATOM      9  C   UNL     1       5.296   5.543  18.732  0.00  0.00    +0.000 A 
ENDROOT
BRANCH   1  10
ATOM     10  C   UNL     1       2.668   6.246  19.979  0.00  0.00    +0.000 C 
BRANCH  10  14
ATOM     11  C   UNL     1       0.565  10.301  20.169  0.00  0.00    +0.000 A 
ATOM     12  C   UNL     1       1.226   9.821  19.015  0.00  0.00    +0.000 A 
ATOM     13  C   UNL     1       1.769   8.481  18.963  0.00  0.00    +0.000 A 
ATOM     14  C   UNL     1       1.817   7.583  20.047  0.00  0.00    +0.000 A 
ATOM     15  C   UNL     1       1.092   8.092  21.188  0.00  0.00    +0.000 A 
ATOM     16  C   UNL     1       0.482   9.400  21.252  0.00  0.00    +0.000 A 
BRANCH  11  18
ATOM     17  F   UNL     1      -1.304  11.757  20.707  0.00  0.00    +0.000 F 
ATOM     18  C   UNL     1      -0.011  11.719  20.265  0.00  0.00    +0.000 C 
ATOM     19  F   UNL     1      -0.026  12.385  19.070  0.00  0.00    +0.000 F 
ATOM     20  F   UNL     1       0.682  12.533  21.115  0.00  0.00    +0.000 F 
ENDBRANCH  11  18
ENDBRANCH  10  14
ENDBRANCH   1  10
BRANCH   3  21
ATOM     21  C   UNL     1       3.527   3.267  17.218  0.00  0.00    +0.000 C 
BRANCH  21  22
ATOM     22  N   UNL     1       3.999   2.546  18.393  0.00  0.00    +0.000 N 
ATOM     23  H   UNL     1       4.929   2.844  18.689  0.00  0.00    +0.000 HD
BRANCH  22  24
ATOM     24  C   UNL     1       3.113   2.562  19.463  0.00  0.00    +0.000 A 
ATOM     25  C   UNL     1       1.755   2.780  19.217  0.00  0.00    +0.000 A 
ATOM     26  C   UNL     1       0.884   2.854  20.298  0.00  0.00    +0.000 A 
ATOM     27  C   UNL     1       1.394   2.813  21.571  0.00  0.00    +0.000 A 
ATOM     28  N   UNL     1       2.700   2.608  21.855  0.00  0.00    +0.000 NA
ATOM     29  C   UNL     1       3.516   2.494  20.803  0.00  0.00    +0.000 A 
ENDBRANCH  22  24
ENDBRANCH  21  22
ENDBRANCH   3  21
TORSDOF 6
ENDMDL
MODEL 3
REMARK VINA RESULT:      -8.6      1.040      1.618
REMARK  Name = 
REMARK  6 active torsions:
REMARK  status: ('A' for Active; 'I' for Inactive)
REMARK    1  A    between atoms: C_2  and  C_5
REMARK    2  A    between atoms: C_8  and  C_9
REMARK    3  A    between atoms: C_9  and  N_10
REMARK    4  A    between atoms: C_12  and  C_13
REMARK    5  A    between atoms: C_13  and  N_14
REMARK    6  A    between atoms: N_14  and  C_15
REMARK                            x       y       z     vdW  Elec       q    Type
REMARK                         _______ _______ _______ _____ _____    ______ ____
ROOT
ATOM      1  N   UNL     1       3.943   5.566  18.231  0.00  0.00    +0.000 N 
ATOM      2  C   UNL     1       3.028   4.916  17.322  0.00  0.00    +0.000 A 
ATOM      3  C   UNL     1       3.793   3.824  16.986  0.00  0.00    +0.000 A 
ATOM      4  C   UNL     1       4.890   4.446  16.434  0.00  0.00    +0.000 A 
ATOM      5  C   UNL     1       5.731   3.961  15.405  0.00  0.00    +0.000 A 
ATOM      6  C   UNL     1       6.956   4.506  15.132  0.00  0.00    +0.000 A 
ATOM      7  C   UNL     1       7.307   5.534  15.984  0.00  0.00    +0.000 A 
ATOM      8  C   UNL     1       6.502   6.010  17.153  0.00  0.00    +0.000 A 
ATOM      9  C   UNL     1       5.190   5.476  17.409  0.00  0.00    +0.000 A 
ENDROOT
BRANCH   1  10
ATOM     10  C   UNL     1       3.188   5.936  19.584  0.00  0.00    +0.000 C 
BRANCH  10  14
ATOM     11  C   UNL     1       0.584   9.631  20.267  0.00  0.00    +0.000 A 
ATOM     12  C   UNL     1       1.286   9.385  19.065  0.00  0.00    +0.000 A 
ATOM     13  C   UNL     1       1.997   8.144  18.849  0.00  0.00    +0.000 A 
ATOM     14  C   UNL     1       2.172   7.133  19.815  0.00  0.00    +0.000 A 
ATOM     15  C   UNL     1       1.403   7.400  21.006  0.00  0.00    +0.000 A 
ATOM     16  C   UNL     1       0.631   8.600  21.230  0.00  0.00    +0.000 A 
BRANCH  11  18
ATOM     17  F   UNL     1       0.502  12.055  20.115  0.00  0.00    +0.000 F 
ATOM     18  C   UNL     1      -0.168  10.940  20.535  0.00  0.00    +0.000 C 
ATOM     19  F   UNL     1      -0.426  11.161  21.860  0.00  0.00    +0.000 F 
ATOM     20  F   UNL     1      -1.387  11.003  19.923  0.00  0.00    +0.000 F 
ENDBRANCH  11  18
ENDBRANCH  10  14
ENDBRANCH   1  10
BRANCH   3  21
ATOM     21  C   UNL     1       4.022   2.438  17.509  0.00  0.00    +0.000 C 
BRANCH  21  22
ATOM     22  N   UNL     1       2.805   1.810  18.005  0.00  0.00    +0.000 N 
ATOM     23  H   UNL     1       2.830   0.793  17.931  0.00  0.00    +0.000 HD
BRANCH  22  24
ATOM     24  C   UNL     1       2.446   2.201  19.288  0.00  0.00    +0.000 A 
ATOM     25  C   UNL     1       1.170   2.727  19.506  0.00  0.00    +0.000 A 
ATOM     26  C   UNL     1       0.839   3.172  20.781  0.00  0.00    +0.000 A 
ATOM     27  C   UNL     1       1.802   3.176  21.758  0.00  0.00    +0.000 A 
ATOM     28  N   UNL     1       3.051   2.682  21.590  0.00  0.00    +0.000 NA
ATOM     29  C   UNL     1       3.335   2.217  20.371  0.00  0.00    +0.000 A 
ENDBRANCH  22  24
ENDBRANCH  21  22
ENDBRANCH   3  21
TORSDOF 6
ENDMDL
MODEL 4
REMARK VINA RESULT:      -8.5      1.009      1.094
REMARK  Name = 
REMARK  6 active torsions:
REMARK  status: ('A' for Active; 'I' for Inactive)
REMARK    1  A    between atoms: C_2  and  C_5
REMARK    2  A    between atoms: C_8  and  C_9
REMARK    3  A    between atoms: C_9  and  N_10
REMARK    4  A    between atoms: C_12  and  C_13
REMARK    5  A    between atoms: C_13  and  N_14
REMARK    6  A    between atoms: N_14  and  C_15
REMARK                            x       y       z     vdW  Elec       q    Type
REMARK                         _______ _______ _______ _____ _____    ______ ____
ROOT
ATOM      1  N   UNL     1       3.780   5.551  18.166  0.00  0.00    +0.000 N 
ATOM      2  C   UNL     1       2.949   4.785  17.266  0.00  0.00    +0.000 A 
ATOM      3  C   UNL     1       3.796   3.728  17.034  0.00  0.00    +0.000 A 
ATOM      4  C   UNL     1       4.874   4.385  16.485  0.00  0.00    +0.000 A 
ATOM      5  C   UNL     1       5.789   3.893  15.525  0.00  0.00    +0.000 A 
ATOM      6  C   UNL     1       6.988   4.499  15.265  0.00  0.00    +0.000 A 
ATOM      7  C   UNL     1       7.234   5.601  16.061  0.00  0.00    +0.000 A 
ATOM      8  C   UNL     1       6.349   6.095  17.163  0.00  0.00    +0.000 A 
ATOM      9  C   UNL     1       5.065   5.492  17.401  0.00  0.00    +0.000 A 
ENDROOT
BRANCH   1  10
ATOM     10  C   UNL     1       2.944   5.955  19.460  0.00  0.00    +0.000 C 
BRANCH  10  14
ATOM     11  C   UNL     1       0.441   9.702  20.232  0.00  0.00    +0.000 A 
ATOM     12  C   UNL     1       0.681   8.711  21.212  0.00  0.00    +0.000 A 
ATOM     13  C   UNL     1       1.580   7.606  20.960  0.00  0.00    +0.000 A 
ATOM     14  C   UNL     1       2.195   7.329  19.723  0.00  0.00    +0.000 A 
ATOM     15  C   UNL     1       1.964   8.386  18.768  0.00  0.00    +0.000 A 
ATOM     16  C   UNL     1       1.123   9.537  19.008  0.00  0.00    +0.000 A 
BRANCH  11  18
ATOM     17  F   UNL     1      -1.161  10.837  21.665  0.00  0.00    +0.000 F 
ATOM     18  C   UNL     1      -0.515  10.879  20.460  0.00  0.00    +0.000 C 
ATOM     19  F   UNL     1      -1.512  10.963  19.528  0.00  0.00    +0.000 F 
ATOM     20  F   UNL     1       0.102  12.097  20.428  0.00  0.00    +0.000 F 
ENDBRANCH  11  18
ENDBRANCH  10  14
ENDBRANCH   1  10
BRANCH   3  21
ATOM     21  C   UNL     1       4.090   2.396  17.656  0.00  0.00    +0.000 C 
BRANCH  21  22
ATOM     22  N   UNL     1       2.894   1.717  18.138  0.00  0.00    +0.000 N 
ATOM     23  H   UNL     1       2.977   0.702  18.100  0.00  0.00    +0.000 HD
BRANCH  22  24
ATOM     24  C   UNL     1       2.475   2.131  19.395  0.00  0.00    +0.000 A 
ATOM     25  C   UNL     1       1.187   2.655  19.543  0.00  0.00    +0.000 A 
ATOM     26  C   UNL     1       0.796   3.122  20.793  0.00  0.00    +0.000 A 
ATOM     27  C   UNL     1       1.712   3.148  21.813  0.00  0.00    +0.000 A 
ATOM     28  N   UNL     1       2.969   2.656  21.714  0.00  0.00    +0.000 NA
ATOM     29  C   UNL     1       3.312   2.170  20.518  0.00  0.00    +0.000 A 
ENDBRANCH  22  24
ENDBRANCH  21  22
ENDBRANCH   3  21
TORSDOF 6
ENDMDL
MODEL 5
REMARK VINA RESULT:      -8.4      0.602      1.203
REMARK  Name = 
REMARK  6 active torsions:
REMARK  status: ('A' for Active; 'I' for Inactive)
REMARK    1  A    between atoms: C_2  and  C_5
REMARK    2  A    between atoms: C_8  and  C_9
REMARK    3  A    between atoms: C_9  and  N_10
REMARK    4  A    between atoms: C_12  and  C_13
REMARK    5  A    between atoms: C_13  and  N_14
REMARK    6  A    between atoms: N_14  and  C_15
REMARK                            x       y       z     vdW  Elec       q    Type
REMARK                         _______ _______ _______ _____ _____    ______ ____
ROOT
ATOM      1  N   UNL     1       3.918   5.956  18.820  0.00  0.00    +0.000 N 
ATOM      2  C   UNL     1       3.549   5.975  17.424  0.00  0.00    +0.000 A 
ATOM      3  C   UNL     1       4.096   4.774  17.038  0.00  0.00    +0.000 A 
ATOM      4  C   UNL     1       5.421   4.992  17.339  0.00  0.00    +0.000 A 
ATOM      5  C   UNL     1       6.556   4.453  16.688  0.00  0.00    +0.000 A 
ATOM      6  C   UNL     1       7.809   4.485  17.237  0.00  0.00    +0.000 A 
ATOM      7  C   UNL     1       7.847   5.048  18.497  0.00  0.00    +0.000 A 
ATOM      8  C   UNL     1       6.661   5.532  19.271  0.00  0.00    +0.000 A 
ATOM      9  C   UNL     1       5.351   5.548  18.676  0.00  0.00    +0.000 A 
ENDROOT
BRANCH   1  10
ATOM     10  C   UNL     1       2.644   6.284  19.719  0.00  0.00    +0.000 C 
BRANCH  10  14
ATOM     11  C   UNL     1       0.208  10.124  20.186  0.00  0.00    +0.000 A 
ATOM     12  C   UNL     1       0.404   9.195  21.234  0.00  0.00    +0.000 A 
ATOM     13  C   UNL     1       1.284   8.057  21.075  0.00  0.00    +0.000 A 
ATOM     14  C   UNL     1       1.920   7.687  19.874  0.00  0.00    +0.000 A 
ATOM     15  C   UNL     1       1.734   8.684  18.847  0.00  0.00    +0.000 A 
ATOM     16  C   UNL     1       0.914   9.865  18.992  0.00  0.00    +0.000 A 
BRANCH  11  18
ATOM     17  F   UNL     1      -1.650  11.422  19.311  0.00  0.00    +0.000 F 
ATOM     18  C   UNL     1      -0.726  11.333  20.315  0.00  0.00    +0.000 C 
ATOM     19  F   UNL     1      -0.073  12.534  20.301  0.00  0.00    +0.000 F 
ATOM     20  F   UNL     1      -1.453  11.340  21.471  0.00  0.00    +0.000 F 
ENDBRANCH  11  18
ENDBRANCH  10  14
ENDBRANCH   1  10
BRANCH   3  21
ATOM     21  C   UNL     1       3.668   3.339  16.977  0.00  0.00    +0.000 C 
BRANCH  21  22
ATOM     22  N   UNL     1       3.998   2.595  18.186  0.00  0.00    +0.000 N 
ATOM     23  H   UNL     1       4.939   2.794  18.525  0.00  0.00    +0.000 HD
BRANCH  22  24
ATOM     24  C   UNL     1       3.067   2.731  19.208  0.00  0.00    +0.000 A 
ATOM     25  C   UNL     1       3.503   2.681  20.535  0.00  0.00    +0.000 A 
ATOM     26  C   UNL     1       2.559   2.758  21.552  0.00  0.00    +0.000 A 
ATOM     27  C   UNL     1       1.226   2.777  21.226  0.00  0.00    +0.000 A 
ATOM     28  N   UNL     1       0.759   2.821  19.957  0.00  0.00    +0.000 NA
ATOM     29  C   UNL     1       1.684   2.793  18.993  0.00  0.00    +0.000 A 
ENDBRANCH  22  24
ENDBRANCH  21  22
ENDBRANCH   3  21
TORSDOF 6
ENDMDL
MODEL 6
REMARK VINA RESULT:      -8.3      1.773      4.246
REMARK  Name = 
REMARK  6 active torsions:
REMARK  status: ('A' for Active; 'I' for Inactive)
REMARK    1  A    between atoms: C_2  and  C_5
REMARK    2  A    between atoms: C_8  and  C_9
REMARK    3  A    between atoms: C_9  and  N_10
REMARK    4  A    between atoms: C_12  and  C_13
REMARK    5  A    between atoms: C_13  and  N_14
REMARK    6  A    between atoms: N_14  and  C_15
REMARK                            x       y       z     vdW  Elec       q    Type
REMARK                         _______ _______ _______ _____ _____    ______ ____
ROOT
ATOM      1  N   UNL     1       2.771   6.140  18.541  0.00  0.00    +0.000 N 
ATOM      2  C   UNL     1       3.363   6.022  19.853  0.00  0.00    +0.000 A 
ATOM      3  C   UNL     1       4.376   5.141  19.557  0.00  0.00    +0.000 A 
ATOM      4  C   UNL     1       3.649   4.066  19.098  0.00  0.00    +0.000 A 
ATOM      5  C   UNL     1       3.983   2.695  19.190  0.00  0.00    +0.000 A 
ATOM      6  C   UNL     1       3.357   1.729  18.450  0.00  0.00    +0.000 A 
ATOM      7  C   UNL     1       2.409   2.228  17.578  0.00  0.00    +0.000 A 
ATOM      8  C   UNL     1       2.097   3.677  17.366  0.00  0.00    +0.000 A 
ATOM      9  C   UNL     1       2.716   4.689  18.180  0.00  0.00    +0.000 A 
ENDROOT
BRANCH   1  10
ATOM     10  C   UNL     1       2.582   7.678  18.172  0.00  0.00    +0.000 C 
BRANCH  10  14
ATOM     11  C   UNL     1      -0.221  10.880  19.844  0.00  0.00    +0.000 A 
ATOM     12  C   UNL     1      -0.006  10.679  18.461  0.00  0.00    +0.000 A 
ATOM     13  C   UNL     1       0.793   9.575  17.976  0.00  0.00    +0.000 A 
ATOM     14  C   UNL     1       1.522   8.685  18.790  0.00  0.00    +0.000 A 
ATOM     15  C   UNL     1       1.239   8.894  20.189  0.00  0.00    +0.000 A 
ATOM     16  C   UNL     1       0.395   9.947  20.705  0.00  0.00    +0.000 A 
BRANCH  11  18
ATOM     17  F   UNL     1      -1.811  11.716  21.480  0.00  0.00    +0.000 F 
ATOM     18  C   UNL     1      -1.050  12.047  20.393  0.00  0.00    +0.000 C 
ATOM     19  F   UNL     1      -1.935  12.564  19.487  0.00  0.00    +0.000 F 
ATOM     20  F   UNL     1      -0.295  13.111  20.796  0.00  0.00    +0.000 F 
ENDBRANCH  11  18
ENDBRANCH  10  14
ENDBRANCH   1  10
BRANCH   3  21
ATOM     21  C   UNL     1       5.798   5.217  19.087  0.00  0.00    +0.000 C 
BRANCH  21  22
ATOM     22  N   UNL     1       6.176   4.097  18.235  0.00  0.00    +0.000 N 
ATOM     23  H   UNL     1       5.542   3.303  18.327  0.00  0.00    +0.000 HD
BRANCH  22  24
ATOM     24  C   UNL     1       6.354   4.434  16.900  0.00  0.00    +0.000 A 
ATOM     25  C   UNL     1       5.614   3.760  15.924  0.00  0.00    +0.000 A 
ATOM     26  C   UNL     1       5.841   4.061  14.586  0.00  0.00    +0.000 A 
ATOM     27  C   UNL     1       6.850   4.931  14.260  0.00  0.00    +0.000 A 
ATOM     28  N   UNL     1       7.594   5.602  15.169  0.00  0.00    +0.000 NA
ATOM     29  C   UNL     1       7.330   5.334  16.451  0.00  0.00    +0.000 A 
ENDBRANCH  22  24
ENDBRANCH  21  22
ENDBRANCH   3  21
TORSDOF 6
ENDMDL
MODEL 7
REMARK VINA RESULT:      -8.3      1.758      4.228
REMARK  Name = 
REMARK  6 active torsions:
REMARK  status: ('A' for Active; 'I' for Inactive)
REMARK    1  A    between atoms: C_2  and  C_5
REMARK    2  A    between atoms: C_8  and  C_9
REMARK    3  A    between atoms: C_9  and  N_10
REMARK    4  A    between atoms: C_12  and  C_13
REMARK    5  A    between atoms: C_13  and  N_14
REMARK    6  A    between atoms: N_14  and  C_15
REMARK                            x       y       z     vdW  Elec       q    Type
REMARK                         _______ _______ _______ _____ _____    ______ ____
ROOT
ATOM      1  N   UNL     1       2.751   6.004  18.356  0.00  0.00    +0.000 N 
ATOM      2  C   UNL     1       3.280   6.004  19.700  0.00  0.00    +0.000 A 
ATOM      3  C   UNL     1       4.327   5.131  19.522  0.00  0.00    +0.000 A 
ATOM      4  C   UNL     1       3.649   4.004  19.115  0.00  0.00    +0.000 A 
ATOM      5  C   UNL     1       4.010   2.654  19.331  0.00  0.00    +0.000 A 
ATOM      6  C   UNL     1       3.444   1.616  18.641  0.00  0.00    +0.000 A 
ATOM      7  C   UNL     1       2.529   2.020  17.688  0.00  0.00    +0.000 A 
ATOM      8  C   UNL     1       2.194   3.438  17.348  0.00  0.00    +0.000 A 
ATOM      9  C   UNL     1       2.748   4.528  18.108  0.00  0.00    +0.000 A 
ENDROOT
BRANCH   1  10
ATOM     10  C   UNL     1       2.544   7.503  17.857  0.00  0.00    +0.000 C 
BRANCH  10  14
ATOM     11  C   UNL     1       0.313  10.742  20.186  0.00  0.00    +0.000 A 
ATOM     12  C   UNL     1       0.626   9.473  20.724  0.00  0.00    +0.000 A 
ATOM     13  C   UNL     1       1.440   8.526  19.994  0.00  0.00    +0.000 A 
ATOM     14  C   UNL     1       1.891   8.698  18.671  0.00  0.00    +0.000 A 
ATOM     15  C   UNL     1       1.593  10.021  18.177  0.00  0.00    +0.000 A 
ATOM     16  C   UNL     1       0.836  11.014  18.904  0.00  0.00    +0.000 A 
BRANCH  11  18
ATOM     17  F   UNL     1      -1.366  12.497  20.100  0.00  0.00    +0.000 F 
ATOM     18  C   UNL     1      -0.558  11.764  20.925  0.00  0.00    +0.000 C 
ATOM     19  F   UNL     1       0.162  12.691  21.628  0.00  0.00    +0.000 F 
ATOM     20  F   UNL     1      -1.400  11.202  21.842  0.00  0.00    +0.000 F 
ENDBRANCH  11  18
ENDBRANCH  10  14
ENDBRANCH   1  10
BRANCH   3  21
ATOM     21  C   UNL     1       5.768   5.209  19.116  0.00  0.00    +0.000 C 
BRANCH  21  22
ATOM     22  N   UNL     1       6.183   4.093  18.276  0.00  0.00    +0.000 N 
ATOM     23  H   UNL     1       5.572   3.282  18.370  0.00  0.00    +0.000 HD
BRANCH  22  24
ATOM     24  C   UNL     1       6.359   4.424  16.939  0.00  0.00    +0.000 A 
ATOM     25  C   UNL     1       5.667   3.702  15.963  0.00  0.00    +0.000 A 
ATOM     26  C   UNL     1       5.894   3.999  14.624  0.00  0.00    +0.000 A 
ATOM     27  C   UNL     1       6.860   4.918  14.299  0.00  0.00    +0.000 A 
ATOM     28  N   UNL     1       7.557   5.637  15.209  0.00  0.00    +0.000 NA
ATOM     29  C   UNL     1       7.291   5.369  16.491  0.00  0.00    +0.000 A 
ENDBRANCH  22  24
ENDBRANCH  21  22
ENDBRANCH   3  21
TORSDOF 6
ENDMDL
MODEL 8
REMARK VINA RESULT:      -8.3      1.755      4.530
REMARK  Name = 
REMARK  6 active torsions:
REMARK  status: ('A' for Active; 'I' for Inactive)
REMARK    1  A    between atoms: C_2  and  C_5
REMARK    2  A    between atoms: C_8  and  C_9
REMARK    3  A    between atoms: C_9  and  N_10
REMARK    4  A    between atoms: C_12  and  C_13
REMARK    5  A    between atoms: C_13  and  N_14
REMARK    6  A    between atoms: N_14  and  C_15
REMARK                            x       y       z     vdW  Elec       q    Type
REMARK                         _______ _______ _______ _____ _____    ______ ____
ROOT
ATOM      1  N   UNL     1       2.747   6.252  19.124  0.00  0.00    +0.000 N 
ATOM      2  C   UNL     1       4.140   5.873  19.087  0.00  0.00    +0.000 A 
ATOM      3  C   UNL     1       4.004   4.586  18.622  0.00  0.00    +0.000 A 
ATOM      4  C   UNL     1       3.231   4.038  19.620  0.00  0.00    +0.000 A 
ATOM      5  C   UNL     1       3.224   2.696  20.068  0.00  0.00    +0.000 A 
ATOM      6  C   UNL     1       2.223   2.182  20.848  0.00  0.00    +0.000 A 
ATOM      7  C   UNL     1       1.209   3.081  21.111  0.00  0.00    +0.000 A 
ATOM      8  C   UNL     1       1.118   4.475  20.571  0.00  0.00    +0.000 A 
ATOM      9  C   UNL     1       2.193   5.035  19.796  0.00  0.00    +0.000 A 
ENDROOT
BRANCH   1  10
ATOM     10  C   UNL     1       2.550   7.653  18.393  0.00  0.00    +0.000 C 
BRANCH  10  14
ATOM     11  C   UNL     1      -0.401  10.830  19.842  0.00  0.00    +0.000 A 
ATOM     12  C   UNL     1       0.283   9.949  20.711  0.00  0.00    +0.000 A 
ATOM     13  C   UNL     1       1.299   9.045  20.219  0.00  0.00    +0.000 A 
ATOM     14  C   UNL     1       1.622   8.852  18.861  0.00  0.00    +0.000 A 
ATOM     15  C   UNL     1       0.939   9.801  18.014  0.00  0.00    +0.000 A 
ATOM     16  C   UNL     1      -0.034  10.761  18.481  0.00  0.00    +0.000 A 
BRANCH  11  18
ATOM     17  F   UNL     1      -2.647  11.726  19.598  0.00  0.00    +0.000 F 
ATOM     18  C   UNL     1      -1.492  11.792  20.327  0.00  0.00    +0.000 C 
ATOM     19  F   UNL     1      -1.121  13.108  20.282  0.00  0.00    +0.000 F 
ATOM     20  F   UNL     1      -1.873  11.576  21.621  0.00  0.00    +0.000 F 
ENDBRANCH  11  18
ENDBRANCH  10  14
ENDBRANCH   1  10
BRANCH   3  21
ATOM     21  C   UNL     1       3.937   3.898  17.292  0.00  0.00    +0.000 C 
BRANCH  21  22
ATOM     22  N   UNL     1       5.195   3.268  16.914  0.00  0.00    +0.000 N 
ATOM     23  H   UNL     1       5.089   2.276  16.701  0.00  0.00    +0.000 HD
BRANCH  22  24
ATOM     24  C   UNL     1       5.874   3.921  15.894  0.00  0.00    +0.000 A 
ATOM     25  C   UNL     1       5.631   3.549  14.569  0.00  0.00    +0.000 A 
ATOM     26  C   UNL     1       6.357   4.166  13.557  0.00  0.00    +0.000 A 
ATOM     27  C   UNL     1       7.358   5.043  13.893  0.00  0.00    +0.000 A 
ATOM     28  N   UNL     1       7.631   5.428  15.160  0.00  0.00    +0.000 NA
ATOM     29  C   UNL     1       6.891   4.859  16.116  0.00  0.00    +0.000 A 
ENDBRANCH  22  24
ENDBRANCH  21  22
ENDBRANCH   3  21
TORSDOF 6
ENDMDL
MODEL 9
REMARK VINA RESULT:      -8.2      1.154      1.849
REMARK  Name = 
REMARK  6 active torsions:
REMARK  status: ('A' for Active; 'I' for Inactive)
REMARK    1  A    between atoms: C_2  and  C_5
REMARK    2  A    between atoms: C_8  and  C_9
REMARK    3  A    between atoms: C_9  and  N_10
REMARK    4  A    between atoms: C_12  and  C_13
REMARK    5  A    between atoms: C_13  and  N_14
REMARK    6  A    between atoms: N_14  and  C_15
REMARK                            x       y       z     vdW  Elec       q    Type
REMARK                         _______ _______ _______ _____ _____    ______ ____
ROOT
ATOM      1  N   UNL     1       3.973   5.585  18.211  0.00  0.00    +0.000 N 
ATOM      2  C   UNL     1       3.060   4.911  17.318  0.00  0.00    +0.000 A 
ATOM      3  C   UNL     1       3.837   3.825  16.990  0.00  0.00    +0.000 A 
ATOM      4  C   UNL     1       4.920   4.455  16.420  0.00  0.00    +0.000 A 
ATOM      5  C   UNL     1       5.759   3.967  15.390  0.00  0.00    +0.000 A 
ATOM      6  C   UNL     1       6.975   4.525  15.100  0.00  0.00    +0.000 A 
ATOM      7  C   UNL     1       7.318   5.569  15.936  0.00  0.00    +0.000 A 
ATOM      8  C   UNL     1       6.516   6.050  17.105  0.00  0.00    +0.000 A 
ATOM      9  C   UNL     1       5.214   5.501  17.379  0.00  0.00    +0.000 A 
ENDROOT
BRANCH   1  10
ATOM     10  C   UNL     1       3.224   5.962  19.565  0.00  0.00    +0.000 C 
BRANCH  10  14
ATOM     11  C   UNL     1       0.567   9.623  20.227  0.00  0.00    +0.000 A 
ATOM     12  C   UNL     1       1.280   9.385  19.029  0.00  0.00    +0.000 A 
ATOM     13  C   UNL     1       2.008   8.153  18.820  0.00  0.00    +0.000 A 
ATOM     14  C   UNL     1       2.191   7.146  19.788  0.00  0.00    +0.000 A 
ATOM     15  C   UNL     1       1.411   7.403  20.974  0.00  0.00    +0.000 A 
ATOM     16  C   UNL     1       0.621   8.594  21.191  0.00  0.00    +0.000 A 
BRANCH  11  18
ATOM     17  F   UNL     1      -1.324  11.061  19.716  0.00  0.00    +0.000 F 
ATOM     18  C   UNL     1      -0.205  10.922  20.488  0.00  0.00    +0.000 C 
ATOM     19  F   UNL     1       0.529  12.051  20.253  0.00  0.00    +0.000 F 
ATOM     20  F   UNL     1      -0.642  11.046  21.776  0.00  0.00    +0.000 F 
ENDBRANCH  11  18
ENDBRANCH  10  14
ENDBRANCH   1  10
BRANCH   3  21
ATOM     21  C   UNL     1       4.089   2.449  17.528  0.00  0.00    +0.000 C 
BRANCH  21  22
ATOM     22  N   UNL     1       2.877   1.792  17.999  0.00  0.00    +0.000 N 
ATOM     23  H   UNL     1       2.971   0.777  18.040  0.00  0.00    +0.000 HD
BRANCH  22  24
ATOM     24  C   UNL     1       2.390   2.291  19.200  0.00  0.00    +0.000 A 
ATOM     25  C   UNL     1       3.225   2.299  20.321  0.00  0.00    +0.000 A 
ATOM     26  C   UNL     1       2.713   2.745  21.534  0.00  0.00    +0.000 A 
ATOM     27  C   UNL     1       1.381   3.065  21.618  0.00  0.00    +0.000 A 
ATOM     28  N   UNL     1       0.535   3.066  20.562  0.00  0.00    +0.000 NA
ATOM     29  C   UNL     1       1.058   2.679  19.395  0.00  0.00    +0.000 A 
ENDBRANCH  22  24
ENDBRANCH  21  22
ENDBRANCH   3  21
TORSDOF 6
ENDMDL
