MODEL 1
REMARK VINA RESULT:      -9.9      0.000      0.000
REMARK  Name = 
REMARK  9 active torsions:
REMARK  status: ('A' for Active; 'I' for Inactive)
REMARK    1  A    between atoms: C_1  and  C_2
REMARK    2  A    between atoms: C_9  and  N_10
REMARK    3  A    between atoms: C_11  and  C_13
REMARK    4  A    between atoms: C_18  and  C_19
REMARK    5  A    between atoms: C_20  and  N_21
REMARK    6  A    between atoms: N_21  and  C_22
REMARK    7  A    between atoms: C_23  and  C_25
REMARK    8  A    between atoms: C_25  and  C_26
REMARK    9  A    between atoms: C_26  and  C_27
REMARK                            x       y       z     vdW  Elec       q    Type
REMARK                         _______ _______ _______ _____ _____    ______ ____
ROOT
ATOM      1  C   UNL     1       2.506   6.108  19.207  0.00  0.00    +0.000 A 
ATOM      2  C   UNL     1       1.790   5.193  18.336  0.00  0.00    +0.000 A 
ATOM      3  C   UNL     1       2.460   4.430  17.452  0.00  0.00    +0.000 A 
ATOM      4  C   UNL     1       3.875   4.538  17.335  0.00  0.00    +0.000 A 
ATOM      5  N   UNL     1       4.683   3.910  16.533  0.00  0.00    +0.000 NA
ATOM      6  C   UNL     1       5.941   4.418  16.770  0.00  0.00    +0.000 A 
ATOM      7  C   UNL     1       6.989   3.878  15.862  0.00  0.00    +0.000 C 
ATOM      8  C   UNL     1       5.925   5.398  17.780  0.00  0.00    +0.000 A 
ATOM      9  N   UNL     1       4.555   5.438  18.155  0.00  0.00    +0.000 N 
ATOM     10  C   UNL     1       3.854   6.180  19.114  0.00  0.00    +0.000 A 
ENDROOT
BRANCH   1  12
ATOM     11  N   UNL     1       1.614   8.375  19.534  0.00  0.00    +0.000 N 
ATOM     12  C   UNL     1       1.866   7.136  20.096  0.00  0.00    +0.000 C 
ATOM     13  O   UNL     1       1.615   6.799  21.248  0.00  0.00    +0.000 OA
ATOM     14  H   UNL     1       1.814   8.515  18.554  0.00  0.00    +0.000 HD
BRANCH  11  23
ATOM     15  C   UNL     1      -1.847  14.744  22.996  0.00  0.00    +0.000 C 
ATOM     16  C   UNL     1      -1.041  13.984  21.964  0.00  0.00    +0.000 C 
ATOM     17  O   UNL     1      -0.530  14.582  21.018  0.00  0.00    +0.000 OA
ATOM     18  N   UNL     1      -0.927  12.626  22.198  0.00  0.00    +0.000 N 
ATOM     19  C   UNL     1      -1.629  11.885  23.261  0.00  0.00    +0.000 C 
ATOM     20  C   UNL     1      -1.123  10.442  23.229  0.00  0.00    +0.000 C 
ATOM     21  C   UNL     1      -0.339  10.430  21.959  0.00  0.00    +0.000 A 
ATOM     22  C   UNL     1       0.259   9.322  21.377  0.00  0.00    +0.000 A 
ATOM     23  C   UNL     1       1.005   9.472  20.205  0.00  0.00    +0.000 A 
ATOM     24  C   UNL     1       1.156  10.767  19.667  0.00  0.00    +0.000 A 
ATOM     25  C   UNL     1       0.547  11.888  20.270  0.00  0.00    +0.000 A 
ATOM     26  C   UNL     1      -0.209  11.701  21.413  0.00  0.00    +0.000 A 
ENDBRANCH  11  23
ENDBRANCH   1  12
BRANCH   8  27
ATOM     27  N   UNL     1       7.016   6.205  18.268  0.00  0.00    +0.000 N 
ATOM     28  C   UNL     1       7.950   5.729  19.305  0.00  0.00    +0.000 C 
ATOM     29  C   UNL     1       7.291   7.545  17.715  0.00  0.00    +0.000 C 
ATOM     30  O   UNL     1       6.667   7.942  16.741  0.00  0.00    +0.000 OA
BRANCH  29  31
ATOM     31  C   UNL     1       8.440   8.374  18.270  0.00  0.00    +0.000 C 
BRANCH  31  32
ATOM     32  C   UNL     1       8.287   9.856  17.914  0.00  0.00    +0.000 C 
BRANCH  32  33
ATOM     33  C   UNL     1       9.324  10.705  18.611  0.00  0.00    +0.000 A 
ATOM     34  C   UNL     1      10.328  11.343  17.870  0.00  0.00    +0.000 A 
ATOM     35  C   UNL     1      11.304  12.109  18.509  0.00  0.00    +0.000 A 
ATOM     36  C   UNL     1      11.289  12.244  19.896  0.00  0.00    +0.000 A 
ATOM     37  C   UNL     1      10.295  11.617  20.643  0.00  0.00    +0.000 A 
ATOM     38  C   UNL     1       9.317  10.851  20.006  0.00  0.00    +0.000 A 
ENDBRANCH  32  33
ENDBRANCH  31  32
ENDBRANCH  29  31
ENDBRANCH   8  27
TORSDOF 6
ENDMDL
MODEL 2
REMARK VINA RESULT:      -9.9      0.822      1.608
REMARK  Name = 
REMARK  9 active torsions:
REMARK  status: ('A' for Active; 'I' for Inactive)
REMARK    1  A    between atoms: C_1  and  C_2
REMARK    2  A    between atoms: C_9  and  N_10
REMARK    3  A    between atoms: C_11  and  C_13
REMARK    4  A    between atoms: C_18  and  C_19
REMARK    5  A    between atoms: C_20  and  N_21
REMARK    6  A    between atoms: N_21  and  C_22
REMARK    7  A    between atoms: C_23  and  C_25
REMARK    8  A    between atoms: C_25  and  C_26
REMARK    9  A    between atoms: C_26  and  C_27
REMARK                            x       y       z     vdW  Elec       q    Type
REMARK                         _______ _______ _______ _____ _____    ______ ____
ROOT
ATOM      1  C   UNL     1       2.500   6.053  19.184  0.00  0.00    +0.000 A 
ATOM      2  C   UNL     1       1.811   5.149  18.282  0.00  0.00    +0.000 A 
ATOM      3  C   UNL     1       2.506   4.410  17.396  0.00  0.00    +0.000 A 
ATOM      4  C   UNL     1       3.922   4.536  17.309  0.00  0.00    +0.000 A 
ATOM      5  N   UNL     1       4.753   3.932  16.510  0.00  0.00    +0.000 NA
ATOM      6  C   UNL     1       6.000   4.448  16.782  0.00  0.00    +0.000 A 
ATOM      7  C   UNL     1       7.071   3.938  15.885  0.00  0.00    +0.000 C 
ATOM      8  C   UNL     1       5.954   5.407  17.811  0.00  0.00    +0.000 A 
ATOM      9  N   UNL     1       4.576   5.425  18.160  0.00  0.00    +0.000 N 
ATOM     10  C   UNL     1       3.849   6.141  19.120  0.00  0.00    +0.000 A 
ENDROOT
BRANCH   1  12
ATOM     11  N   UNL     1       1.604   8.313  19.549  0.00  0.00    +0.000 N 
ATOM     12  C   UNL     1       1.831   7.056  20.081  0.00  0.00    +0.000 C 
ATOM     13  O   UNL     1       1.539   6.685  21.212  0.00  0.00    +0.000 OA
ATOM     14  H   UNL     1       1.839   8.482  18.581  0.00  0.00    +0.000 HD
BRANCH  11  23
ATOM     15  C   UNL     1      -2.047  14.164  23.667  0.00  0.00    +0.000 C 
ATOM     16  C   UNL     1      -1.763  12.750  23.209  0.00  0.00    +0.000 C 
ATOM     17  O   UNL     1      -2.433  11.814  23.644  0.00  0.00    +0.000 OA
ATOM     18  N   UNL     1      -0.743  12.630  22.283  0.00  0.00    +0.000 N 
ATOM     19  C   UNL     1       0.139  13.727  21.845  0.00  0.00    +0.000 C 
ATOM     20  C   UNL     1       1.038  13.180  20.735  0.00  0.00    +0.000 C 
ATOM     21  C   UNL     1       0.750  11.717  20.811  0.00  0.00    +0.000 A 
ATOM     22  C   UNL     1       1.385  10.719  20.089  0.00  0.00    +0.000 A 
ATOM     23  C   UNL     1       0.974   9.391  20.231  0.00  0.00    +0.000 A 
ATOM     24  C   UNL     1      -0.109   9.112  21.089  0.00  0.00    +0.000 A 
ATOM     25  C   UNL     1      -0.751  10.137  21.817  0.00  0.00    +0.000 A 
ATOM     26  C   UNL     1      -0.302  11.437  21.676  0.00  0.00    +0.000 A 
ENDBRANCH  11  23
ENDBRANCH   1  12
BRANCH   8  27
ATOM     27  N   UNL     1       7.026   6.216  18.337  0.00  0.00    +0.000 N 
ATOM     28  C   UNL     1       7.887   5.765  19.446  0.00  0.00    +0.000 C 
ATOM     29  C   UNL     1       7.356   7.530  17.755  0.00  0.00    +0.000 C 
ATOM     30  O   UNL     1       6.800   7.901  16.731  0.00  0.00    +0.000 OA
BRANCH  29  31
ATOM     31  C   UNL     1       8.483   8.363  18.350  0.00  0.00    +0.000 C 
BRANCH  31  32
ATOM     32  C   UNL     1       8.337   9.844  17.992  0.00  0.00    +0.000 C 
BRANCH  32  33
ATOM     33  C   UNL     1       9.414  10.682  18.641  0.00  0.00    +0.000 A 
ATOM     34  C   UNL     1       9.435  10.849  20.033  0.00  0.00    +0.000 A 
ATOM     35  C   UNL     1      10.412  11.640  20.638  0.00  0.00    +0.000 A 
ATOM     36  C   UNL     1      11.378  12.276  19.860  0.00  0.00    +0.000 A 
ATOM     37  C   UNL     1      11.369  12.115  18.476  0.00  0.00    +0.000 A 
ATOM     38  C   UNL     1      10.393  11.323  17.868  0.00  0.00    +0.000 A 
ENDBRANCH  32  33
ENDBRANCH  31  32
ENDBRANCH  29  31
ENDBRANCH   8  27
TORSDOF 6
ENDMDL
MODEL 3
REMARK VINA RESULT:      -9.6      2.949      8.940
REMARK  Name = 
REMARK  9 active torsions:
REMARK  status: ('A' for Active; 'I' for Inactive)
REMARK    1  A    between atoms: C_1  and  C_2
REMARK    2  A    between atoms: C_9  and  N_10
REMARK    3  A    between atoms: C_11  and  C_13
REMARK    4  A    between atoms: C_18  and  C_19
REMARK    5  A    between atoms: C_20  and  N_21
REMARK    6  A    between atoms: N_21  and  C_22
REMARK    7  A    between atoms: C_23  and  C_25
REMARK    8  A    between atoms: C_25  and  C_26
REMARK    9  A    between atoms: C_26  and  C_27
REMARK                            x       y       z     vdW  Elec       q    Type
REMARK                         _______ _______ _______ _____ _____    ______ ____
ROOT
ATOM      1  C   UNL     1       6.867   7.052  17.478  0.00  0.00    +0.000 A 
ATOM      2  C   UNL     1       7.239   5.831  16.788  0.00  0.00    +0.000 A 
ATOM      3  C   UNL     1       6.320   4.875  16.551  0.00  0.00    +0.000 A 
ATOM      4  C   UNL     1       4.981   5.035  17.008  0.00  0.00    +0.000 A 
ATOM      5  N   UNL     1       3.972   4.222  16.897  0.00  0.00    +0.000 NA
ATOM      6  C   UNL     1       2.920   4.813  17.559  0.00  0.00    +0.000 A 
ATOM      7  C   UNL     1       1.696   3.969  17.619  0.00  0.00    +0.000 C 
ATOM      8  C   UNL     1       3.279   6.064  18.096  0.00  0.00    +0.000 A 
ATOM      9  N   UNL     1       4.635   6.199  17.694  0.00  0.00    +0.000 N 
ATOM     10  C   UNL     1       5.584   7.212  17.879  0.00  0.00    +0.000 A 
ENDROOT
BRANCH   1  12
ATOM     11  N   UNL     1       7.675   9.373  17.438  0.00  0.00    +0.000 N 
ATOM     12  C   UNL     1       7.828   8.101  17.961  0.00  0.00    +0.000 C 
ATOM     13  O   UNL     1       8.671   7.752  18.779  0.00  0.00    +0.000 OA
ATOM     14  H   UNL     1       6.903   9.552  16.811  0.00  0.00    +0.000 HD
BRANCH  11  23
ATOM     15  C   UNL     1      11.868  15.945  19.373  0.00  0.00    +0.000 C 
ATOM     16  C   UNL     1      10.711  15.143  18.817  0.00  0.00    +0.000 C 
ATOM     17  O   UNL     1       9.753  15.718  18.301  0.00  0.00    +0.000 OA
ATOM     18  N   UNL     1      10.849  13.771  18.922  0.00  0.00    +0.000 N 
ATOM     19  C   UNL     1      11.935  13.079  19.639  0.00  0.00    +0.000 C 
ATOM     20  C   UNL     1      11.761  11.579  19.400  0.00  0.00    +0.000 C 
ATOM     21  C   UNL     1      10.416  11.533  18.756  0.00  0.00    +0.000 A 
ATOM     22  C   UNL     1       9.706  10.389  18.422  0.00  0.00    +0.000 A 
ATOM     23  C   UNL     1       8.472  10.501  17.777  0.00  0.00    +0.000 A 
ATOM     24  C   UNL     1       8.000  11.790  17.452  0.00  0.00    +0.000 A 
ATOM     25  C   UNL     1       8.732  12.947  17.793  0.00  0.00    +0.000 A 
ATOM     26  C   UNL     1       9.937  12.803  18.457  0.00  0.00    +0.000 A 
ENDBRANCH  11  23
ENDBRANCH   1  12
BRANCH   8  27
ATOM     27  N   UNL     1       2.486   6.956  18.906  0.00  0.00    +0.000 N 
ATOM     28  C   UNL     1       2.117   6.642  20.299  0.00  0.00    +0.000 C 
ATOM     29  C   UNL     1       2.041   8.267  18.398  0.00  0.00    +0.000 C 
ATOM     30  O   UNL     1       2.444   8.671  17.318  0.00  0.00    +0.000 OA
BRANCH  29  31
ATOM     31  C   UNL     1       1.189   9.172  19.277  0.00  0.00    +0.000 C 
BRANCH  31  32
ATOM     32  C   UNL     1       0.857  10.490  18.572  0.00  0.00    +0.000 C 
BRANCH  32  33
ATOM     33  C   UNL     1      -0.633  10.660  18.385  0.00  0.00    +0.000 A 
ATOM     34  C   UNL     1      -1.327   9.854  17.473  0.00  0.00    +0.000 A 
ATOM     35  C   UNL     1      -2.699  10.021  17.277  0.00  0.00    +0.000 A 
ATOM     36  C   UNL     1      -3.392  10.998  17.990  0.00  0.00    +0.000 A 
ATOM     37  C   UNL     1      -2.714  11.803  18.902  0.00  0.00    +0.000 A 
ATOM     38  C   UNL     1      -1.342  11.637  19.100  0.00  0.00    +0.000 A 
ENDBRANCH  32  33
ENDBRANCH  31  32
ENDBRANCH  29  31
ENDBRANCH   8  27
TORSDOF 6
ENDMDL
MODEL 4
REMARK VINA RESULT:      -9.6      3.702      9.802
REMARK  Name = 
REMARK  9 active torsions:
REMARK  status: ('A' for Active; 'I' for Inactive)
REMARK    1  A    between atoms: C_1  and  C_2
REMARK    2  A    between atoms: C_9  and  N_10
REMARK    3  A    between atoms: C_11  and  C_13
REMARK    4  A    between atoms: C_18  and  C_19
REMARK    5  A    between atoms: C_20  and  N_21
REMARK    6  A    between atoms: N_21  and  C_22
REMARK    7  A    between atoms: C_23  and  C_25
REMARK    8  A    between atoms: C_25  and  C_26
REMARK    9  A    between atoms: C_26  and  C_27
REMARK                            x       y       z     vdW  Elec       q    Type
REMARK                         _______ _______ _______ _____ _____    ______ ____
ROOT
ATOM      1  C   UNL     1       0.380   9.251  21.395  0.00  0.00    +0.000 A 
ATOM      2  C   UNL     1      -0.266   9.144  22.691  0.00  0.00    +0.000 A 
ATOM      3  C   UNL     1      -0.842  10.222  23.255  0.00  0.00    +0.000 A 
ATOM      4  C   UNL     1      -0.790  11.489  22.606  0.00  0.00    +0.000 A 
ATOM      5  N   UNL     1      -1.262  12.635  23.002  0.00  0.00    +0.000 NA
ATOM      6  C   UNL     1      -0.895  13.558  22.048  0.00  0.00    +0.000 A 
ATOM      7  C   UNL     1      -1.270  14.956  22.388  0.00  0.00    +0.000 C 
ATOM      8  C   UNL     1      -0.176  12.961  20.995  0.00  0.00    +0.000 A 
ATOM      9  N   UNL     1      -0.145  11.592  21.374  0.00  0.00    +0.000 N 
ATOM     10  C   UNL     1       0.394  10.451  20.768  0.00  0.00    +0.000 A 
ENDROOT
BRANCH   1  12
ATOM     11  N   UNL     1       1.604   8.396  19.442  0.00  0.00    +0.000 N 
ATOM     12  C   UNL     1       1.210   8.177  20.751  0.00  0.00    +0.000 C 
ATOM     13  O   UNL     1       1.475   7.193  21.431  0.00  0.00    +0.000 OA
ATOM     14  H   UNL     1       1.371   9.277  19.004  0.00  0.00    +0.000 HD
BRANCH  11  23
ATOM     15  C   UNL     1       6.366   3.653  15.043  0.00  0.00    +0.000 C 
ATOM     16  C   UNL     1       5.804   4.952  15.581  0.00  0.00    +0.000 C 
ATOM     17  O   UNL     1       6.246   6.028  15.180  0.00  0.00    +0.000 OA
ATOM     18  N   UNL     1       4.783   4.808  16.502  0.00  0.00    +0.000 N 
ATOM     19  C   UNL     1       4.327   3.528  17.073  0.00  0.00    +0.000 C 
ATOM     20  C   UNL     1       3.110   3.823  17.951  0.00  0.00    +0.000 C 
ATOM     21  C   UNL     1       3.130   5.314  17.999  0.00  0.00    +0.000 A 
ATOM     22  C   UNL     1       2.296   6.120  18.759  0.00  0.00    +0.000 A 
ATOM     23  C   UNL     1       2.400   7.510  18.665  0.00  0.00    +0.000 A 
ATOM     24  C   UNL     1       3.339   8.053  17.763  0.00  0.00    +0.000 A 
ATOM     25  C   UNL     1       4.180   7.224  16.991  0.00  0.00    +0.000 A 
ATOM     26  C   UNL     1       4.071   5.851  17.128  0.00  0.00    +0.000 A 
ENDBRANCH  11  23
ENDBRANCH   1  12
BRANCH   8  27
ATOM     27  N   UNL     1       0.433  13.592  19.850  0.00  0.00    +0.000 N 
ATOM     28  C   UNL     1      -0.238  13.671  18.540  0.00  0.00    +0.000 C 
ATOM     29  C   UNL     1       1.753  14.245  19.942  0.00  0.00    +0.000 C 
ATOM     30  O   UNL     1       2.298  14.369  21.029  0.00  0.00    +0.000 OA
BRANCH  29  31
ATOM     31  C   UNL     1       2.371  14.883  18.706  0.00  0.00    +0.000 C 
BRANCH  31  32
ATOM     32  C   UNL     1       2.540  16.395  18.879  0.00  0.00    +0.000 C 
BRANCH  32  33
ATOM     33  C   UNL     1       1.442  17.161  18.178  0.00  0.00    +0.000 A 
ATOM     34  C   UNL     1       1.701  17.815  16.965  0.00  0.00    +0.000 A 
ATOM     35  C   UNL     1       0.699  18.544  16.323  0.00  0.00    +0.000 A 
ATOM     36  C   UNL     1      -0.572  18.631  16.887  0.00  0.00    +0.000 A 
ATOM     37  C   UNL     1      -0.842  17.983  18.090  0.00  0.00    +0.000 A 
ATOM     38  C   UNL     1       0.158  17.253  18.734  0.00  0.00    +0.000 A 
ENDBRANCH  32  33
ENDBRANCH  31  32
ENDBRANCH  29  31
ENDBRANCH   8  27
TORSDOF 6
ENDMDL
MODEL 5
REMARK VINA RESULT:      -9.5      2.495      8.501
REMARK  Name = 
REMARK  9 active torsions:
REMARK  status: ('A' for Active; 'I' for Inactive)
REMARK    1  A    between atoms: C_1  and  C_2
REMARK    2  A    between atoms: C_9  and  N_10
REMARK    3  A    between atoms: C_11  and  C_13
REMARK    4  A    between atoms: C_18  and  C_19
REMARK    5  A    between atoms: C_20  and  N_21
REMARK    6  A    between atoms: N_21  and  C_22
REMARK    7  A    between atoms: C_23  and  C_25
REMARK    8  A    between atoms: C_25  and  C_26
REMARK    9  A    between atoms: C_26  and  C_27
REMARK                            x       y       z     vdW  Elec       q    Type
REMARK                         _______ _______ _______ _____ _____    ______ ____
ROOT
ATOM      1  C   UNL     1       6.986   6.792  17.368  0.00  0.00    +0.000 A 
ATOM      2  C   UNL     1       7.425   5.776  16.428  0.00  0.00    +0.000 A 
ATOM      3  C   UNL     1       6.619   4.745  16.115  0.00  0.00    +0.000 A 
ATOM      4  C   UNL     1       5.340   4.618  16.729  0.00  0.00    +0.000 A 
ATOM      5  N   UNL     1       4.443   3.690  16.574  0.00  0.00    +0.000 NA
ATOM      6  C   UNL     1       3.415   3.992  17.439  0.00  0.00    +0.000 A 
ATOM      7  C   UNL     1       2.332   2.972  17.468  0.00  0.00    +0.000 C 
ATOM      8  C   UNL     1       3.671   5.174  18.159  0.00  0.00    +0.000 A 
ATOM      9  N   UNL     1       4.934   5.582  17.651  0.00  0.00    +0.000 N 
ATOM     10  C   UNL     1       5.755   6.683  17.921  0.00  0.00    +0.000 A 
ENDROOT
BRANCH   1  12
ATOM     11  N   UNL     1       7.693   9.146  17.399  0.00  0.00    +0.000 N 
ATOM     12  C   UNL     1       7.853   7.880  17.935  0.00  0.00    +0.000 C 
ATOM     13  O   UNL     1       8.633   7.565  18.826  0.00  0.00    +0.000 OA
ATOM     14  H   UNL     1       6.974   9.294  16.705  0.00  0.00    +0.000 HD
BRANCH  11  23
ATOM     15  C   UNL     1      11.411  15.892  19.679  0.00  0.00    +0.000 C 
ATOM     16  C   UNL     1      10.363  15.040  18.995  0.00  0.00    +0.000 C 
ATOM     17  O   UNL     1       9.472  15.571  18.333  0.00  0.00    +0.000 OA
ATOM     18  N   UNL     1      10.519  13.677  19.163  0.00  0.00    +0.000 N 
ATOM     19  C   UNL     1      11.511  13.037  20.046  0.00  0.00    +0.000 C 
ATOM     20  C   UNL     1      11.410  11.526  19.835  0.00  0.00    +0.000 C 
ATOM     21  C   UNL     1      10.169  11.422  19.013  0.00  0.00    +0.000 A 
ATOM     22  C   UNL     1       9.542  10.249  18.621  0.00  0.00    +0.000 A 
ATOM     23  C   UNL     1       8.407  10.306  17.808  0.00  0.00    +0.000 A 
ATOM     24  C   UNL     1       7.953  11.571  17.379  0.00  0.00    +0.000 A 
ATOM     25  C   UNL     1       8.601  12.758  17.780  0.00  0.00    +0.000 A 
ATOM     26  C   UNL     1       9.705  12.668  18.609  0.00  0.00    +0.000 A 
ENDBRANCH  11  23
ENDBRANCH   1  12
BRANCH   8  27
ATOM     27  N   UNL     1       2.878   5.785  19.197  0.00  0.00    +0.000 N 
ATOM     28  C   UNL     1       2.585   5.104  20.472  0.00  0.00    +0.000 C 
ATOM     29  C   UNL     1       2.354   7.157  19.061  0.00  0.00    +0.000 C 
ATOM     30  O   UNL     1       2.691   7.846  18.109  0.00  0.00    +0.000 OA
BRANCH  29  31
ATOM     31  C   UNL     1       1.505   7.759  20.171  0.00  0.00    +0.000 C 
BRANCH  31  32
ATOM     32  C   UNL     1       1.178   9.229  19.894  0.00  0.00    +0.000 C 
BRANCH  32  33
ATOM     33  C   UNL     1       0.363   9.837  21.011  0.00  0.00    +0.000 A 
ATOM     34  C   UNL     1       0.301   9.209  22.263  0.00  0.00    +0.000 A 
ATOM     35  C   UNL     1      -0.469   9.751  23.293  0.00  0.00    +0.000 A 
ATOM     36  C   UNL     1      -1.189  10.926  23.083  0.00  0.00    +0.000 A 
ATOM     37  C   UNL     1      -1.133  11.561  21.845  0.00  0.00    +0.000 A 
ATOM     38  C   UNL     1      -0.363  11.021  20.813  0.00  0.00    +0.000 A 
ENDBRANCH  32  33
ENDBRANCH  31  32
ENDBRANCH  29  31
ENDBRANCH   8  27
TORSDOF 6
ENDMDL
MODEL 6
REMARK VINA RESULT:      -9.2      4.434     12.041
REMARK  Name = 
REMARK  9 active torsions:
REMARK  status: ('A' for Active; 'I' for Inactive)
REMARK    1  A    between atoms: C_1  and  C_2
REMARK    2  A    between atoms: C_9  and  N_10
REMARK    3  A    between atoms: C_11  and  C_13
REMARK    4  A    between atoms: C_18  and  C_19
REMARK    5  A    between atoms: C_20  and  N_21
REMARK    6  A    between atoms: N_21  and  C_22
REMARK    7  A    between atoms: C_23  and  C_25
REMARK    8  A    between atoms: C_25  and  C_26
REMARK    9  A    between atoms: C_26  and  C_27
REMARK                            x       y       z     vdW  Elec       q    Type
REMARK                         _______ _______ _______ _____ _____    ______ ____
ROOT
ATOM      1  C   UNL     1      -1.998  13.202  22.770  0.00  0.00    +0.000 A 
ATOM      2  C   UNL     1      -1.866  14.094  23.907  0.00  0.00    +0.000 A 
ATOM      3  C   UNL     1      -2.890  14.890  24.269  0.00  0.00    +0.000 A 
ATOM      4  C   UNL     1      -4.099  14.894  23.517  0.00  0.00    +0.000 A 
ATOM      5  N   UNL     1      -5.175  15.603  23.696  0.00  0.00    +0.000 NA
ATOM      6  C   UNL     1      -6.030  15.282  22.665  0.00  0.00    +0.000 A 
ATOM      7  C   UNL     1      -7.286  16.079  22.653  0.00  0.00    +0.000 C 
ATOM      8  C   UNL     1      -5.472  14.314  21.809  0.00  0.00    +0.000 A 
ATOM      9  N   UNL     1      -4.211  14.055  22.410  0.00  0.00    +0.000 N 
ATOM     10  C   UNL     1      -3.163  13.185  22.081  0.00  0.00    +0.000 A 
ENDROOT
BRANCH   1  12
ATOM     11  N   UNL     1      -1.206  11.165  21.642  0.00  0.00    +0.000 N 
ATOM     12  C   UNL     1      -0.878  12.407  22.159  0.00  0.00    +0.000 C 
ATOM     13  O   UNL     1       0.236  12.917  22.165  0.00  0.00    +0.000 OA
ATOM     14  H   UNL     1      -2.174  10.877  21.644  0.00  0.00    +0.000 HD
BRANCH  11  23
ATOM     15  C   UNL     1       3.790   5.843  18.290  0.00  0.00    +0.000 C 
ATOM     16  C   UNL     1       2.871   6.421  19.345  0.00  0.00    +0.000 C 
ATOM     17  O   UNL     1       2.688   5.816  20.401  0.00  0.00    +0.000 OA
ATOM     18  N   UNL     1       2.310   7.643  19.025  0.00  0.00    +0.000 N 
ATOM     19  C   UNL     1       2.432   8.317  17.720  0.00  0.00    +0.000 C 
ATOM     20  C   UNL     1       1.761   9.686  17.845  0.00  0.00    +0.000 C 
ATOM     21  C   UNL     1       1.085   9.568  19.170  0.00  0.00    +0.000 A 
ATOM     22  C   UNL     1       0.229  10.499  19.738  0.00  0.00    +0.000 A 
ATOM     23  C   UNL     1      -0.295  10.272  21.013  0.00  0.00    +0.000 A 
ATOM     24  C   UNL     1       0.097   9.105  21.702  0.00  0.00    +0.000 A 
ATOM     25  C   UNL     1       0.971   8.165  21.115  0.00  0.00    +0.000 A 
ATOM     26  C   UNL     1       1.450   8.406  19.840  0.00  0.00    +0.000 A 
ENDBRANCH  11  23
ENDBRANCH   1  12
BRANCH   8  27
ATOM     27  N   UNL     1      -6.019  13.768  20.591  0.00  0.00    +0.000 N 
ATOM     28  C   UNL     1      -6.102  14.547  19.342  0.00  0.00    +0.000 C 
ATOM     29  C   UNL     1      -6.482  12.370  20.513  0.00  0.00    +0.000 C 
ATOM     30  O   UNL     1      -6.294  11.612  21.454  0.00  0.00    +0.000 OA
BRANCH  29  31
ATOM     31  C   UNL     1      -7.071  11.837  19.215  0.00  0.00    +0.000 C 
BRANCH  31  32
ATOM     32  C   UNL     1      -6.512  10.453  18.871  0.00  0.00    +0.000 C 
BRANCH  32  33
ATOM     33  C   UNL     1      -5.228  10.553  18.081  0.00  0.00    +0.000 A 
ATOM     34  C   UNL     1      -5.105  11.494  17.049  0.00  0.00    +0.000 A 
ATOM     35  C   UNL     1      -3.931  11.577  16.300  0.00  0.00    +0.000 A 
ATOM     36  C   UNL     1      -2.867  10.719  16.571  0.00  0.00    +0.000 A 
ATOM     37  C   UNL     1      -2.975   9.783  17.596  0.00  0.00    +0.000 A 
ATOM     38  C   UNL     1      -4.149   9.698  18.348  0.00  0.00    +0.000 A 
ENDBRANCH  32  33
ENDBRANCH  31  32
ENDBRANCH  29  31
ENDBRANCH   8  27
TORSDOF 6
ENDMDL
MODEL 7
REMARK VINA RESULT:      -9.2      4.403      9.644
REMARK  Name = 
REMARK  9 active torsions:
REMARK  status: ('A' for Active; 'I' for Inactive)
REMARK    1  A    between atoms: C_1  and  C_2
REMARK    2  A    between atoms: C_9  and  N_10
REMARK    3  A    between atoms: C_11  and  C_13
REMARK    4  A    between atoms: C_18  and  C_19
REMARK    5  A    between atoms: C_20  and  N_21
REMARK    6  A    between atoms: N_21  and  C_22
REMARK    7  A    between atoms: C_23  and  C_25
REMARK    8  A    between atoms: C_25  and  C_26
REMARK    9  A    between atoms: C_26  and  C_27
REMARK                            x       y       z     vdW  Elec       q    Type
REMARK                         _______ _______ _______ _____ _____    ______ ____
ROOT
ATOM      1  C   UNL     1       2.228  14.150  19.288  0.00  0.00    +0.000 A 
ATOM      2  C   UNL     1       1.205  14.999  18.705  0.00  0.00    +0.000 A 
ATOM      3  C   UNL     1       0.000  14.491  18.386  0.00  0.00    +0.000 A 
ATOM      4  C   UNL     1      -0.272  13.107  18.579  0.00  0.00    +0.000 A 
ATOM      5  N   UNL     1      -1.355  12.437  18.312  0.00  0.00    +0.000 NA
ATOM      6  C   UNL     1      -1.088  11.123  18.624  0.00  0.00    +0.000 A 
ATOM      7  C   UNL     1      -2.193  10.187  18.286  0.00  0.00    +0.000 C 
ATOM      8  C   UNL     1       0.217  10.962  19.128  0.00  0.00    +0.000 A 
ATOM      9  N   UNL     1       0.723  12.290  19.114  0.00  0.00    +0.000 N 
ATOM     10  C   UNL     1       1.950  12.842  19.502  0.00  0.00    +0.000 A 
ENDROOT
BRANCH   1  12
ATOM     11  N   UNL     1       4.398  14.883  18.394  0.00  0.00    +0.000 N 
ATOM     12  C   UNL     1       3.659  14.549  19.515  0.00  0.00    +0.000 C 
ATOM     13  O   UNL     1       4.060  14.550  20.673  0.00  0.00    +0.000 OA
ATOM     14  H   UNL     1       3.937  14.900  17.494  0.00  0.00    +0.000 HD
BRANCH  11  23
ATOM     15  C   UNL     1      11.990  17.492  18.685  0.00  0.00    +0.000 C 
ATOM     16  C   UNL     1      10.482  17.571  18.802  0.00  0.00    +0.000 C 
ATOM     17  O   UNL     1       9.943  18.630  19.120  0.00  0.00    +0.000 OA
ATOM     18  N   UNL     1       9.812  16.398  18.506  0.00  0.00    +0.000 N 
ATOM     19  C   UNL     1      10.452  15.098  18.238  0.00  0.00    +0.000 C 
ATOM     20  C   UNL     1       9.350  14.114  17.845  0.00  0.00    +0.000 C 
ATOM     21  C   UNL     1       8.121  14.896  18.171  0.00  0.00    +0.000 A 
ATOM     22  C   UNL     1       6.816  14.433  18.110  0.00  0.00    +0.000 A 
ATOM     23  C   UNL     1       5.758  15.299  18.401  0.00  0.00    +0.000 A 
ATOM     24  C   UNL     1       6.057  16.640  18.718  0.00  0.00    +0.000 A 
ATOM     25  C   UNL     1       7.389  17.102  18.773  0.00  0.00    +0.000 A 
ATOM     26  C   UNL     1       8.415  16.212  18.508  0.00  0.00    +0.000 A 
ENDBRANCH  11  23
ENDBRANCH   1  12
BRANCH   8  27
ATOM     27  N   UNL     1       0.893   9.745  19.504  0.00  0.00    +0.000 N 
ATOM     28  C   UNL     1       0.764   9.151  20.848  0.00  0.00    +0.000 C 
ATOM     29  C   UNL     1       1.717   8.992  18.540  0.00  0.00    +0.000 C 
ATOM     30  O   UNL     1       1.739   9.327  17.364  0.00  0.00    +0.000 OA
BRANCH  29  31
ATOM     31  C   UNL     1       2.431   7.722  18.981  0.00  0.00    +0.000 C 
BRANCH  31  32
ATOM     32  C   UNL     1       3.305   7.151  17.860  0.00  0.00    +0.000 C 
BRANCH  32  33
ATOM     33  C   UNL     1       3.133   5.656  17.728  0.00  0.00    +0.000 A 
ATOM     34  C   UNL     1       4.194   4.860  17.276  0.00  0.00    +0.000 A 
ATOM     35  C   UNL     1       4.036   3.481  17.129  0.00  0.00    +0.000 A 
ATOM     36  C   UNL     1       2.813   2.883  17.427  0.00  0.00    +0.000 A 
ATOM     37  C   UNL     1       1.752   3.663  17.880  0.00  0.00    +0.000 A 
ATOM     38  C   UNL     1       1.908   5.042  18.029  0.00  0.00    +0.000 A 
ENDBRANCH  32  33
ENDBRANCH  31  32
ENDBRANCH  29  31
ENDBRANCH   8  27
TORSDOF 6
ENDMDL
MODEL 8
REMARK VINA RESULT:      -9.2      4.341      9.665
REMARK  Name = 
REMARK  9 active torsions:
REMARK  status: ('A' for Active; 'I' for Inactive)
REMARK    1  A    between atoms: C_1  and  C_2
REMARK    2  A    between atoms: C_9  and  N_10
REMARK    3  A    between atoms: C_11  and  C_13
REMARK    4  A    between atoms: C_18  and  C_19
REMARK    5  A    between atoms: C_20  and  N_21
REMARK    6  A    between atoms: N_21  and  C_22
REMARK    7  A    between atoms: C_23  and  C_25
REMARK    8  A    between atoms: C_25  and  C_26
REMARK    9  A    between atoms: C_26  and  C_27
REMARK                            x       y       z     vdW  Elec       q    Type
REMARK                         _______ _______ _______ _____ _____    ______ ____
ROOT
ATOM      1  C   UNL     1       2.198  13.985  19.299  0.00  0.00    +0.000 A 
ATOM      2  C   UNL     1       1.164  14.837  18.742  0.00  0.00    +0.000 A 
ATOM      3  C   UNL     1      -0.043  14.328  18.430  0.00  0.00    +0.000 A 
ATOM      4  C   UNL     1      -0.306  12.939  18.606  0.00  0.00    +0.000 A 
ATOM      5  N   UNL     1      -1.388  12.268  18.343  0.00  0.00    +0.000 NA
ATOM      6  C   UNL     1      -1.110  10.951  18.632  0.00  0.00    +0.000 A 
ATOM      7  C   UNL     1      -2.215  10.014  18.294  0.00  0.00    +0.000 C 
ATOM      8  C   UNL     1       0.201  10.789  19.117  0.00  0.00    +0.000 A 
ATOM      9  N   UNL     1       0.700  12.120  19.117  0.00  0.00    +0.000 N 
ATOM     10  C   UNL     1       1.929  12.673  19.497  0.00  0.00    +0.000 A 
ENDROOT
BRANCH   1  12
ATOM     11  N   UNL     1       4.335  14.799  18.397  0.00  0.00    +0.000 N 
ATOM     12  C   UNL     1       3.629  14.389  19.514  0.00  0.00    +0.000 C 
ATOM     13  O   UNL     1       4.061  14.325  20.660  0.00  0.00    +0.000 OA
ATOM     14  H   UNL     1       3.852  14.864  17.512  0.00  0.00    +0.000 HD
BRANCH  11  23
ATOM     15  C   UNL     1      12.044  17.037  18.085  0.00  0.00    +0.000 C 
ATOM     16  C   UNL     1      10.838  16.153  17.848  0.00  0.00    +0.000 C 
ATOM     17  O   UNL     1      10.967  15.073  17.273  0.00  0.00    +0.000 OA
ATOM     18  N   UNL     1       9.645  16.650  18.341  0.00  0.00    +0.000 N 
ATOM     19  C   UNL     1       9.460  17.989  18.927  0.00  0.00    +0.000 C 
ATOM     20  C   UNL     1       8.023  18.072  19.444  0.00  0.00    +0.000 C 
ATOM     21  C   UNL     1       7.428  16.829  18.872  0.00  0.00    +0.000 A 
ATOM     22  C   UNL     1       6.095  16.453  18.939  0.00  0.00    +0.000 A 
ATOM     23  C   UNL     1       5.691  15.231  18.395  0.00  0.00    +0.000 A 
ATOM     24  C   UNL     1       6.670  14.396  17.820  0.00  0.00    +0.000 A 
ATOM     25  C   UNL     1       8.025  14.786  17.760  0.00  0.00    +0.000 A 
ATOM     26  C   UNL     1       8.388  16.015  18.282  0.00  0.00    +0.000 A 
ENDBRANCH  11  23
ENDBRANCH   1  12
BRANCH   8  27
ATOM     27  N   UNL     1       0.888   9.570  19.467  0.00  0.00    +0.000 N 
ATOM     28  C   UNL     1       0.708   8.907  20.771  0.00  0.00    +0.000 C 
ATOM     29  C   UNL     1       1.778   8.886  18.510  0.00  0.00    +0.000 C 
ATOM     30  O   UNL     1       1.850   9.280  17.355  0.00  0.00    +0.000 OA
BRANCH  29  31
ATOM     31  C   UNL     1       2.500   7.612  18.924  0.00  0.00    +0.000 C 
BRANCH  31  32
ATOM     32  C   UNL     1       3.272   6.998  17.752  0.00  0.00    +0.000 C 
BRANCH  32  33
ATOM     33  C   UNL     1       3.126   5.494  17.718  0.00  0.00    +0.000 A 
ATOM     34  C   UNL     1       1.869   4.903  17.900  0.00  0.00    +0.000 A 
ATOM     35  C   UNL     1       1.729   3.514  17.894  0.00  0.00    +0.000 A 
ATOM     36  C   UNL     1       2.845   2.701  17.708  0.00  0.00    +0.000 A 
ATOM     37  C   UNL     1       4.099   3.276  17.522  0.00  0.00    +0.000 A 
ATOM     38  C   UNL     1       4.242   4.666  17.528  0.00  0.00    +0.000 A 
ENDBRANCH  32  33
ENDBRANCH  31  32
ENDBRANCH  29  31
ENDBRANCH   8  27
TORSDOF 6
ENDMDL
MODEL 9
REMARK VINA RESULT:      -9.0      2.709      8.854
REMARK  Name = 
REMARK  9 active torsions:
REMARK  status: ('A' for Active; 'I' for Inactive)
REMARK    1  A    between atoms: C_1  and  C_2
REMARK    2  A    between atoms: C_9  and  N_10
REMARK    3  A    between atoms: C_11  and  C_13
REMARK    4  A    between atoms: C_18  and  C_19
REMARK    5  A    between atoms: C_20  and  N_21
REMARK    6  A    between atoms: N_21  and  C_22
REMARK    7  A    between atoms: C_23  and  C_25
REMARK    8  A    between atoms: C_25  and  C_26
REMARK    9  A    between atoms: C_26  and  C_27
REMARK                            x       y       z     vdW  Elec       q    Type
REMARK                         _______ _______ _______ _____ _____    ______ ____
ROOT
ATOM      1  C   UNL     1       6.199   6.292  16.853  0.00  0.00    +0.000 A 
ATOM      2  C   UNL     1       6.375   4.976  16.267  0.00  0.00    +0.000 A 
ATOM      3  C   UNL     1       5.391   4.061  16.341  0.00  0.00    +0.000 A 
ATOM      4  C   UNL     1       4.179   4.360  17.028  0.00  0.00    +0.000 A 
ATOM      5  N   UNL     1       3.138   3.606  17.223  0.00  0.00    +0.000 NA
ATOM      6  C   UNL     1       2.266   4.338  17.997  0.00  0.00    +0.000 A 
ATOM      7  C   UNL     1       1.047   3.589  18.405  0.00  0.00    +0.000 C 
ATOM      8  C   UNL     1       2.775   5.618  18.287  0.00  0.00    +0.000 A 
ATOM      9  N   UNL     1       4.026   5.616  17.612  0.00  0.00    +0.000 N 
ATOM     10  C   UNL     1       5.031   6.582  17.474  0.00  0.00    +0.000 A 
ENDROOT
BRANCH   1  12
ATOM     11  N   UNL     1       7.001   8.406  17.818  0.00  0.00    +0.000 N 
ATOM     12  C   UNL     1       7.279   7.327  16.997  0.00  0.00    +0.000 C 
ATOM     13  O   UNL     1       8.320   7.136  16.380  0.00  0.00    +0.000 OA
ATOM     14  H   UNL     1       6.125   8.423  18.320  0.00  0.00    +0.000 HD
BRANCH  11  23
ATOM     15  C   UNL     1      12.306  14.214  19.444  0.00  0.00    +0.000 C 
ATOM     16  C   UNL     1      11.685  12.835  19.508  0.00  0.00    +0.000 C 
ATOM     17  O   UNL     1      12.191  11.962  20.212  0.00  0.00    +0.000 OA
ATOM     18  N   UNL     1      10.539  12.676  18.751  0.00  0.00    +0.000 N 
ATOM     19  C   UNL     1       9.992  13.677  17.817  0.00  0.00    +0.000 C 
ATOM     20  C   UNL     1       8.663  13.136  17.289  0.00  0.00    +0.000 C 
ATOM     21  C   UNL     1       8.691  11.732  17.793  0.00  0.00    +0.000 A 
ATOM     22  C   UNL     1       7.763  10.741  17.508  0.00  0.00    +0.000 A 
ATOM     23  C   UNL     1       7.894   9.479  18.093  0.00  0.00    +0.000 A 
ATOM     24  C   UNL     1       8.959   9.263  18.992  0.00  0.00    +0.000 A 
ATOM     25  C   UNL     1       9.895  10.280  19.278  0.00  0.00    +0.000 A 
ATOM     26  C   UNL     1       9.754  11.510  18.660  0.00  0.00    +0.000 A 
ENDBRANCH  11  23
ENDBRANCH   1  12
BRANCH   8  27
ATOM     27  N   UNL     1       2.200   6.650  19.114  0.00  0.00    +0.000 N 
ATOM     28  C   UNL     1       1.926   6.452  20.550  0.00  0.00    +0.000 C 
ATOM     29  C   UNL     1       1.898   7.990  18.577  0.00  0.00    +0.000 C 
ATOM     30  O   UNL     1       2.248   8.286  17.444  0.00  0.00    +0.000 OA
BRANCH  29  31
ATOM     31  C   UNL     1       1.272   9.045  19.477  0.00  0.00    +0.000 C 
BRANCH  31  32
ATOM     32  C   UNL     1       1.046  10.361  18.728  0.00  0.00    +0.000 C 
BRANCH  32  33
ATOM     33  C   UNL     1      -0.425  10.638  18.522  0.00  0.00    +0.000 A 
ATOM     34  C   UNL     1      -1.072  11.619  19.287  0.00  0.00    +0.000 A 
ATOM     35  C   UNL     1      -2.436  11.864  19.120  0.00  0.00    +0.000 A 
ATOM     36  C   UNL     1      -3.169  11.130  18.190  0.00  0.00    +0.000 A 
ATOM     37  C   UNL     1      -2.537  10.155  17.423  0.00  0.00    +0.000 A 
ATOM     38  C   UNL     1      -1.173   9.908  17.587  0.00  0.00    +0.000 A 
ENDBRANCH  32  33
ENDBRANCH  31  32
ENDBRANCH  29  31
ENDBRANCH   8  27
TORSDOF 6
ENDMDL
