MODEL 1
REMARK VINA RESULT:      -7.0      0.000      0.000
REMARK  Name = 
REMARK  11 active torsions:
REMARK  status: ('A' for Active; 'I' for Inactive)
REMARK    1  A    between atoms: C_1  and  O_2
REMARK    2  A    between atoms: O_2  and  C_3
REMARK    3  A    between atoms: C_3  and  C_4
REMARK    4  A    between atoms: C_6  and  C_7
REMARK    5  A    between atoms: C_9  and  S_10
REMARK    6  A    between atoms: S_10  and  C_11
REMARK    7  A    between atoms: C_11  and  C_12
REMARK    8  A    between atoms: N_14  and  C_15
REMARK    9  A    between atoms: C_18  and  C_19
REMARK   10  A    between atoms: C_20  and  C_21
REMARK   11  A    between atoms: C_23  and  C_24
REMARK                            x       y       z     vdW  Elec       q    Type
REMARK                         _______ _______ _______ _____ _____    ______ ____
ROOT
ATOM      1  S   UNL     1       3.892   2.762  19.963  0.00  0.00    +0.000 S 
ENDROOT
BRANCH   1   7
ATOM      2  C   UNL     1       5.344   5.242  17.039  0.00  0.00    +0.000 A 
ATOM      3  C   UNL     1       6.473   5.743  17.702  0.00  0.00    +0.000 A 
ATOM      4  C   UNL     1       6.754   5.310  18.991  0.00  0.00    +0.000 A 
ATOM      5  C   UNL     1       7.959   5.810  19.727  0.00  0.00    +0.000 C 
ATOM      6  N   UNL     1       5.969   4.423  19.642  0.00  0.00    +0.000 NA
ATOM      7  C   UNL     1       4.874   3.929  19.011  0.00  0.00    +0.000 A 
ATOM      8  C   UNL     1       4.529   4.307  17.709  0.00  0.00    +0.000 A 
BRANCH   8   9
ATOM      9  C   UNL     1       3.379   3.750  17.057  0.00  0.00    +0.000 C 
ATOM     10  N   UNL     1       2.454   3.263  16.544  0.00  0.00    +0.000 NA
ENDBRANCH   8   9
BRANCH   2  11
ATOM     11  C   UNL     1       5.038   5.721  15.643  0.00  0.00    +0.000 C 
BRANCH  11  13
ATOM     12  C   UNL     1       6.358   4.471  14.147  0.00  0.00    +0.000 C 
ATOM     13  O   UNL     1       6.243   5.681  14.886  0.00  0.00    +0.000 OA
ENDBRANCH  11  13
ENDBRANCH   2  11
ENDBRANCH   1   7
BRANCH   1  14
ATOM     14  C   UNL     1       3.020   3.900  21.091  0.00  0.00    +0.000 C 
BRANCH  14  15
ATOM     15  C   UNL     1       2.215   4.936  20.324  0.00  0.00    +0.000 C 
ATOM     16  O   UNL     1       1.258   4.583  19.636  0.00  0.00    +0.000 OA
ATOM     17  N   UNL     1       2.628   6.248  20.526  0.00  0.00    +0.000 N 
ATOM     18  H   UNL     1       3.540   6.366  20.953  0.00  0.00    +0.000 HD
BRANCH  17  19
ATOM     19  C   UNL     1       2.031   7.402  19.968  0.00  0.00    +0.000 A 
ATOM     20  C   UNL     1       2.222   7.795  18.646  0.00  0.00    +0.000 A 
ATOM     21  C   UNL     1       1.667   8.986  18.170  0.00  0.00    +0.000 A 
ATOM     22  C   UNL     1       0.904   9.814  19.002  0.00  0.00    +0.000 A 
ATOM     23  C   UNL     1       0.389  11.113  18.448  0.00  0.00    +0.000 C 
ATOM     24  C   UNL     1       0.663   9.407  20.327  0.00  0.00    +0.000 A 
ATOM     25  C   UNL     1      -0.138  10.233  21.298  0.00  0.00    +0.000 C 
ATOM     26  C   UNL     1       1.217   8.193  20.789  0.00  0.00    +0.000 A 
ENDBRANCH  17  19
ENDBRANCH  14  15
ENDBRANCH   1  14
TORSDOF 7
ENDMDL
MODEL 2
REMARK VINA RESULT:      -6.8      4.048      6.824
REMARK  Name = 
REMARK  11 active torsions:
REMARK  status: ('A' for Active; 'I' for Inactive)
REMARK    1  A    between atoms: C_1  and  O_2
REMARK    2  A    between atoms: O_2  and  C_3
REMARK    3  A    between atoms: C_3  and  C_4
REMARK    4  A    between atoms: C_6  and  C_7
REMARK    5  A    between atoms: C_9  and  S_10
REMARK    6  A    between atoms: S_10  and  C_11
REMARK    7  A    between atoms: C_11  and  C_12
REMARK    8  A    between atoms: N_14  and  C_15
REMARK    9  A    between atoms: C_18  and  C_19
REMARK   10  A    between atoms: C_20  and  C_21
REMARK   11  A    between atoms: C_23  and  C_24
REMARK                            x       y       z     vdW  Elec       q    Type
REMARK                         _______ _______ _______ _____ _____    ______ ____
ROOT
ATOM      1  S   UNL     1       6.345   5.329  17.395  0.00  0.00    +0.000 S 
ENDROOT
BRANCH   1   7
ATOM      2  C   UNL     1       2.942   5.529  19.672  0.00  0.00    +0.000 A 
ATOM      3  C   UNL     1       2.420   6.742  19.201  0.00  0.00    +0.000 A 
ATOM      4  C   UNL     1       3.105   7.441  18.217  0.00  0.00    +0.000 A 
ATOM      5  C   UNL     1       2.573   8.733  17.675  0.00  0.00    +0.000 C 
ATOM      6  N   UNL     1       4.272   6.999  17.696  0.00  0.00    +0.000 NA
ATOM      7  C   UNL     1       4.787   5.826  18.143  0.00  0.00    +0.000 A 
ATOM      8  C   UNL     1       4.151   5.058  19.124  0.00  0.00    +0.000 A 
BRANCH   8   9
ATOM      9  C   UNL     1       4.706   3.808  19.560  0.00  0.00    +0.000 C 
ATOM     10  N   UNL     1       5.138   2.777  19.884  0.00  0.00    +0.000 NA
ENDBRANCH   8   9
BRANCH   2  11
ATOM     11  C   UNL     1       2.198   4.777  20.747  0.00  0.00    +0.000 C 
BRANCH  11  13
ATOM     12  C   UNL     1       1.231   2.674  20.315  0.00  0.00    +0.000 C 
ATOM     13  O   UNL     1       1.118   4.081  20.135  0.00  0.00    +0.000 OA
ENDBRANCH  11  13
ENDBRANCH   2  11
ENDBRANCH   1   7
BRANCH   1  14
ATOM     14  C   UNL     1       7.529   6.181  18.489  0.00  0.00    +0.000 C 
BRANCH  14  15
ATOM     15  C   UNL     1       7.853   7.577  17.981  0.00  0.00    +0.000 C 
ATOM     16  O   UNL     1       7.531   7.903  16.840  0.00  0.00    +0.000 OA
ATOM     17  N   UNL     1       8.465   8.400  18.919  0.00  0.00    +0.000 N 
ATOM     18  H   UNL     1       8.843   7.938  19.738  0.00  0.00    +0.000 HD
BRANCH  17  19
ATOM     19  C   UNL     1       8.835   9.751  18.722  0.00  0.00    +0.000 A 
ATOM     20  C   UNL     1       8.180  10.598  17.833  0.00  0.00    +0.000 A 
ATOM     21  C   UNL     1       8.636  11.902  17.624  0.00  0.00    +0.000 A 
ATOM     22  C   UNL     1       9.759  12.394  18.301  0.00  0.00    +0.000 A 
ATOM     23  C   UNL     1      10.238  13.784  17.984  0.00  0.00    +0.000 C 
ATOM     24  C   UNL     1      10.403  11.566  19.238  0.00  0.00    +0.000 A 
ATOM     25  C   UNL     1      11.620  12.005  20.008  0.00  0.00    +0.000 C 
ATOM     26  C   UNL     1       9.920  10.257  19.450  0.00  0.00    +0.000 A 
ENDBRANCH  17  19
ENDBRANCH  14  15
ENDBRANCH   1  14
TORSDOF 7
ENDMDL
MODEL 3
REMARK VINA RESULT:      -6.5      4.175      6.690
REMARK  Name = 
REMARK  11 active torsions:
REMARK  status: ('A' for Active; 'I' for Inactive)
REMARK    1  A    between atoms: C_1  and  O_2
REMARK    2  A    between atoms: O_2  and  C_3
REMARK    3  A    between atoms: C_3  and  C_4
REMARK    4  A    between atoms: C_6  and  C_7
REMARK    5  A    between atoms: C_9  and  S_10
REMARK    6  A    between atoms: S_10  and  C_11
REMARK    7  A    between atoms: C_11  and  C_12
REMARK    8  A    between atoms: N_14  and  C_15
REMARK    9  A    between atoms: C_18  and  C_19
REMARK   10  A    between atoms: C_20  and  C_21
REMARK   11  A    between atoms: C_23  and  C_24
REMARK                            x       y       z     vdW  Elec       q    Type
REMARK                         _______ _______ _______ _____ _____    ______ ____
ROOT
ATOM      1  S   UNL     1       6.548   5.169  17.930  0.00  0.00    +0.000 S 
ENDROOT
BRANCH   1   7
ATOM      2  C   UNL     1       2.734   4.968  19.422  0.00  0.00    +0.000 A 
ATOM      3  C   UNL     1       2.243   6.199  18.965  0.00  0.00    +0.000 A 
ATOM      4  C   UNL     1       3.072   7.030  18.224  0.00  0.00    +0.000 A 
ATOM      5  C   UNL     1       2.580   8.347  17.704  0.00  0.00    +0.000 C 
ATOM      6  N   UNL     1       4.350   6.700  17.930  0.00  0.00    +0.000 NA
ATOM      7  C   UNL     1       4.837   5.511  18.366  0.00  0.00    +0.000 A 
ATOM      8  C   UNL     1       4.062   4.614  19.108  0.00  0.00    +0.000 A 
BRANCH   8   9
ATOM      9  C   UNL     1       4.596   3.352  19.533  0.00  0.00    +0.000 C 
ATOM     10  N   UNL     1       4.999   2.324  19.902  0.00  0.00    +0.000 NA
ENDBRANCH   8   9
BRANCH   2  11
ATOM     11  C   UNL     1       1.833   4.072  20.233  0.00  0.00    +0.000 C 
BRANCH  11  13
ATOM     12  C   UNL     1       0.997   2.345  18.870  0.00  0.00    +0.000 C 
ATOM     13  O   UNL     1       0.764   3.645  19.397  0.00  0.00    +0.000 OA
ENDBRANCH  11  13
ENDBRANCH   2  11
ENDBRANCH   1   7
BRANCH   1  14
ATOM     14  C   UNL     1       6.997   6.726  17.092  0.00  0.00    +0.000 C 
BRANCH  14  15
ATOM     15  C   UNL     1       7.842   7.617  17.987  0.00  0.00    +0.000 C 
ATOM     16  O   UNL     1       8.504   7.120  18.898  0.00  0.00    +0.000 OA
ATOM     17  N   UNL     1       7.822   8.963  17.640  0.00  0.00    +0.000 N 
ATOM     18  H   UNL     1       7.087   9.247  17.003  0.00  0.00    +0.000 HD
BRANCH  17  19
ATOM     19  C   UNL     1       8.547   9.996  18.278  0.00  0.00    +0.000 A 
ATOM     20  C   UNL     1       9.322   9.792  19.416  0.00  0.00    +0.000 A 
ATOM     21  C   UNL     1       9.957  10.865  20.048  0.00  0.00    +0.000 A 
ATOM     22  C   UNL     1       9.834  12.170  19.557  0.00  0.00    +0.000 A 
ATOM     23  C   UNL     1      10.488  13.289  20.319  0.00  0.00    +0.000 C 
ATOM     24  C   UNL     1       9.093  12.386  18.381  0.00  0.00    +0.000 A 
ATOM     25  C   UNL     1       8.899  13.754  17.782  0.00  0.00    +0.000 C 
ATOM     26  C   UNL     1       8.472  11.290  17.745  0.00  0.00    +0.000 A 
ENDBRANCH  17  19
ENDBRANCH  14  15
ENDBRANCH   1  14
TORSDOF 7
ENDMDL
MODEL 4
REMARK VINA RESULT:      -6.4      3.052      4.630
REMARK  Name = 
REMARK  11 active torsions:
REMARK  status: ('A' for Active; 'I' for Inactive)
REMARK    1  A    between atoms: C_1  and  O_2
REMARK    2  A    between atoms: O_2  and  C_3
REMARK    3  A    between atoms: C_3  and  C_4
REMARK    4  A    between atoms: C_6  and  C_7
REMARK    5  A    between atoms: C_9  and  S_10
REMARK    6  A    between atoms: S_10  and  C_11
REMARK    7  A    between atoms: C_11  and  C_12
REMARK    8  A    between atoms: N_14  and  C_15
REMARK    9  A    between atoms: C_18  and  C_19
REMARK   10  A    between atoms: C_20  and  C_21
REMARK   11  A    between atoms: C_23  and  C_24
REMARK                            x       y       z     vdW  Elec       q    Type
REMARK                         _______ _______ _______ _____ _____    ______ ____
ROOT
ATOM      1  S   UNL     1       2.426   7.383  19.138  0.00  0.00    +0.000 S 
ENDROOT
BRANCH   1   7
ATOM      2  C   UNL     1       3.218   3.611  17.738  0.00  0.00    +0.000 A 
ATOM      3  C   UNL     1       4.219   3.918  16.805  0.00  0.00    +0.000 A 
ATOM      4  C   UNL     1       4.617   5.238  16.642  0.00  0.00    +0.000 A 
ATOM      5  C   UNL     1       5.694   5.604  15.667  0.00  0.00    +0.000 C 
ATOM      6  N   UNL     1       4.067   6.250  17.349  0.00  0.00    +0.000 NA
ATOM      7  C   UNL     1       3.098   5.967  18.256  0.00  0.00    +0.000 A 
ATOM      8  C   UNL     1       2.650   4.662  18.486  0.00  0.00    +0.000 A 
BRANCH   8   9
ATOM      9  C   UNL     1       1.642   4.389  19.469  0.00  0.00    +0.000 C 
ATOM     10  N   UNL     1       0.805   4.147  20.242  0.00  0.00    +0.000 NA
ENDBRANCH   8   9
BRANCH   2  11
ATOM     11  C   UNL     1       2.783   2.178  17.905  0.00  0.00    +0.000 C 
BRANCH  11  13
ATOM     12  C   UNL     1       4.246   1.816  19.713  0.00  0.00    +0.000 C 
ATOM     13  O   UNL     1       3.893   1.431  18.391  0.00  0.00    +0.000 OA
ENDBRANCH  11  13
ENDBRANCH   2  11
ENDBRANCH   1   7
BRANCH   1  14
ATOM     14  C   UNL     1       2.376   8.619  17.798  0.00  0.00    +0.000 C 
BRANCH  14  15
ATOM     15  C   UNL     1       1.575   9.846  18.200  0.00  0.00    +0.000 C 
ATOM     16  O   UNL     1       2.069  10.966  18.082  0.00  0.00    +0.000 OA
ATOM     17  N   UNL     1       0.284   9.570  18.635  0.00  0.00    +0.000 N 
ATOM     18  H   UNL     1       0.088   8.603  18.865  0.00  0.00    +0.000 HD
BRANCH  17  19
ATOM     19  C   UNL     1      -0.681  10.526  19.028  0.00  0.00    +0.000 A 
ATOM     20  C   UNL     1      -0.553  11.313  20.168  0.00  0.00    +0.000 A 
ATOM     21  C   UNL     1      -1.574  12.189  20.549  0.00  0.00    +0.000 A 
ATOM     22  C   UNL     1      -2.750  12.301  19.797  0.00  0.00    +0.000 A 
ATOM     23  C   UNL     1      -3.837  13.212  20.294  0.00  0.00    +0.000 C 
ATOM     24  C   UNL     1      -2.875  11.547  18.615  0.00  0.00    +0.000 A 
ATOM     25  C   UNL     1      -4.103  11.596  17.747  0.00  0.00    +0.000 C 
ATOM     26  C   UNL     1      -1.828  10.679  18.236  0.00  0.00    +0.000 A 
ENDBRANCH  17  19
ENDBRANCH  14  15
ENDBRANCH   1  14
TORSDOF 7
ENDMDL
MODEL 5
REMARK VINA RESULT:      -6.4      3.375      4.888
REMARK  Name = 
REMARK  11 active torsions:
REMARK  status: ('A' for Active; 'I' for Inactive)
REMARK    1  A    between atoms: C_1  and  O_2
REMARK    2  A    between atoms: O_2  and  C_3
REMARK    3  A    between atoms: C_3  and  C_4
REMARK    4  A    between atoms: C_6  and  C_7
REMARK    5  A    between atoms: C_9  and  S_10
REMARK    6  A    between atoms: S_10  and  C_11
REMARK    7  A    between atoms: C_11  and  C_12
REMARK    8  A    between atoms: N_14  and  C_15
REMARK    9  A    between atoms: C_18  and  C_19
REMARK   10  A    between atoms: C_20  and  C_21
REMARK   11  A    between atoms: C_23  and  C_24
REMARK                            x       y       z     vdW  Elec       q    Type
REMARK                         _______ _______ _______ _____ _____    ______ ____
ROOT
ATOM      1  S   UNL     1       2.320   8.340  17.796  0.00  0.00    +0.000 S 
ENDROOT
BRANCH   1   7
ATOM      2  C   UNL     1       4.564   4.943  18.281  0.00  0.00    +0.000 A 
ATOM      3  C   UNL     1       3.946   4.420  19.426  0.00  0.00    +0.000 A 
ATOM      4  C   UNL     1       2.880   5.103  19.996  0.00  0.00    +0.000 A 
ATOM      5  C   UNL     1       2.183   4.570  21.210  0.00  0.00    +0.000 C 
ATOM      6  N   UNL     1       2.416   6.268  19.491  0.00  0.00    +0.000 NA
ATOM      7  C   UNL     1       3.005   6.784  18.383  0.00  0.00    +0.000 A 
ATOM      8  C   UNL     1       4.076   6.151  17.744  0.00  0.00    +0.000 A 
BRANCH   8   9
ATOM      9  C   UNL     1       4.663   6.707  16.559  0.00  0.00    +0.000 C 
ATOM     10  N   UNL     1       5.166   7.130  15.598  0.00  0.00    +0.000 NA
ENDBRANCH   8   9
BRANCH   2  11
ATOM     11  C   UNL     1       5.727   4.202  17.670  0.00  0.00    +0.000 C 
BRANCH  11  13
ATOM     12  C   UNL     1       7.493   5.509  18.513  0.00  0.00    +0.000 C 
ATOM     13  O   UNL     1       6.818   4.259  18.581  0.00  0.00    +0.000 OA
ENDBRANCH  11  13
ENDBRANCH   2  11
ENDBRANCH   1   7
BRANCH   1  14
ATOM     14  C   UNL     1       1.855   9.119  19.378  0.00  0.00    +0.000 C 
BRANCH  14  15
ATOM     15  C   UNL     1       0.399   9.552  19.379  0.00  0.00    +0.000 C 
ATOM     16  O   UNL     1      -0.263   9.470  20.413  0.00  0.00    +0.000 OA
ATOM     17  N   UNL     1      -0.048  10.067  18.168  0.00  0.00    +0.000 N 
ATOM     18  H   UNL     1       0.542   9.888  17.364  0.00  0.00    +0.000 HD
BRANCH  17  19
ATOM     19  C   UNL     1      -1.342  10.576  17.909  0.00  0.00    +0.000 A 
ATOM     20  C   UNL     1      -2.061  11.332  18.830  0.00  0.00    +0.000 A 
ATOM     21  C   UNL     1      -3.366  11.746  18.547  0.00  0.00    +0.000 A 
ATOM     22  C   UNL     1      -3.985  11.416  17.336  0.00  0.00    +0.000 A 
ATOM     23  C   UNL     1      -5.412  11.835  17.119  0.00  0.00    +0.000 C 
ATOM     24  C   UNL     1      -3.254  10.692  16.375  0.00  0.00    +0.000 A 
ATOM     25  C   UNL     1      -3.837  10.285  15.048  0.00  0.00    +0.000 C 
ATOM     26  C   UNL     1      -1.931  10.296  16.669  0.00  0.00    +0.000 A 
ENDBRANCH  17  19
ENDBRANCH  14  15
ENDBRANCH   1  14
TORSDOF 7
ENDMDL
MODEL 6
REMARK VINA RESULT:      -6.4      4.184      6.890
REMARK  Name = 
REMARK  11 active torsions:
REMARK  status: ('A' for Active; 'I' for Inactive)
REMARK    1  A    between atoms: C_1  and  O_2
REMARK    2  A    between atoms: O_2  and  C_3
REMARK    3  A    between atoms: C_3  and  C_4
REMARK    4  A    between atoms: C_6  and  C_7
REMARK    5  A    between atoms: C_9  and  S_10
REMARK    6  A    between atoms: S_10  and  C_11
REMARK    7  A    between atoms: C_11  and  C_12
REMARK    8  A    between atoms: N_14  and  C_15
REMARK    9  A    between atoms: C_18  and  C_19
REMARK   10  A    between atoms: C_20  and  C_21
REMARK   11  A    between atoms: C_23  and  C_24
REMARK                            x       y       z     vdW  Elec       q    Type
REMARK                         _______ _______ _______ _____ _____    ______ ____
ROOT
ATOM      1  S   UNL     1       6.170   6.154  16.845  0.00  0.00    +0.000 S 
ENDROOT
BRANCH   1   7
ATOM      2  C   UNL     1       3.052   5.842  19.489  0.00  0.00    +0.000 A 
ATOM      3  C   UNL     1       2.347   7.007  19.152  0.00  0.00    +0.000 A 
ATOM      4  C   UNL     1       2.832   7.828  18.144  0.00  0.00    +0.000 A 
ATOM      5  C   UNL     1       2.100   9.073  17.744  0.00  0.00    +0.000 C 
ATOM      6  N   UNL     1       3.973   7.552  17.473  0.00  0.00    +0.000 NA
ATOM      7  C   UNL     1       4.664   6.428  17.789  0.00  0.00    +0.000 A 
ATOM      8  C   UNL     1       4.235   5.543  18.784  0.00  0.00    +0.000 A 
BRANCH   8   9
ATOM      9  C   UNL     1       4.972   4.349  19.079  0.00  0.00    +0.000 C 
ATOM     10  N   UNL     1       5.594   3.400  19.341  0.00  0.00    +0.000 NA
ENDBRANCH   8   9
BRANCH   2  11
ATOM     11  C   UNL     1       2.526   4.957  20.591  0.00  0.00    +0.000 C 
BRANCH  11  13
ATOM     12  C   UNL     1       0.799   3.550  19.831  0.00  0.00    +0.000 C 
ATOM     13  O   UNL     1       2.200   3.692  20.026  0.00  0.00    +0.000 OA
ENDBRANCH  11  13
ENDBRANCH   2  11
ENDBRANCH   1   7
BRANCH   1  14
ATOM     14  C   UNL     1       7.426   6.658  18.067  0.00  0.00    +0.000 C 
BRANCH  14  15
ATOM     15  C   UNL     1       7.780   8.129  17.929  0.00  0.00    +0.000 C 
ATOM     16  O   UNL     1       7.220   8.816  17.076  0.00  0.00    +0.000 OA
ATOM     17  N   UNL     1       8.709   8.585  18.857  0.00  0.00    +0.000 N 
ATOM     18  H   UNL     1       9.223   7.871  19.359  0.00  0.00    +0.000 HD
BRANCH  17  19
ATOM     19  C   UNL     1       9.181   9.913  18.975  0.00  0.00    +0.000 A 
ATOM     20  C   UNL     1       9.722  10.627  17.910  0.00  0.00    +0.000 A 
ATOM     21  C   UNL     1      10.241  11.910  18.103  0.00  0.00    +0.000 A 
ATOM     22  C   UNL     1      10.231  12.514  19.367  0.00  0.00    +0.000 A 
ATOM     23  C   UNL     1      10.863  13.869  19.521  0.00  0.00    +0.000 C 
ATOM     24  C   UNL     1       9.645  11.824  20.444  0.00  0.00    +0.000 A 
ATOM     25  C   UNL     1       9.594  12.388  21.838  0.00  0.00    +0.000 C 
ATOM     26  C   UNL     1       9.110  10.535  20.229  0.00  0.00    +0.000 A 
ENDBRANCH  17  19
ENDBRANCH  14  15
ENDBRANCH   1  14
TORSDOF 7
ENDMDL
MODEL 7
REMARK VINA RESULT:      -6.3      5.390      7.294
REMARK  Name = 
REMARK  11 active torsions:
REMARK  status: ('A' for Active; 'I' for Inactive)
REMARK    1  A    between atoms: C_1  and  O_2
REMARK    2  A    between atoms: O_2  and  C_3
REMARK    3  A    between atoms: C_3  and  C_4
REMARK    4  A    between atoms: C_6  and  C_7
REMARK    5  A    between atoms: C_9  and  S_10
REMARK    6  A    between atoms: S_10  and  C_11
REMARK    7  A    between atoms: C_11  and  C_12
REMARK    8  A    between atoms: N_14  and  C_15
REMARK    9  A    between atoms: C_18  and  C_19
REMARK   10  A    between atoms: C_20  and  C_21
REMARK   11  A    between atoms: C_23  and  C_24
REMARK                            x       y       z     vdW  Elec       q    Type
REMARK                         _______ _______ _______ _____ _____    ______ ____
ROOT
ATOM      1  S   UNL     1       7.788   6.752  18.345  0.00  0.00    +0.000 S 
ENDROOT
BRANCH   1   7
ATOM      2  C   UNL     1       4.924   4.431  16.550  0.00  0.00    +0.000 A 
ATOM      3  C   UNL     1       5.476   4.337  15.264  0.00  0.00    +0.000 A 
ATOM      4  C   UNL     1       6.685   4.965  14.995  0.00  0.00    +0.000 A 
ATOM      5  C   UNL     1       7.315   4.875  13.639  0.00  0.00    +0.000 C 
ATOM      6  N   UNL     1       7.352   5.678  15.929  0.00  0.00    +0.000 NA
ATOM      7  C   UNL     1       6.829   5.776  17.178  0.00  0.00    +0.000 A 
ATOM      8  C   UNL     1       5.622   5.163  17.531  0.00  0.00    +0.000 A 
BRANCH   8   9
ATOM      9  C   UNL     1       5.105   5.263  18.865  0.00  0.00    +0.000 C 
ATOM     10  N   UNL     1       4.650   5.339  19.934  0.00  0.00    +0.000 NA
ENDBRANCH   8   9
BRANCH   2  11
ATOM     11  C   UNL     1       3.607   3.754  16.836  0.00  0.00    +0.000 C 
BRANCH  11  13
ATOM     12  C   UNL     1       3.252   2.138  18.509  0.00  0.00    +0.000 C 
ATOM     13  O   UNL     1       3.876   2.424  17.264  0.00  0.00    +0.000 OA
ENDBRANCH  11  13
ENDBRANCH   2  11
ENDBRANCH   1   7
BRANCH   1  14
ATOM     14  C   UNL     1       7.631   8.410  17.602  0.00  0.00    +0.000 C 
BRANCH  14  15
ATOM     15  C   UNL     1       8.541   9.416  18.287  0.00  0.00    +0.000 C 
ATOM     16  O   UNL     1       9.113   9.112  19.333  0.00  0.00    +0.000 OA
ATOM     17  N   UNL     1       8.683  10.619  17.605  0.00  0.00    +0.000 N 
ATOM     18  H   UNL     1       8.006  10.798  16.874  0.00  0.00    +0.000 HD
BRANCH  17  19
ATOM     19  C   UNL     1       9.498  11.705  17.999  0.00  0.00    +0.000 A 
ATOM     20  C   UNL     1      10.863  11.769  17.735  0.00  0.00    +0.000 A 
ATOM     21  C   UNL     1      11.633  12.833  18.214  0.00  0.00    +0.000 A 
ATOM     22  C   UNL     1      11.056  13.862  18.968  0.00  0.00    +0.000 A 
ATOM     23  C   UNL     1      11.950  14.944  19.508  0.00  0.00    +0.000 C 
ATOM     24  C   UNL     1       9.669  13.837  19.203  0.00  0.00    +0.000 A 
ATOM     25  C   UNL     1       8.963  14.895  20.007  0.00  0.00    +0.000 C 
ATOM     26  C   UNL     1       8.903  12.764  18.698  0.00  0.00    +0.000 A 
ENDBRANCH  17  19
ENDBRANCH  14  15
ENDBRANCH   1  14
TORSDOF 7
ENDMDL
MODEL 8
REMARK VINA RESULT:      -6.3      2.846      4.401
REMARK  Name = 
REMARK  11 active torsions:
REMARK  status: ('A' for Active; 'I' for Inactive)
REMARK    1  A    between atoms: C_1  and  O_2
REMARK    2  A    between atoms: O_2  and  C_3
REMARK    3  A    between atoms: C_3  and  C_4
REMARK    4  A    between atoms: C_6  and  C_7
REMARK    5  A    between atoms: C_9  and  S_10
REMARK    6  A    between atoms: S_10  and  C_11
REMARK    7  A    between atoms: C_11  and  C_12
REMARK    8  A    between atoms: N_14  and  C_15
REMARK    9  A    between atoms: C_18  and  C_19
REMARK   10  A    between atoms: C_20  and  C_21
REMARK   11  A    between atoms: C_23  and  C_24
REMARK                            x       y       z     vdW  Elec       q    Type
REMARK                         _______ _______ _______ _____ _____    ______ ____
ROOT
ATOM      1  S   UNL     1       2.454   7.309  19.148  0.00  0.00    +0.000 S 
ENDROOT
BRANCH   1   7
ATOM      2  C   UNL     1       3.213   3.559  17.673  0.00  0.00    +0.000 A 
ATOM      3  C   UNL     1       4.223   3.873  16.753  0.00  0.00    +0.000 A 
ATOM      4  C   UNL     1       4.638   5.192  16.622  0.00  0.00    +0.000 A 
ATOM      5  C   UNL     1       5.725   5.566  15.661  0.00  0.00    +0.000 C 
ATOM      6  N   UNL     1       4.095   6.195  17.346  0.00  0.00    +0.000 NA
ATOM      7  C   UNL     1       3.116   5.905  18.240  0.00  0.00    +0.000 A 
ATOM      8  C   UNL     1       2.652   4.600  18.439  0.00  0.00    +0.000 A 
BRANCH   8   9
ATOM      9  C   UNL     1       1.634   4.319  19.411  0.00  0.00    +0.000 C 
ATOM     10  N   UNL     1       0.803   4.128  20.203  0.00  0.00    +0.000 NA
ENDBRANCH   8   9
BRANCH   2  11
ATOM     11  C   UNL     1       2.759   2.127  17.807  0.00  0.00    +0.000 C 
BRANCH  11  13
ATOM     12  C   UNL     1       4.184   1.730  19.639  0.00  0.00    +0.000 C 
ATOM     13  O   UNL     1       3.850   1.362  18.307  0.00  0.00    +0.000 OA
ENDBRANCH  11  13
ENDBRANCH   2  11
ENDBRANCH   1   7
BRANCH   1  14
ATOM     14  C   UNL     1       2.335   8.544  17.812  0.00  0.00    +0.000 C 
BRANCH  14  15
ATOM     15  C   UNL     1       1.591   9.789  18.268  0.00  0.00    +0.000 C 
ATOM     16  O   UNL     1       2.049  10.902  18.016  0.00  0.00    +0.000 OA
ATOM     17  N   UNL     1       0.386   9.533  18.910  0.00  0.00    +0.000 N 
ATOM     18  H   UNL     1       0.239   8.579  19.219  0.00  0.00    +0.000 HD
BRANCH  17  19
ATOM     19  C   UNL     1      -0.518  10.505  19.397  0.00  0.00    +0.000 A 
ATOM     20  C   UNL     1      -1.448  11.154  18.589  0.00  0.00    +0.000 A 
ATOM     21  C   UNL     1      -2.265  12.160  19.110  0.00  0.00    +0.000 A 
ATOM     22  C   UNL     1      -2.176  12.544  20.454  0.00  0.00    +0.000 A 
ATOM     23  C   UNL     1      -3.037  13.677  20.937  0.00  0.00    +0.000 C 
ATOM     24  C   UNL     1      -1.275  11.866  21.295  0.00  0.00    +0.000 A 
ATOM     25  C   UNL     1      -1.104  12.212  22.750  0.00  0.00    +0.000 C 
ATOM     26  C   UNL     1      -0.467  10.840  20.757  0.00  0.00    +0.000 A 
ENDBRANCH  17  19
ENDBRANCH  14  15
ENDBRANCH   1  14
TORSDOF 7
ENDMDL
MODEL 9
REMARK VINA RESULT:      -6.3      1.637      3.349
REMARK  Name = 
REMARK  11 active torsions:
REMARK  status: ('A' for Active; 'I' for Inactive)
REMARK    1  A    between atoms: C_1  and  O_2
REMARK    2  A    between atoms: O_2  and  C_3
REMARK    3  A    between atoms: C_3  and  C_4
REMARK    4  A    between atoms: C_6  and  C_7
REMARK    5  A    between atoms: C_9  and  S_10
REMARK    6  A    between atoms: S_10  and  C_11
REMARK    7  A    between atoms: C_11  and  C_12
REMARK    8  A    between atoms: N_14  and  C_15
REMARK    9  A    between atoms: C_18  and  C_19
REMARK   10  A    between atoms: C_20  and  C_21
REMARK   11  A    between atoms: C_23  and  C_24
REMARK                            x       y       z     vdW  Elec       q    Type
REMARK                         _______ _______ _______ _____ _____    ______ ____
ROOT
ATOM      1  S   UNL     1       4.157   2.580  17.750  0.00  0.00    +0.000 S 
ENDROOT
BRANCH   1   7
ATOM      2  C   UNL     1       6.905   5.416  16.647  0.00  0.00    +0.000 A 
ATOM      3  C   UNL     1       6.965   5.156  15.271  0.00  0.00    +0.000 A 
ATOM      4  C   UNL     1       6.174   4.150  14.734  0.00  0.00    +0.000 A 
ATOM      5  C   UNL     1       6.198   3.851  13.266  0.00  0.00    +0.000 C 
ATOM      6  N   UNL     1       5.348   3.397  15.494  0.00  0.00    +0.000 NA
ATOM      7  C   UNL     1       5.280   3.639  16.827  0.00  0.00    +0.000 A 
ATOM      8  C   UNL     1       6.035   4.643  17.442  0.00  0.00    +0.000 A 
BRANCH   8   9
ATOM      9  C   UNL     1       5.924   4.893  18.850  0.00  0.00    +0.000 C 
ATOM     10  N   UNL     1       5.807   5.124  19.985  0.00  0.00    +0.000 NA
ENDBRANCH   8   9
BRANCH   2  11
ATOM     11  C   UNL     1       7.771   6.505  17.228  0.00  0.00    +0.000 C 
BRANCH  11  13
ATOM     12  C   UNL     1       7.769   8.815  17.685  0.00  0.00    +0.000 C 
ATOM     13  O   UNL     1       7.146   7.757  16.967  0.00  0.00    +0.000 OA
ENDBRANCH  11  13
ENDBRANCH   2  11
ENDBRANCH   1   7
BRANCH   1  14
ATOM     14  C   UNL     1       2.549   3.173  17.126  0.00  0.00    +0.000 C 
BRANCH  14  15
ATOM     15  C   UNL     1       1.934   4.202  18.060  0.00  0.00    +0.000 C 
ATOM     16  O   UNL     1       0.992   3.886  18.785  0.00  0.00    +0.000 OA
ATOM     17  N   UNL     1       2.559   5.444  18.036  0.00  0.00    +0.000 N 
ATOM     18  H   UNL     1       3.183   5.613  17.256  0.00  0.00    +0.000 HD
BRANCH  17  19
ATOM     19  C   UNL     1       2.214   6.561  18.831  0.00  0.00    +0.000 A 
ATOM     20  C   UNL     1       2.005   6.484  20.204  0.00  0.00    +0.000 A 
ATOM     21  C   UNL     1       1.594   7.607  20.927  0.00  0.00    +0.000 A 
ATOM     22  C   UNL     1       1.383   8.838  20.294  0.00  0.00    +0.000 A 
ATOM     23  C   UNL     1       0.878   9.992  21.116  0.00  0.00    +0.000 C 
ATOM     24  C   UNL     1       1.636   8.945  18.914  0.00  0.00    +0.000 A 
ATOM     25  C   UNL     1       1.431  10.224  18.147  0.00  0.00    +0.000 C 
ATOM     26  C   UNL     1       2.067   7.805  18.201  0.00  0.00    +0.000 A 
ENDBRANCH  17  19
ENDBRANCH  14  15
ENDBRANCH   1  14
TORSDOF 7
ENDMDL
