MODEL 1
REMARK VINA RESULT:      -7.5      0.000      0.000
REMARK  Name = 
REMARK  14 active torsions:
REMARK  status: ('A' for Active; 'I' for Inactive)
REMARK    1  A    between atoms: C_1  and  C_2
REMARK    2  A    between atoms: C_2  and  C_3
REMARK    3  A    between atoms: C_3  and  C_4
REMARK    4  A    between atoms: C_4  and  C_5
REMARK    5  A    between atoms: C_4  and  N_15
REMARK    6  A    between atoms: N_7  and  C_8
REMARK    7  A    between atoms: C_8  and  C_9
REMARK    8  A    between atoms: C_18  and  C_19
REMARK    9  A    between atoms: C_19  and  C_20
REMARK   10  A    between atoms: C_20  and  C_21
REMARK   11  A    between atoms: C_21  and  C_22
REMARK   12  A    between atoms: C_22  and  N_23
REMARK   13  A    between atoms: N_24  and  C_25
REMARK   14  A    between atoms: C_25  and  C_26
REMARK                            x       y       z     vdW  Elec       q    Type
REMARK                         _______ _______ _______ _____ _____    ______ ____
ROOT
ATOM      1  N   UNL     1       5.479   6.129  17.691  0.00  0.00    +0.000 N 
ATOM      2  C   UNL     1       5.214   5.026  18.438  0.00  0.00    +0.000 C 
ATOM      3  O   UNL     1       6.016   4.138  18.728  0.00  0.00    +0.000 OA
ATOM      4  C   UNL     1       3.724   5.016  18.811  0.00  0.00    +0.000 C 
ATOM      5  N   UNL     1       3.322   6.295  18.240  0.00  0.00    +0.000 N 
ATOM      6  C   UNL     1       4.366   6.891  17.576  0.00  0.00    +0.000 C 
ATOM      7  O   UNL     1       4.322   7.979  16.991  0.00  0.00    +0.000 OA
ENDROOT
BRANCH   1   8
ATOM      8  C   UNL     1       6.750   6.506  17.076  0.00  0.00    +0.000 C 
BRANCH   8   9
ATOM      9  C   UNL     1       7.712   7.103  18.172  0.00  0.00    +0.000 C 
ATOM     10  O   UNL     1       8.284   6.403  18.997  0.00  0.00    +0.000 OA
ATOM     11  N   UNL     1       8.022   8.456  18.024  0.00  0.00    +0.000 N 
ATOM     12  H   UNL     1       7.674   8.951  17.220  0.00  0.00    +0.000 HD
BRANCH  11  13
ATOM     13  C   UNL     1       8.974   9.190  18.860  0.00  0.00    +0.000 C 
BRANCH  13  14
ATOM     14  C   UNL     1       9.209  10.605  18.357  0.00  0.00    +0.000 A 
ATOM     15  C   UNL     1      10.492  11.169  18.386  0.00  0.00    +0.000 A 
ATOM     16  C   UNL     1      10.716  12.478  17.939  0.00  0.00    +0.000 A 
ATOM     17  C   UNL     1       9.662  13.245  17.450  0.00  0.00    +0.000 A 
ATOM     18  C   UNL     1       8.384  12.696  17.395  0.00  0.00    +0.000 A 
ATOM     19  C   UNL     1       8.160  11.385  17.832  0.00  0.00    +0.000 A 
ENDBRANCH  13  14
ENDBRANCH  11  13
ENDBRANCH   8   9
BRANCH   8  20
ATOM     20  C   UNL     1       7.321   5.398  16.148  0.00  0.00    +0.000 C 
BRANCH  20  22
ATOM     21  C   UNL     1       6.085   3.743  14.467  0.00  0.00    +0.000 C 
ATOM     22  C   UNL     1       6.503   5.152  14.851  0.00  0.00    +0.000 C 
ENDBRANCH  20  22
ENDBRANCH   8  20
ENDBRANCH   1   8
BRANCH   4  23
ATOM     23  C   UNL     1       3.011   3.804  18.185  0.00  0.00    +0.000 C 
BRANCH  23  24
ATOM     24  C   UNL     1       2.481   2.796  19.214  0.00  0.00    +0.000 C 
BRANCH  24  25
ATOM     25  C   UNL     1       1.275   3.304  20.000  0.00  0.00    +0.000 C 
BRANCH  25  26
ATOM     26  C   UNL     1       1.686   3.640  21.432  0.00  0.00    +0.000 C 
BRANCH  26  27
ATOM     27  N   UNL     1       2.584   2.622  21.959  0.00  0.00    +0.000 NA
ATOM     28  H   UNL     1       2.157   2.181  22.772  0.00  0.00    +0.000 HD
ATOM     29  H   UNL     1       3.432   3.074  22.300  0.00  0.00    +0.000 HD
ENDBRANCH  26  27
ENDBRANCH  25  26
ENDBRANCH  24  25
ENDBRANCH  23  24
ENDBRANCH   4  23
BRANCH   5  30
ATOM     30  C   UNL     1       1.967   6.812  18.263  0.00  0.00    +0.000 C 
BRANCH  30  31
ATOM     31  C   UNL     1       1.692   7.927  19.243  0.00  0.00    +0.000 A 
ATOM     32  C   UNL     1       1.330   9.212  18.812  0.00  0.00    +0.000 A 
ATOM     33  C   UNL     1       0.937  10.183  19.735  0.00  0.00    +0.000 A 
ATOM     34  C   UNL     1       0.871   9.876  21.095  0.00  0.00    +0.000 A 
ATOM     35  C   UNL     1       1.231   8.606  21.537  0.00  0.00    +0.000 A 
ATOM     36  C   UNL     1       1.654   7.644  20.620  0.00  0.00    +0.000 A 
ENDBRANCH  30  31
ENDBRANCH   5  30
TORSDOF 13
ENDMDL
MODEL 2
REMARK VINA RESULT:      -7.3      0.510      1.276
REMARK  Name = 
REMARK  14 active torsions:
REMARK  status: ('A' for Active; 'I' for Inactive)
REMARK    1  A    between atoms: C_1  and  C_2
REMARK    2  A    between atoms: C_2  and  C_3
REMARK    3  A    between atoms: C_3  and  C_4
REMARK    4  A    between atoms: C_4  and  C_5
REMARK    5  A    between atoms: C_4  and  N_15
REMARK    6  A    between atoms: N_7  and  C_8
REMARK    7  A    between atoms: C_8  and  C_9
REMARK    8  A    between atoms: C_18  and  C_19
REMARK    9  A    between atoms: C_19  and  C_20
REMARK   10  A    between atoms: C_20  and  C_21
REMARK   11  A    between atoms: C_21  and  C_22
REMARK   12  A    between atoms: C_22  and  N_23
REMARK   13  A    between atoms: N_24  and  C_25
REMARK   14  A    between atoms: C_25  and  C_26
REMARK                            x       y       z     vdW  Elec       q    Type
REMARK                         _______ _______ _______ _____ _____    ______ ____
ROOT
ATOM      1  N   UNL     1       5.362   5.941  17.655  0.00  0.00    +0.000 N 
ATOM      2  C   UNL     1       4.847   4.920  18.386  0.00  0.00    +0.000 C 
ATOM      3  O   UNL     1       5.462   3.929  18.780  0.00  0.00    +0.000 OA
ATOM      4  C   UNL     1       3.342   5.155  18.589  0.00  0.00    +0.000 C 
ATOM      5  N   UNL     1       3.213   6.460  17.955  0.00  0.00    +0.000 N 
ATOM      6  C   UNL     1       4.403   6.863  17.403  0.00  0.00    +0.000 C 
ATOM      7  O   UNL     1       4.596   7.923  16.798  0.00  0.00    +0.000 OA
ENDROOT
BRANCH   1   8
ATOM      8  C   UNL     1       6.736   6.095  17.180  0.00  0.00    +0.000 C 
BRANCH   8   9
ATOM      9  C   UNL     1       7.618   6.744  18.314  0.00  0.00    +0.000 C 
ATOM     10  O   UNL     1       8.068   6.095  19.249  0.00  0.00    +0.000 OA
ATOM     11  N   UNL     1       8.014   8.063  18.084  0.00  0.00    +0.000 N 
ATOM     12  H   UNL     1       7.773   8.499  17.210  0.00  0.00    +0.000 HD
BRANCH  11  13
ATOM     13  C   UNL     1       8.919   8.824  18.947  0.00  0.00    +0.000 C 
BRANCH  13  14
ATOM     14  C   UNL     1       9.039  10.277  18.513  0.00  0.00    +0.000 A 
ATOM     15  C   UNL     1       8.026  10.881  17.755  0.00  0.00    +0.000 A 
ATOM     16  C   UNL     1       8.134  12.213  17.337  0.00  0.00    +0.000 A 
ATOM     17  C   UNL     1       9.255  12.968  17.673  0.00  0.00    +0.000 A 
ATOM     18  C   UNL     1      10.262  12.392  18.442  0.00  0.00    +0.000 A 
ATOM     19  C   UNL     1      10.151  11.063  18.869  0.00  0.00    +0.000 A 
ENDBRANCH  13  14
ENDBRANCH  11  13
ENDBRANCH   8   9
BRANCH   8  20
ATOM     20  C   UNL     1       7.282   4.813  16.493  0.00  0.00    +0.000 C 
BRANCH  20  22
ATOM     21  C   UNL     1       5.583   4.386  14.486  0.00  0.00    +0.000 C 
ATOM     22  C   UNL     1       6.985   4.715  14.973  0.00  0.00    +0.000 C 
ENDBRANCH  20  22
ENDBRANCH   8  20
ENDBRANCH   1   8
BRANCH   4  23
ATOM     23  C   UNL     1       2.519   4.047  17.908  0.00  0.00    +0.000 C 
BRANCH  23  24
ATOM     24  C   UNL     1       1.715   3.180  18.887  0.00  0.00    +0.000 C 
BRANCH  24  25
ATOM     25  C   UNL     1       1.389   3.886  20.200  0.00  0.00    +0.000 C 
BRANCH  25  26
ATOM     26  C   UNL     1       1.259   2.864  21.327  0.00  0.00    +0.000 C 
BRANCH  26  27
ATOM     27  N   UNL     1       2.450   2.872  22.166  0.00  0.00    +0.000 NA
ATOM     28  H   UNL     1       3.157   2.261  21.757  0.00  0.00    +0.000 HD
ATOM     29  H   UNL     1       2.219   2.464  23.071  0.00  0.00    +0.000 HD
ENDBRANCH  26  27
ENDBRANCH  25  26
ENDBRANCH  24  25
ENDBRANCH  23  24
ENDBRANCH   4  23
BRANCH   5  30
ATOM     30  C   UNL     1       1.962   7.182  17.816  0.00  0.00    +0.000 C 
BRANCH  30  31
ATOM     31  C   UNL     1       1.558   8.051  18.982  0.00  0.00    +0.000 A 
ATOM     32  C   UNL     1       1.659   7.599  20.306  0.00  0.00    +0.000 A 
ATOM     33  C   UNL     1       1.420   8.470  21.371  0.00  0.00    +0.000 A 
ATOM     34  C   UNL     1       1.108   9.808  21.129  0.00  0.00    +0.000 A 
ATOM     35  C   UNL     1       1.001  10.270  19.820  0.00  0.00    +0.000 A 
ATOM     36  C   UNL     1       1.208   9.394  18.755  0.00  0.00    +0.000 A 
ENDBRANCH  30  31
ENDBRANCH   5  30
TORSDOF 13
ENDMDL
MODEL 3
REMARK VINA RESULT:      -7.2      1.453      3.896
REMARK  Name = 
REMARK  14 active torsions:
REMARK  status: ('A' for Active; 'I' for Inactive)
REMARK    1  A    between atoms: C_1  and  C_2
REMARK    2  A    between atoms: C_2  and  C_3
REMARK    3  A    between atoms: C_3  and  C_4
REMARK    4  A    between atoms: C_4  and  C_5
REMARK    5  A    between atoms: C_4  and  N_15
REMARK    6  A    between atoms: N_7  and  C_8
REMARK    7  A    between atoms: C_8  and  C_9
REMARK    8  A    between atoms: C_18  and  C_19
REMARK    9  A    between atoms: C_19  and  C_20
REMARK   10  A    between atoms: C_20  and  C_21
REMARK   11  A    between atoms: C_21  and  C_22
REMARK   12  A    between atoms: C_22  and  N_23
REMARK   13  A    between atoms: N_24  and  C_25
REMARK   14  A    between atoms: C_25  and  C_26
REMARK                            x       y       z     vdW  Elec       q    Type
REMARK                         _______ _______ _______ _____ _____    ______ ____
ROOT
ATOM      1  N   UNL     1       5.499   6.333  17.452  0.00  0.00    +0.000 N 
ATOM      2  C   UNL     1       4.590   6.959  16.663  0.00  0.00    +0.000 C 
ATOM      3  O   UNL     1       4.806   7.443  15.551  0.00  0.00    +0.000 OA
ATOM      4  C   UNL     1       3.248   7.041  17.407  0.00  0.00    +0.000 C 
ATOM      5  N   UNL     1       3.592   6.291  18.608  0.00  0.00    +0.000 N 
ATOM      6  C   UNL     1       4.914   5.925  18.602  0.00  0.00    +0.000 C 
ATOM      7  O   UNL     1       5.490   5.284  19.489  0.00  0.00    +0.000 OA
ENDROOT
BRANCH   1   8
ATOM      8  C   UNL     1       6.912   6.091  17.166  0.00  0.00    +0.000 C 
BRANCH   8   9
ATOM      9  C   UNL     1       7.800   6.788  18.266  0.00  0.00    +0.000 C 
ATOM     10  O   UNL     1       8.368   6.159  19.149  0.00  0.00    +0.000 OA
ATOM     11  N   UNL     1       8.056   8.145  18.058  0.00  0.00    +0.000 N 
ATOM     12  H   UNL     1       7.720   8.582  17.216  0.00  0.00    +0.000 HD
BRANCH  11  13
ATOM     13  C   UNL     1       8.939   8.965  18.891  0.00  0.00    +0.000 C 
BRANCH  13  14
ATOM     14  C   UNL     1       9.040  10.395  18.386  0.00  0.00    +0.000 A 
ATOM     15  C   UNL     1       7.940  11.017  17.778  0.00  0.00    +0.000 A 
ATOM     16  C   UNL     1       8.028  12.328  17.294  0.00  0.00    +0.000 A 
ATOM     17  C   UNL     1       9.216  13.045  17.413  0.00  0.00    +0.000 A 
ATOM     18  C   UNL     1      10.313  12.451  18.031  0.00  0.00    +0.000 A 
ATOM     19  C   UNL     1      10.224  11.144  18.524  0.00  0.00    +0.000 A 
ENDBRANCH  13  14
ENDBRANCH  11  13
ENDBRANCH   8   9
BRANCH   8  20
ATOM     20  C   UNL     1       7.214   4.603  16.839  0.00  0.00    +0.000 C 
BRANCH  20  22
ATOM     21  C   UNL     1       6.445   4.504  14.291  0.00  0.00    +0.000 C 
ATOM     22  C   UNL     1       6.331   3.993  15.718  0.00  0.00    +0.000 C 
ENDBRANCH  20  22
ENDBRANCH   8  20
ENDBRANCH   1   8
BRANCH   4  23
ATOM     23  C   UNL     1       2.861   8.506  17.678  0.00  0.00    +0.000 C 
BRANCH  23  24
ATOM     24  C   UNL     1       1.591   8.665  18.526  0.00  0.00    +0.000 C 
BRANCH  24  25
ATOM     25  C   UNL     1       0.645   9.746  18.008  0.00  0.00    +0.000 C 
BRANCH  25  26
ATOM     26  C   UNL     1      -0.242  10.255  19.142  0.00  0.00    +0.000 C 
BRANCH  26  27
ATOM     27  N   UNL     1       0.102   9.597  20.396  0.00  0.00    +0.000 NA
ATOM     28  H   UNL     1      -0.707   9.085  20.743  0.00  0.00    +0.000 HD
ATOM     29  H   UNL     1       0.303  10.309  21.098  0.00  0.00    +0.000 HD
ENDBRANCH  26  27
ENDBRANCH  25  26
ENDBRANCH  24  25
ENDBRANCH  23  24
ENDBRANCH   4  23
BRANCH   5  30
ATOM     30  C   UNL     1       2.687   6.067  19.720  0.00  0.00    +0.000 C 
BRANCH  30  31
ATOM     31  C   UNL     1       1.970   4.740  19.744  0.00  0.00    +0.000 A 
ATOM     32  C   UNL     1       1.622   4.071  18.561  0.00  0.00    +0.000 A 
ATOM     33  C   UNL     1       1.094   2.778  18.608  0.00  0.00    +0.000 A 
ATOM     34  C   UNL     1       0.937   2.126  19.832  0.00  0.00    +0.000 A 
ATOM     35  C   UNL     1       1.276   2.779  21.014  0.00  0.00    +0.000 A 
ATOM     36  C   UNL     1       1.773   4.082  20.972  0.00  0.00    +0.000 A 
ENDBRANCH  30  31
ENDBRANCH   5  30
TORSDOF 13
ENDMDL
MODEL 4
REMARK VINA RESULT:      -7.1      1.573      4.156
REMARK  Name = 
REMARK  14 active torsions:
REMARK  status: ('A' for Active; 'I' for Inactive)
REMARK    1  A    between atoms: C_1  and  C_2
REMARK    2  A    between atoms: C_2  and  C_3
REMARK    3  A    between atoms: C_3  and  C_4
REMARK    4  A    between atoms: C_4  and  C_5
REMARK    5  A    between atoms: C_4  and  N_15
REMARK    6  A    between atoms: N_7  and  C_8
REMARK    7  A    between atoms: C_8  and  C_9
REMARK    8  A    between atoms: C_18  and  C_19
REMARK    9  A    between atoms: C_19  and  C_20
REMARK   10  A    between atoms: C_20  and  C_21
REMARK   11  A    between atoms: C_21  and  C_22
REMARK   12  A    between atoms: C_22  and  N_23
REMARK   13  A    between atoms: N_24  and  C_25
REMARK   14  A    between atoms: C_25  and  C_26
REMARK                            x       y       z     vdW  Elec       q    Type
REMARK                         _______ _______ _______ _____ _____    ______ ____
ROOT
ATOM      1  N   UNL     1       5.450   6.410  17.607  0.00  0.00    +0.000 N 
ATOM      2  C   UNL     1       4.461   7.024  16.908  0.00  0.00    +0.000 C 
ATOM      3  O   UNL     1       4.578   7.562  15.808  0.00  0.00    +0.000 OA
ATOM      4  C   UNL     1       3.171   7.011  17.744  0.00  0.00    +0.000 C 
ATOM      5  N   UNL     1       3.630   6.229  18.885  0.00  0.00    +0.000 N 
ATOM      6  C   UNL     1       4.964   5.928  18.775  0.00  0.00    +0.000 C 
ATOM      7  O   UNL     1       5.628   5.280  19.592  0.00  0.00    +0.000 OA
ENDROOT
BRANCH   1   8
ATOM      8  C   UNL     1       6.850   6.249  17.218  0.00  0.00    +0.000 C 
BRANCH   8   9
ATOM      9  C   UNL     1       7.779   6.939  18.288  0.00  0.00    +0.000 C 
ATOM     10  O   UNL     1       8.398   6.302  19.130  0.00  0.00    +0.000 OA
ATOM     11  N   UNL     1       8.004   8.303  18.094  0.00  0.00    +0.000 N 
ATOM     12  H   UNL     1       7.621   8.750  17.278  0.00  0.00    +0.000 HD
BRANCH  11  13
ATOM     13  C   UNL     1       8.913   9.121  18.900  0.00  0.00    +0.000 C 
BRANCH  13  14
ATOM     14  C   UNL     1       9.047  10.534  18.357  0.00  0.00    +0.000 A 
ATOM     15  C   UNL     1      10.269  11.217  18.441  0.00  0.00    +0.000 A 
ATOM     16  C   UNL     1      10.399  12.526  17.958  0.00  0.00    +0.000 A 
ATOM     17  C   UNL     1       9.311  13.174  17.379  0.00  0.00    +0.000 A 
ATOM     18  C   UNL     1       8.095  12.506  17.270  0.00  0.00    +0.000 A 
ATOM     19  C   UNL     1       7.967  11.194  17.743  0.00  0.00    +0.000 A 
ENDBRANCH  13  14
ENDBRANCH  11  13
ENDBRANCH   8   9
BRANCH   8  20
ATOM     20  C   UNL     1       7.194   4.792  16.802  0.00  0.00    +0.000 C 
BRANCH  20  22
ATOM     21  C   UNL     1       6.361   4.255  14.330  0.00  0.00    +0.000 C 
ATOM     22  C   UNL     1       6.175   4.134  15.834  0.00  0.00    +0.000 C 
ENDBRANCH  20  22
ENDBRANCH   8  20
ENDBRANCH   1   8
BRANCH   4  23
ATOM     23  C   UNL     1       2.737   8.443  18.104  0.00  0.00    +0.000 C 
BRANCH  23  24
ATOM     24  C   UNL     1       1.365   8.836  17.541  0.00  0.00    +0.000 C 
BRANCH  24  25
ATOM     25  C   UNL     1       0.758  10.063  18.217  0.00  0.00    +0.000 C 
BRANCH  25  26
ATOM     26  C   UNL     1      -0.753  10.090  17.997  0.00  0.00    +0.000 C 
BRANCH  26  27
ATOM     27  N   UNL     1      -1.183  11.412  17.560  0.00  0.00    +0.000 NA
ATOM     28  H   UNL     1      -2.195  11.416  17.440  0.00  0.00    +0.000 HD
ATOM     29  H   UNL     1      -0.793  11.596  16.636  0.00  0.00    +0.000 HD
ENDBRANCH  26  27
ENDBRANCH  25  26
ENDBRANCH  24  25
ENDBRANCH  23  24
ENDBRANCH   4  23
BRANCH   5  30
ATOM     30  C   UNL     1       2.815   5.917  20.044  0.00  0.00    +0.000 C 
BRANCH  30  31
ATOM     31  C   UNL     1       2.214   4.534  20.087  0.00  0.00    +0.000 A 
ATOM     32  C   UNL     1       2.093   3.823  21.290  0.00  0.00    +0.000 A 
ATOM     33  C   UNL     1       1.401   2.610  21.329  0.00  0.00    +0.000 A 
ATOM     34  C   UNL     1       0.795   2.109  20.176  0.00  0.00    +0.000 A 
ATOM     35  C   UNL     1       0.909   2.803  18.974  0.00  0.00    +0.000 A 
ATOM     36  C   UNL     1       1.627   3.998  18.927  0.00  0.00    +0.000 A 
ENDBRANCH  30  31
ENDBRANCH   5  30
TORSDOF 13
ENDMDL
MODEL 5
REMARK VINA RESULT:      -7.1      1.501      4.228
REMARK  Name = 
REMARK  14 active torsions:
REMARK  status: ('A' for Active; 'I' for Inactive)
REMARK    1  A    between atoms: C_1  and  C_2
REMARK    2  A    between atoms: C_2  and  C_3
REMARK    3  A    between atoms: C_3  and  C_4
REMARK    4  A    between atoms: C_4  and  C_5
REMARK    5  A    between atoms: C_4  and  N_15
REMARK    6  A    between atoms: N_7  and  C_8
REMARK    7  A    between atoms: C_8  and  C_9
REMARK    8  A    between atoms: C_18  and  C_19
REMARK    9  A    between atoms: C_19  and  C_20
REMARK   10  A    between atoms: C_20  and  C_21
REMARK   11  A    between atoms: C_21  and  C_22
REMARK   12  A    between atoms: C_22  and  N_23
REMARK   13  A    between atoms: N_24  and  C_25
REMARK   14  A    between atoms: C_25  and  C_26
REMARK                            x       y       z     vdW  Elec       q    Type
REMARK                         _______ _______ _______ _____ _____    ______ ____
ROOT
ATOM      1  N   UNL     1       5.444   6.455  17.516  0.00  0.00    +0.000 N 
ATOM      2  C   UNL     1       4.488   7.116  16.815  0.00  0.00    +0.000 C 
ATOM      3  O   UNL     1       4.646   7.687  15.736  0.00  0.00    +0.000 OA
ATOM      4  C   UNL     1       3.178   7.108  17.618  0.00  0.00    +0.000 C 
ATOM      5  N   UNL     1       3.589   6.279  18.744  0.00  0.00    +0.000 N 
ATOM      6  C   UNL     1       4.918   5.947  18.656  0.00  0.00    +0.000 C 
ATOM      7  O   UNL     1       5.545   5.257  19.467  0.00  0.00    +0.000 OA
ENDROOT
BRANCH   1   8
ATOM      8  C   UNL     1       6.848   6.271  17.156  0.00  0.00    +0.000 C 
BRANCH   8   9
ATOM      9  C   UNL     1       7.767   6.913  18.264  0.00  0.00    +0.000 C 
ATOM     10  O   UNL     1       8.344   6.242  19.109  0.00  0.00    +0.000 OA
ATOM     11  N   UNL     1       8.036   8.274  18.104  0.00  0.00    +0.000 N 
ATOM     12  H   UNL     1       7.689   8.747  17.287  0.00  0.00    +0.000 HD
BRANCH  11  13
ATOM     13  C   UNL     1       8.946   9.049  18.950  0.00  0.00    +0.000 C 
BRANCH  13  14
ATOM     14  C   UNL     1       9.187  10.447  18.403  0.00  0.00    +0.000 A 
ATOM     15  C   UNL     1       8.122  11.215  17.913  0.00  0.00    +0.000 A 
ATOM     16  C   UNL     1       8.336  12.498  17.392  0.00  0.00    +0.000 A 
ATOM     17  C   UNL     1       9.619  13.038  17.356  0.00  0.00    +0.000 A 
ATOM     18  C   UNL     1      10.687  12.298  17.856  0.00  0.00    +0.000 A 
ATOM     19  C   UNL     1      10.473  11.020  18.387  0.00  0.00    +0.000 A 
ENDBRANCH  13  14
ENDBRANCH  11  13
ENDBRANCH   8   9
BRANCH   8  20
ATOM     20  C   UNL     1       7.170   4.817  16.712  0.00  0.00    +0.000 C 
BRANCH  20  22
ATOM     21  C   UNL     1       5.604   4.212  14.645  0.00  0.00    +0.000 C 
ATOM     22  C   UNL     1       6.981   4.544  15.196  0.00  0.00    +0.000 C 
ENDBRANCH  20  22
ENDBRANCH   8  20
ENDBRANCH   1   8
BRANCH   4  23
ATOM     23  C   UNL     1       2.771   8.538  18.015  0.00  0.00    +0.000 C 
BRANCH  23  24
ATOM     24  C   UNL     1       1.358   8.931  17.560  0.00  0.00    +0.000 C 
BRANCH  24  25
ATOM     25  C   UNL     1       0.572   9.705  18.614  0.00  0.00    +0.000 C 
BRANCH  25  26
ATOM     26  C   UNL     1       1.083  11.142  18.700  0.00  0.00    +0.000 C 
BRANCH  26  27
ATOM     27  N   UNL     1       0.015  12.084  18.392  0.00  0.00    +0.000 NA
ATOM     28  H   UNL     1      -0.782  11.904  19.001  0.00  0.00    +0.000 HD
ATOM     29  H   UNL     1      -0.315  11.911  17.443  0.00  0.00    +0.000 HD
ENDBRANCH  26  27
ENDBRANCH  25  26
ENDBRANCH  24  25
ENDBRANCH  23  24
ENDBRANCH   4  23
BRANCH   5  30
ATOM     30  C   UNL     1       2.738   5.950  19.871  0.00  0.00    +0.000 C 
BRANCH  30  31
ATOM     31  C   UNL     1       2.146   4.562  19.881  0.00  0.00    +0.000 A 
ATOM     32  C   UNL     1       1.868   3.890  21.081  0.00  0.00    +0.000 A 
ATOM     33  C   UNL     1       1.186   2.672  21.068  0.00  0.00    +0.000 A 
ATOM     34  C   UNL     1       0.745   2.125  19.862  0.00  0.00    +0.000 A 
ATOM     35  C   UNL     1       1.016   2.779  18.664  0.00  0.00    +0.000 A 
ATOM     36  C   UNL     1       1.725   3.980  18.672  0.00  0.00    +0.000 A 
ENDBRANCH  30  31
ENDBRANCH   5  30
TORSDOF 13
ENDMDL
MODEL 6
REMARK VINA RESULT:      -7.0      0.979      1.401
REMARK  Name = 
REMARK  14 active torsions:
REMARK  status: ('A' for Active; 'I' for Inactive)
REMARK    1  A    between atoms: C_1  and  C_2
REMARK    2  A    between atoms: C_2  and  C_3
REMARK    3  A    between atoms: C_3  and  C_4
REMARK    4  A    between atoms: C_4  and  C_5
REMARK    5  A    between atoms: C_4  and  N_15
REMARK    6  A    between atoms: N_7  and  C_8
REMARK    7  A    between atoms: C_8  and  C_9
REMARK    8  A    between atoms: C_18  and  C_19
REMARK    9  A    between atoms: C_19  and  C_20
REMARK   10  A    between atoms: C_20  and  C_21
REMARK   11  A    between atoms: C_21  and  C_22
REMARK   12  A    between atoms: C_22  and  N_23
REMARK   13  A    between atoms: N_24  and  C_25
REMARK   14  A    between atoms: C_25  and  C_26
REMARK                            x       y       z     vdW  Elec       q    Type
REMARK                         _______ _______ _______ _____ _____    ______ ____
ROOT
ATOM      1  N   UNL     1       5.486   6.284  17.944  0.00  0.00    +0.000 N 
ATOM      2  C   UNL     1       5.082   5.640  19.069  0.00  0.00    +0.000 C 
ATOM      3  O   UNL     1       5.787   4.937  19.793  0.00  0.00    +0.000 OA
ATOM      4  C   UNL     1       3.575   5.865  19.264  0.00  0.00    +0.000 C 
ATOM      5  N   UNL     1       3.320   6.775  18.155  0.00  0.00    +0.000 N 
ATOM      6  C   UNL     1       4.451   6.967  17.401  0.00  0.00    +0.000 C 
ATOM      7  O   UNL     1       4.536   7.683  16.398  0.00  0.00    +0.000 OA
ENDROOT
BRANCH   1   8
ATOM      8  C   UNL     1       6.822   6.291  17.350  0.00  0.00    +0.000 C 
BRANCH   8   9
ATOM      9  C   UNL     1       7.836   6.986  18.337  0.00  0.00    +0.000 C 
ATOM     10  O   UNL     1       8.486   6.357  19.161  0.00  0.00    +0.000 OA
ATOM     11  N   UNL     1       8.089   8.335  18.084  0.00  0.00    +0.000 N 
ATOM     12  H   UNL     1       7.669   8.767  17.277  0.00  0.00    +0.000 HD
BRANCH  11  13
ATOM     13  C   UNL     1       9.070   9.149  18.804  0.00  0.00    +0.000 C 
BRANCH  13  14
ATOM     14  C   UNL     1       9.113  10.581  18.295  0.00  0.00    +0.000 A 
ATOM     15  C   UNL     1      10.312  11.309  18.311  0.00  0.00    +0.000 A 
ATOM     16  C   UNL     1      10.358  12.633  17.859  0.00  0.00    +0.000 A 
ATOM     17  C   UNL     1       9.208  13.254  17.378  0.00  0.00    +0.000 A 
ATOM     18  C   UNL     1       8.013  12.542  17.336  0.00  0.00    +0.000 A 
ATOM     19  C   UNL     1       7.967  11.214  17.778  0.00  0.00    +0.000 A 
ENDBRANCH  13  14
ENDBRANCH  11  13
ENDBRANCH   8   9
BRANCH   8  20
ATOM     20  C   UNL     1       7.226   4.911  16.762  0.00  0.00    +0.000 C 
BRANCH  20  22
ATOM     21  C   UNL     1       5.584   4.300  14.755  0.00  0.00    +0.000 C 
ATOM     22  C   UNL     1       6.953   4.748  15.242  0.00  0.00    +0.000 C 
ENDBRANCH  20  22
ENDBRANCH   8  20
ENDBRANCH   1   8
BRANCH   4  23
ATOM     23  C   UNL     1       2.806   4.535  19.166  0.00  0.00    +0.000 C 
BRANCH  23  24
ATOM     24  C   UNL     1       1.516   4.500  19.998  0.00  0.00    +0.000 C 
BRANCH  24  25
ATOM     25  C   UNL     1       1.040   3.087  20.323  0.00  0.00    +0.000 C 
BRANCH  25  26
ATOM     26  C   UNL     1       0.730   2.328  19.035  0.00  0.00    +0.000 C 
BRANCH  26  27
ATOM     27  N   UNL     1       1.829   1.437  18.689  0.00  0.00    +0.000 NA
ATOM     28  H   UNL     1       1.651   1.018  17.777  0.00  0.00    +0.000 HD
ATOM     29  H   UNL     1       1.848   0.663  19.352  0.00  0.00    +0.000 HD
ENDBRANCH  26  27
ENDBRANCH  25  26
ENDBRANCH  24  25
ENDBRANCH  23  24
ENDBRANCH   4  23
BRANCH   5  30
ATOM     30  C   UNL     1       2.014   7.310  17.820  0.00  0.00    +0.000 C 
BRANCH  30  31
ATOM     31  C   UNL     1       1.539   8.483  18.642  0.00  0.00    +0.000 A 
ATOM     32  C   UNL     1       1.344   8.378  20.027  0.00  0.00    +0.000 A 
ATOM     33  C   UNL     1       1.048   9.512  20.788  0.00  0.00    +0.000 A 
ATOM     34  C   UNL     1       0.975  10.767  20.181  0.00  0.00    +0.000 A 
ATOM     35  C   UNL     1       1.164  10.885  18.807  0.00  0.00    +0.000 A 
ATOM     36  C   UNL     1       1.428   9.750  18.041  0.00  0.00    +0.000 A 
ENDBRANCH  30  31
ENDBRANCH   5  30
TORSDOF 13
ENDMDL
MODEL 7
REMARK VINA RESULT:      -7.0      4.016      7.061
REMARK  Name = 
REMARK  14 active torsions:
REMARK  status: ('A' for Active; 'I' for Inactive)
REMARK    1  A    between atoms: C_1  and  C_2
REMARK    2  A    between atoms: C_2  and  C_3
REMARK    3  A    between atoms: C_3  and  C_4
REMARK    4  A    between atoms: C_4  and  C_5
REMARK    5  A    between atoms: C_4  and  N_15
REMARK    6  A    between atoms: N_7  and  C_8
REMARK    7  A    between atoms: C_8  and  C_9
REMARK    8  A    between atoms: C_18  and  C_19
REMARK    9  A    between atoms: C_19  and  C_20
REMARK   10  A    between atoms: C_20  and  C_21
REMARK   11  A    between atoms: C_21  and  C_22
REMARK   12  A    between atoms: C_22  and  N_23
REMARK   13  A    between atoms: N_24  and  C_25
REMARK   14  A    between atoms: C_25  and  C_26
REMARK                            x       y       z     vdW  Elec       q    Type
REMARK                         _______ _______ _______ _____ _____    ______ ____
ROOT
ATOM      1  N   UNL     1       1.225   8.763  19.445  0.00  0.00    +0.000 N 
ATOM      2  C   UNL     1       2.164   8.436  18.521  0.00  0.00    +0.000 C 
ATOM      3  O   UNL     1       2.410   9.058  17.487  0.00  0.00    +0.000 OA
ATOM      4  C   UNL     1       2.834   7.115  18.928  0.00  0.00    +0.000 C 
ATOM      5  N   UNL     1       2.176   6.894  20.209  0.00  0.00    +0.000 N 
ATOM      6  C   UNL     1       1.231   7.859  20.454  0.00  0.00    +0.000 C 
ATOM      7  O   UNL     1       0.514   7.930  21.458  0.00  0.00    +0.000 OA
ENDROOT
BRANCH   1   8
ATOM      8  C   UNL     1       0.312   9.904  19.426  0.00  0.00    +0.000 C 
BRANCH   8   9
ATOM      9  C   UNL     1       1.025  11.162  20.054  0.00  0.00    +0.000 C 
ATOM     10  O   UNL     1       1.259  11.256  21.251  0.00  0.00    +0.000 OA
ATOM     11  N   UNL     1       1.546  12.075  19.135  0.00  0.00    +0.000 N 
ATOM     12  H   UNL     1       1.492  11.864  18.152  0.00  0.00    +0.000 HD
BRANCH  11  13
ATOM     13  C   UNL     1       2.336  13.256  19.490  0.00  0.00    +0.000 C 
BRANCH  13  14
ATOM     14  C   UNL     1       1.657  14.549  19.066  0.00  0.00    +0.000 A 
ATOM     15  C   UNL     1       2.417  15.648  18.640  0.00  0.00    +0.000 A 
ATOM     16  C   UNL     1       1.802  16.848  18.263  0.00  0.00    +0.000 A 
ATOM     17  C   UNL     1       0.416  16.972  18.301  0.00  0.00    +0.000 A 
ATOM     18  C   UNL     1      -0.357  15.886  18.703  0.00  0.00    +0.000 A 
ATOM     19  C   UNL     1       0.255  14.682  19.070  0.00  0.00    +0.000 A 
ENDBRANCH  13  14
ENDBRANCH  11  13
ENDBRANCH   8   9
BRANCH   8  20
ATOM     20  C   UNL     1      -0.389  10.089  18.052  0.00  0.00    +0.000 C 
BRANCH  20  22
ATOM     21  C   UNL     1      -2.763   9.929  16.853  0.00  0.00    +0.000 C 
ATOM     22  C   UNL     1      -1.940  10.131  18.115  0.00  0.00    +0.000 C 
ENDBRANCH  20  22
ENDBRANCH   8  20
ENDBRANCH   1   8
BRANCH   4  23
ATOM     23  C   UNL     1       2.553   6.016  17.887  0.00  0.00    +0.000 C 
BRANCH  23  24
ATOM     24  C   UNL     1       3.820   5.373  17.305  0.00  0.00    +0.000 C 
BRANCH  24  25
ATOM     25  C   UNL     1       5.113   5.991  17.831  0.00  0.00    +0.000 C 
BRANCH  25  26
ATOM     26  C   UNL     1       6.017   4.905  18.410  0.00  0.00    +0.000 C 
BRANCH  26  27
ATOM     27  N   UNL     1       6.584   5.334  19.681  0.00  0.00    +0.000 NA
ATOM     28  H   UNL     1       7.486   4.880  19.820  0.00  0.00    +0.000 HD
ATOM     29  H   UNL     1       5.986   5.002  20.438  0.00  0.00    +0.000 HD
ENDBRANCH  26  27
ENDBRANCH  25  26
ENDBRANCH  24  25
ENDBRANCH  23  24
ENDBRANCH   4  23
BRANCH   5  30
ATOM     30  C   UNL     1       2.402   5.739  21.057  0.00  0.00    +0.000 C 
BRANCH  30  31
ATOM     31  C   UNL     1       2.109   4.391  20.445  0.00  0.00    +0.000 A 
ATOM     32  C   UNL     1       0.826   4.055  19.987  0.00  0.00    +0.000 A 
ATOM     33  C   UNL     1       0.613   2.862  19.292  0.00  0.00    +0.000 A 
ATOM     34  C   UNL     1       1.681   2.007  19.018  0.00  0.00    +0.000 A 
ATOM     35  C   UNL     1       2.959   2.326  19.469  0.00  0.00    +0.000 A 
ATOM     36  C   UNL     1       3.169   3.501  20.191  0.00  0.00    +0.000 A 
ENDBRANCH  30  31
ENDBRANCH   5  30
TORSDOF 13
ENDMDL
MODEL 8
REMARK VINA RESULT:      -6.9      3.708      7.243
REMARK  Name = 
REMARK  14 active torsions:
REMARK  status: ('A' for Active; 'I' for Inactive)
REMARK    1  A    between atoms: C_1  and  C_2
REMARK    2  A    between atoms: C_2  and  C_3
REMARK    3  A    between atoms: C_3  and  C_4
REMARK    4  A    between atoms: C_4  and  C_5
REMARK    5  A    between atoms: C_4  and  N_15
REMARK    6  A    between atoms: N_7  and  C_8
REMARK    7  A    between atoms: C_8  and  C_9
REMARK    8  A    between atoms: C_18  and  C_19
REMARK    9  A    between atoms: C_19  and  C_20
REMARK   10  A    between atoms: C_20  and  C_21
REMARK   11  A    between atoms: C_21  and  C_22
REMARK   12  A    between atoms: C_22  and  N_23
REMARK   13  A    between atoms: N_24  and  C_25
REMARK   14  A    between atoms: C_25  and  C_26
REMARK                            x       y       z     vdW  Elec       q    Type
REMARK                         _______ _______ _______ _____ _____    ______ ____
ROOT
ATOM      1  N   UNL     1       2.901   5.880  17.766  0.00  0.00    +0.000 N 
ATOM      2  C   UNL     1       2.414   4.627  17.581  0.00  0.00    +0.000 C 
ATOM      3  O   UNL     1       1.249   4.270  17.754  0.00  0.00    +0.000 OA
ATOM      4  C   UNL     1       3.568   3.691  17.189  0.00  0.00    +0.000 C 
ATOM      5  N   UNL     1       4.651   4.662  17.109  0.00  0.00    +0.000 N 
ATOM      6  C   UNL     1       4.224   5.912  17.480  0.00  0.00    +0.000 C 
ATOM      7  O   UNL     1       4.921   6.933  17.514  0.00  0.00    +0.000 OA
ENDROOT
BRANCH   1   8
ATOM      8  C   UNL     1       2.168   7.067  18.201  0.00  0.00    +0.000 C 
BRANCH   8   9
ATOM      9  C   UNL     1       2.109   7.105  19.776  0.00  0.00    +0.000 C 
ATOM     10  O   UNL     1       2.772   6.353  20.477  0.00  0.00    +0.000 OA
ATOM     11  N   UNL     1       1.401   8.178  20.323  0.00  0.00    +0.000 N 
ATOM     12  H   UNL     1       1.025   8.879  19.707  0.00  0.00    +0.000 HD
BRANCH  11  13
ATOM     13  C   UNL     1       1.305   8.470  21.754  0.00  0.00    +0.000 C 
BRANCH  13  14
ATOM     14  C   UNL     1       0.460   9.702  22.033  0.00  0.00    +0.000 A 
ATOM     15  C   UNL     1       0.622  10.866  21.268  0.00  0.00    +0.000 A 
ATOM     16  C   UNL     1      -0.141  12.012  21.527  0.00  0.00    +0.000 A 
ATOM     17  C   UNL     1      -1.082  12.015  22.553  0.00  0.00    +0.000 A 
ATOM     18  C   UNL     1      -1.271  10.863  23.311  0.00  0.00    +0.000 A 
ATOM     19  C   UNL     1      -0.517   9.713  23.046  0.00  0.00    +0.000 A 
ENDBRANCH  13  14
ENDBRANCH  11  13
ENDBRANCH   8   9
BRANCH   8  20
ATOM     20  C   UNL     1       2.628   8.359  17.470  0.00  0.00    +0.000 C 
BRANCH  20  22
ATOM     21  C   UNL     1       2.278  10.937  18.040  0.00  0.00    +0.000 C 
ATOM     22  C   UNL     1       1.695   9.584  17.668  0.00  0.00    +0.000 C 
ENDBRANCH  20  22
ENDBRANCH   8  20
ENDBRANCH   1   8
BRANCH   4  23
ATOM     23  C   UNL     1       3.782   2.606  18.260  0.00  0.00    +0.000 C 
BRANCH  23  24
ATOM     24  C   UNL     1       3.947   3.161  19.681  0.00  0.00    +0.000 C 
BRANCH  24  25
ATOM     25  C   UNL     1       3.105   2.429  20.723  0.00  0.00    +0.000 C 
BRANCH  25  26
ATOM     26  C   UNL     1       1.973   3.331  21.210  0.00  0.00    +0.000 C 
BRANCH  26  27
ATOM     27  N   UNL     1       0.754   3.077  20.455  0.00  0.00    +0.000 NA
ATOM     28  H   UNL     1       0.319   2.219  20.792  0.00  0.00    +0.000 HD
ATOM     29  H   UNL     1       1.000   2.900  19.481  0.00  0.00    +0.000 HD
ENDBRANCH  26  27
ENDBRANCH  25  26
ENDBRANCH  24  25
ENDBRANCH  23  24
ENDBRANCH   4  23
BRANCH   5  30
ATOM     30  C   UNL     1       6.029   4.327  16.799  0.00  0.00    +0.000 C 
BRANCH  30  31
ATOM     31  C   UNL     1       6.389   4.262  15.335  0.00  0.00    +0.000 A 
ATOM     32  C   UNL     1       5.598   3.559  14.414  0.00  0.00    +0.000 A 
ATOM     33  C   UNL     1       5.868   3.636  13.046  0.00  0.00    +0.000 A 
ATOM     34  C   UNL     1       6.910   4.439  12.578  0.00  0.00    +0.000 A 
ATOM     35  C   UNL     1       7.705   5.139  13.481  0.00  0.00    +0.000 A 
ATOM     36  C   UNL     1       7.457   5.039  14.850  0.00  0.00    +0.000 A 
ENDBRANCH  30  31
ENDBRANCH   5  30
TORSDOF 13
ENDMDL
MODEL 9
REMARK VINA RESULT:      -6.9      3.637      6.282
REMARK  Name = 
REMARK  14 active torsions:
REMARK  status: ('A' for Active; 'I' for Inactive)
REMARK    1  A    between atoms: C_1  and  C_2
REMARK    2  A    between atoms: C_2  and  C_3
REMARK    3  A    between atoms: C_3  and  C_4
REMARK    4  A    between atoms: C_4  and  C_5
REMARK    5  A    between atoms: C_4  and  N_15
REMARK    6  A    between atoms: N_7  and  C_8
REMARK    7  A    between atoms: C_8  and  C_9
REMARK    8  A    between atoms: C_18  and  C_19
REMARK    9  A    between atoms: C_19  and  C_20
REMARK   10  A    between atoms: C_20  and  C_21
REMARK   11  A    between atoms: C_21  and  C_22
REMARK   12  A    between atoms: C_22  and  N_23
REMARK   13  A    between atoms: N_24  and  C_25
REMARK   14  A    between atoms: C_25  and  C_26
REMARK                            x       y       z     vdW  Elec       q    Type
REMARK                         _______ _______ _______ _____ _____    ______ ____
ROOT
ATOM      1  N   UNL     1       2.089   7.123  19.086  0.00  0.00    +0.000 N 
ATOM      2  C   UNL     1       1.795   7.265  20.404  0.00  0.00    +0.000 C 
ATOM      3  O   UNL     1       1.845   6.379  21.257  0.00  0.00    +0.000 OA
ATOM      4  C   UNL     1       1.312   8.701  20.661  0.00  0.00    +0.000 C 
ATOM      5  N   UNL     1       1.503   9.263  19.330  0.00  0.00    +0.000 N 
ATOM      6  C   UNL     1       1.928   8.304  18.444  0.00  0.00    +0.000 C 
ATOM      7  O   UNL     1       2.170   8.485  17.245  0.00  0.00    +0.000 OA
ENDROOT
BRANCH   1   8
ATOM      8  C   UNL     1       2.526   5.912  18.395  0.00  0.00    +0.000 C 
BRANCH   8   9
ATOM      9  C   UNL     1       4.093   5.932  18.232  0.00  0.00    +0.000 C 
ATOM     10  O   UNL     1       4.853   5.633  19.143  0.00  0.00    +0.000 OA
ATOM     11  N   UNL     1       4.557   6.125  16.929  0.00  0.00    +0.000 N 
ATOM     12  H   UNL     1       3.891   6.183  16.177  0.00  0.00    +0.000 HD
BRANCH  11  13
ATOM     13  C   UNL     1       5.965   6.075  16.529  0.00  0.00    +0.000 C 
BRANCH  13  14
ATOM     14  C   UNL     1       6.166   5.312  15.229  0.00  0.00    +0.000 A 
ATOM     15  C   UNL     1       5.175   4.441  14.753  0.00  0.00    +0.000 A 
ATOM     16  C   UNL     1       5.357   3.721  13.565  0.00  0.00    +0.000 A 
ATOM     17  C   UNL     1       6.531   3.861  12.829  0.00  0.00    +0.000 A 
ATOM     18  C   UNL     1       7.518   4.735  13.276  0.00  0.00    +0.000 A 
ATOM     19  C   UNL     1       7.333   5.464  14.458  0.00  0.00    +0.000 A 
ENDBRANCH  13  14
ENDBRANCH  11  13
ENDBRANCH   8   9
BRANCH   8  20
ATOM     20  C   UNL     1       1.882   4.623  18.976  0.00  0.00    +0.000 C 
BRANCH  20  22
ATOM     21  C   UNL     1       2.764   2.870  17.175  0.00  0.00    +0.000 C 
ATOM     22  C   UNL     1       1.610   3.506  17.933  0.00  0.00    +0.000 C 
ENDBRANCH  20  22
ENDBRANCH   8  20
ENDBRANCH   1   8
BRANCH   4  23
ATOM     23  C   UNL     1      -0.152   8.710  21.135  0.00  0.00    +0.000 C 
BRANCH  23  24
ATOM     24  C   UNL     1      -0.348   9.307  22.536  0.00  0.00    +0.000 C 
BRANCH  24  25
ATOM     25  C   UNL     1      -0.430  10.831  22.542  0.00  0.00    +0.000 C 
BRANCH  25  26
ATOM     26  C   UNL     1      -1.707  11.285  23.244  0.00  0.00    +0.000 C 
BRANCH  26  27
ATOM     27  N   UNL     1      -2.338  12.372  22.508  0.00  0.00    +0.000 NA
ATOM     28  H   UNL     1      -1.989  13.265  22.855  0.00  0.00    +0.000 HD
ATOM     29  H   UNL     1      -3.339  12.369  22.706  0.00  0.00    +0.000 HD
ENDBRANCH  26  27
ENDBRANCH  25  26
ENDBRANCH  24  25
ENDBRANCH  23  24
ENDBRANCH   4  23
BRANCH   5  30
ATOM     30  C   UNL     1       1.171  10.626  18.961  0.00  0.00    +0.000 C 
BRANCH  30  31
ATOM     31  C   UNL     1      -0.261  10.880  18.558  0.00  0.00    +0.000 A 
ATOM     32  C   UNL     1      -0.962   9.988  17.733  0.00  0.00    +0.000 A 
ATOM     33  C   UNL     1      -2.327  10.168  17.495  0.00  0.00    +0.000 A 
ATOM     34  C   UNL     1      -3.014  11.220  18.102  0.00  0.00    +0.000 A 
ATOM     35  C   UNL     1      -2.330  12.115  18.920  0.00  0.00    +0.000 A 
ATOM     36  C   UNL     1      -0.961  11.956  19.134  0.00  0.00    +0.000 A 
ENDBRANCH  30  31
ENDBRANCH   5  30
TORSDOF 13
ENDMDL
