MODEL 1
REMARK VINA RESULT:      -6.7      0.000      0.000
REMARK  Name = 
REMARK  3 active torsions:
REMARK  status: ('A' for Active; 'I' for Inactive)
REMARK    1  A    between atoms: C_5  and  C_6
REMARK    2  A    between atoms: N_20  and  C_21
REMARK    3  A    between atoms: C_21  and  C_22
REMARK                            x       y       z     vdW  Elec       q    Type
REMARK                         _______ _______ _______ _____ _____    ______ ____
ROOT
ATOM      1  O   UNL     1       1.663  10.168  22.143  0.00  0.00    +0.000 OA
ATOM      2  C   UNL     1       0.821  10.360  21.266  0.00  0.00    +0.000 A 
ATOM      3  C   UNL     1      -0.132   9.274  20.952  0.00  0.00    +0.000 A 
ATOM      4  C   UNL     1      -1.005   9.424  19.955  0.00  0.00    +0.000 A 
ATOM      5  C   UNL     1      -1.091  10.658  19.192  0.00  0.00    +0.000 A 
ATOM      6  C   UNL     1      -0.269  11.692  19.507  0.00  0.00    +0.000 A 
ATOM      7  N   UNL     1       0.696  11.532  20.520  0.00  0.00    +0.000 N 
ATOM      8  C   UNL     1       1.728  12.539  20.766  0.00  0.00    +0.000 C 
ATOM      9  C   UNL     1       1.487  13.931  20.180  0.00  0.00    +0.000 C 
ATOM     10  C   UNL     1       0.977  13.771  18.757  0.00  0.00    +0.000 C 
ATOM     11  C   UNL     1      -0.376  13.073  18.845  0.00  0.00    +0.000 C 
ATOM     12  C   UNL     1      -1.343  13.979  19.647  0.00  0.00    +0.000 C 
ATOM     13  N   UNL     1      -0.877  14.256  21.018  0.00  0.00    +0.000 NA
ATOM     14  C   UNL     1       0.501  14.766  21.027  0.00  0.00    +0.000 C 
ENDROOT
BRANCH   5  15
ATOM     15  C   UNL     1      -2.102  10.772  18.119  0.00  0.00    +0.000 A 
ATOM     16  C   UNL     1      -1.811  10.333  16.820  0.00  0.00    +0.000 A 
ATOM     17  C   UNL     1      -2.752  10.463  15.801  0.00  0.00    +0.000 A 
ATOM     18  C   UNL     1      -3.993  11.046  16.065  0.00  0.00    +0.000 A 
ATOM     19  C   UNL     1      -4.294  11.493  17.350  0.00  0.00    +0.000 A 
ATOM     20  C   UNL     1      -3.350  11.357  18.367  0.00  0.00    +0.000 A 
ATOM     21  F   UNL     1      -3.663  11.794  19.596  0.00  0.00    +0.000 F 
ENDBRANCH   5  15
BRANCH  13  22
ATOM     22  C   UNL     1      -1.789  15.160  21.743  0.00  0.00    +0.000 C 
BRANCH  22  23
ATOM     23  C   UNL     1      -2.746  14.416  22.657  0.00  0.00    +0.000 A 
ATOM     24  C   UNL     1      -2.482  13.089  23.036  0.00  0.00    +0.000 A 
ATOM     25  C   UNL     1      -3.423  12.363  23.767  0.00  0.00    +0.000 A 
ATOM     26  C   UNL     1      -4.617  12.968  24.138  0.00  0.00    +0.000 A 
ATOM     27  F   UNL     1      -5.538  12.258  24.806  0.00  0.00    +0.000 F 
ATOM     28  C   UNL     1      -4.879  14.293  23.814  0.00  0.00    +0.000 A 
ATOM     29  C   UNL     1      -3.945  15.020  23.075  0.00  0.00    +0.000 A 
ENDBRANCH  22  23
ENDBRANCH  13  22
TORSDOF 3
ENDMDL
MODEL 2
REMARK VINA RESULT:      -6.7      2.676      6.005
REMARK  Name = 
REMARK  3 active torsions:
REMARK  status: ('A' for Active; 'I' for Inactive)
REMARK    1  A    between atoms: C_5  and  C_6
REMARK    2  A    between atoms: N_20  and  C_21
REMARK    3  A    between atoms: C_21  and  C_22
REMARK                            x       y       z     vdW  Elec       q    Type
REMARK                         _______ _______ _______ _____ _____    ______ ____
ROOT
ATOM      1  O   UNL     1       0.809   8.810  20.280  0.00  0.00    +0.000 OA
ATOM      2  C   UNL     1       0.170   9.661  20.898  0.00  0.00    +0.000 A 
ATOM      3  C   UNL     1       0.279   9.694  22.373  0.00  0.00    +0.000 A 
ATOM      4  C   UNL     1      -0.459  10.555  23.074  0.00  0.00    +0.000 A 
ATOM      5  C   UNL     1      -1.341  11.512  22.427  0.00  0.00    +0.000 A 
ATOM      6  C   UNL     1      -1.407  11.542  21.071  0.00  0.00    +0.000 A 
ATOM      7  N   UNL     1      -0.676  10.605  20.316  0.00  0.00    +0.000 N 
ATOM      8  C   UNL     1      -0.861  10.468  18.872  0.00  0.00    +0.000 C 
ATOM      9  C   UNL     1      -1.554  11.626  18.152  0.00  0.00    +0.000 C 
ATOM     10  C   UNL     1      -2.752  12.058  18.983  0.00  0.00    +0.000 C 
ATOM     11  C   UNL     1      -2.207  12.601  20.300  0.00  0.00    +0.000 C 
ATOM     12  C   UNL     1      -1.315  13.828  19.992  0.00  0.00    +0.000 C 
ATOM     13  N   UNL     1      -0.172  13.511  19.116  0.00  0.00    +0.000 NA
ATOM     14  C   UNL     1      -0.603  12.816  17.896  0.00  0.00    +0.000 C 
ENDROOT
BRANCH   5  15
ATOM     15  C   UNL     1      -2.110  12.460  23.261  0.00  0.00    +0.000 A 
ATOM     16  C   UNL     1      -3.396  12.127  23.712  0.00  0.00    +0.000 A 
ATOM     17  C   UNL     1      -4.134  13.029  24.475  0.00  0.00    +0.000 A 
ATOM     18  C   UNL     1      -3.600  14.281  24.788  0.00  0.00    +0.000 A 
ATOM     19  C   UNL     1      -2.327  14.628  24.342  0.00  0.00    +0.000 A 
ATOM     20  C   UNL     1      -1.591  13.721  23.582  0.00  0.00    +0.000 A 
ATOM     21  F   UNL     1      -0.367  14.076  23.165  0.00  0.00    +0.000 F 
ENDBRANCH   5  15
BRANCH  13  22
ATOM     22  C   UNL     1       0.633  14.705  18.798  0.00  0.00    +0.000 C 
BRANCH  22  23
ATOM     23  C   UNL     1       2.023  14.654  19.406  0.00  0.00    +0.000 A 
ATOM     24  C   UNL     1       2.247  13.963  20.609  0.00  0.00    +0.000 A 
ATOM     25  C   UNL     1       3.493  14.024  21.236  0.00  0.00    +0.000 A 
ATOM     26  C   UNL     1       4.519  14.756  20.652  0.00  0.00    +0.000 A 
ATOM     27  F   UNL     1       5.702  14.847  21.273  0.00  0.00    +0.000 F 
ATOM     28  C   UNL     1       4.332  15.408  19.439  0.00  0.00    +0.000 A 
ATOM     29  C   UNL     1       3.085  15.357  18.814  0.00  0.00    +0.000 A 
ENDBRANCH  22  23
ENDBRANCH  13  22
TORSDOF 3
ENDMDL
MODEL 3
REMARK VINA RESULT:      -6.6      6.889      9.909
REMARK  Name = 
REMARK  3 active torsions:
REMARK  status: ('A' for Active; 'I' for Inactive)
REMARK    1  A    between atoms: C_5  and  C_6
REMARK    2  A    between atoms: N_20  and  C_21
REMARK    3  A    between atoms: C_21  and  C_22
REMARK                            x       y       z     vdW  Elec       q    Type
REMARK                         _______ _______ _______ _____ _____    ______ ____
ROOT
ATOM      1  O   UNL     1       5.930  13.479  23.697  0.00  0.00    +0.000 OA
ATOM      2  C   UNL     1       6.797  13.238  22.858  0.00  0.00    +0.000 A 
ATOM      3  C   UNL     1       7.407  11.890  22.839  0.00  0.00    +0.000 A 
ATOM      4  C   UNL     1       8.402  11.623  21.992  0.00  0.00    +0.000 A 
ATOM      5  C   UNL     1       8.878  12.608  21.036  0.00  0.00    +0.000 A 
ATOM      6  C   UNL     1       8.287  13.831  20.992  0.00  0.00    +0.000 A 
ATOM      7  N   UNL     1       7.272  14.149  21.915  0.00  0.00    +0.000 N 
ATOM      8  C   UNL     1       6.742  15.506  22.038  0.00  0.00    +0.000 C 
ATOM      9  C   UNL     1       7.020  16.463  20.879  0.00  0.00    +0.000 C 
ATOM     10  C   UNL     1       8.475  16.306  20.465  0.00  0.00    +0.000 C 
ATOM     11  C   UNL     1       8.634  14.886  19.932  0.00  0.00    +0.000 C 
ATOM     12  C   UNL     1       7.718  14.722  18.694  0.00  0.00    +0.000 C 
ATOM     13  N   UNL     1       6.292  14.946  18.992  0.00  0.00    +0.000 NA
ATOM     14  C   UNL     1       6.078  16.227  19.678  0.00  0.00    +0.000 C 
ENDROOT
BRANCH   5  15
ATOM     15  C   UNL     1       9.964  12.240  20.103  0.00  0.00    +0.000 A 
ATOM     16  C   UNL     1      11.306  12.429  20.466  0.00  0.00    +0.000 A 
ATOM     17  C   UNL     1      12.331  12.107  19.578  0.00  0.00    +0.000 A 
ATOM     18  C   UNL     1      12.027  11.603  18.312  0.00  0.00    +0.000 A 
ATOM     19  C   UNL     1      10.699  11.417  17.935  0.00  0.00    +0.000 A 
ATOM     20  C   UNL     1       9.677  11.737  18.828  0.00  0.00    +0.000 A 
ATOM     21  F   UNL     1       8.406  11.547  18.444  0.00  0.00    +0.000 F 
ENDBRANCH   5  15
BRANCH  13  22
ATOM     22  C   UNL     1       5.448  14.834  17.788  0.00  0.00    +0.000 C 
BRANCH  22  23
ATOM     23  C   UNL     1       3.982  15.107  18.073  0.00  0.00    +0.000 A 
ATOM     24  C   UNL     1       3.399  16.328  17.690  0.00  0.00    +0.000 A 
ATOM     25  C   UNL     1       2.090  16.633  18.065  0.00  0.00    +0.000 A 
ATOM     26  C   UNL     1       1.356  15.712  18.803  0.00  0.00    +0.000 A 
ATOM     27  F   UNL     1       0.113  16.022  19.197  0.00  0.00    +0.000 F 
ATOM     28  C   UNL     1       1.897  14.481  19.152  0.00  0.00    +0.000 A 
ATOM     29  C   UNL     1       3.209  14.176  18.786  0.00  0.00    +0.000 A 
ENDBRANCH  22  23
ENDBRANCH  13  22
TORSDOF 3
ENDMDL
MODEL 4
REMARK VINA RESULT:      -6.6      3.007      5.388
REMARK  Name = 
REMARK  3 active torsions:
REMARK  status: ('A' for Active; 'I' for Inactive)
REMARK    1  A    between atoms: C_5  and  C_6
REMARK    2  A    between atoms: N_20  and  C_21
REMARK    3  A    between atoms: C_21  and  C_22
REMARK                            x       y       z     vdW  Elec       q    Type
REMARK                         _______ _______ _______ _____ _____    ______ ____
ROOT
ATOM      1  O   UNL     1      -1.327  11.301  23.231  0.00  0.00    +0.000 OA
ATOM      2  C   UNL     1      -0.689  10.654  22.401  0.00  0.00    +0.000 A 
ATOM      3  C   UNL     1      -0.009   9.416  22.841  0.00  0.00    +0.000 A 
ATOM      4  C   UNL     1       0.750   8.735  21.983  0.00  0.00    +0.000 A 
ATOM      5  C   UNL     1       0.892   9.143  20.595  0.00  0.00    +0.000 A 
ATOM      6  C   UNL     1       0.224  10.240  20.154  0.00  0.00    +0.000 A 
ATOM      7  N   UNL     1      -0.540  11.002  21.059  0.00  0.00    +0.000 N 
ATOM      8  C   UNL     1      -1.117  12.292  20.682  0.00  0.00    +0.000 C 
ATOM      9  C   UNL     1      -1.216  12.593  19.186  0.00  0.00    +0.000 C 
ATOM     10  C   UNL     1       0.090  12.182  18.526  0.00  0.00    +0.000 C 
ATOM     11  C   UNL     1       0.209  10.669  18.680  0.00  0.00    +0.000 C 
ATOM     12  C   UNL     1      -0.981  10.007  17.941  0.00  0.00    +0.000 C 
ATOM     13  N   UNL     1      -2.294  10.422  18.465  0.00  0.00    +0.000 NA
ATOM     14  C   UNL     1      -2.417  11.885  18.519  0.00  0.00    +0.000 C 
ENDROOT
BRANCH   5  15
ATOM     15  C   UNL     1       1.726   8.327  19.686  0.00  0.00    +0.000 A 
ATOM     16  C   UNL     1       2.279   8.894  18.530  0.00  0.00    +0.000 A 
ATOM     17  C   UNL     1       3.042   8.121  17.657  0.00  0.00    +0.000 A 
ATOM     18  C   UNL     1       3.253   6.767  17.925  0.00  0.00    +0.000 A 
ATOM     19  C   UNL     1       2.704   6.188  19.067  0.00  0.00    +0.000 A 
ATOM     20  C   UNL     1       1.944   6.966  19.938  0.00  0.00    +0.000 A 
ATOM     21  F   UNL     1       1.427   6.387  21.031  0.00  0.00    +0.000 F 
ENDBRANCH   5  15
BRANCH  13  22
ATOM     22  C   UNL     1      -3.409   9.818  17.713  0.00  0.00    +0.000 C 
BRANCH  22  23
ATOM     23  C   UNL     1      -4.672  10.659  17.760  0.00  0.00    +0.000 A 
ATOM     24  C   UNL     1      -4.824  11.760  16.899  0.00  0.00    +0.000 A 
ATOM     25  C   UNL     1      -5.924  12.611  17.030  0.00  0.00    +0.000 A 
ATOM     26  C   UNL     1      -6.880  12.349  18.002  0.00  0.00    +0.000 A 
ATOM     27  F   UNL     1      -7.915  13.188  18.153  0.00  0.00    +0.000 F 
ATOM     28  C   UNL     1      -6.773  11.240  18.832  0.00  0.00    +0.000 A 
ATOM     29  C   UNL     1      -5.671  10.393  18.712  0.00  0.00    +0.000 A 
ENDBRANCH  22  23
ENDBRANCH  13  22
TORSDOF 3
ENDMDL
MODEL 5
REMARK VINA RESULT:      -6.6      2.795      6.064
REMARK  Name = 
REMARK  3 active torsions:
REMARK  status: ('A' for Active; 'I' for Inactive)
REMARK    1  A    between atoms: C_5  and  C_6
REMARK    2  A    between atoms: N_20  and  C_21
REMARK    3  A    between atoms: C_21  and  C_22
REMARK                            x       y       z     vdW  Elec       q    Type
REMARK                         _______ _______ _______ _____ _____    ______ ____
ROOT
ATOM      1  O   UNL     1       1.118   8.374  21.541  0.00  0.00    +0.000 OA
ATOM      2  C   UNL     1       0.399   9.351  21.745  0.00  0.00    +0.000 A 
ATOM      3  C   UNL     1      -0.297   9.455  23.046  0.00  0.00    +0.000 A 
ATOM      4  C   UNL     1      -1.142  10.462  23.268  0.00  0.00    +0.000 A 
ATOM      5  C   UNL     1      -1.365  11.506  22.282  0.00  0.00    +0.000 A 
ATOM      6  C   UNL     1      -0.686  11.465  21.106  0.00  0.00    +0.000 A 
ATOM      7  N   UNL     1       0.170  10.380  20.833  0.00  0.00    +0.000 N 
ATOM      8  C   UNL     1       0.770  10.187  19.513  0.00  0.00    +0.000 C 
ATOM      9  C   UNL     1       0.776  11.395  18.575  0.00  0.00    +0.000 C 
ATOM     10  C   UNL     1      -0.589  12.061  18.642  0.00  0.00    +0.000 C 
ATOM     11  C   UNL     1      -0.757  12.588  20.063  0.00  0.00    +0.000 C 
ATOM     12  C   UNL     1       0.349  13.639  20.329  0.00  0.00    +0.000 C 
ATOM     13  N   UNL     1       1.713  13.092  20.198  0.00  0.00    +0.000 NA
ATOM     14  C   UNL     1       1.897  12.402  18.915  0.00  0.00    +0.000 C 
ENDROOT
BRANCH   5  15
ATOM     15  C   UNL     1      -2.292  12.613  22.601  0.00  0.00    +0.000 A 
ATOM     16  C   UNL     1      -3.633  12.554  22.195  0.00  0.00    +0.000 A 
ATOM     17  C   UNL     1      -4.503  13.607  22.471  0.00  0.00    +0.000 A 
ATOM     18  C   UNL     1      -4.040  14.738  23.147  0.00  0.00    +0.000 A 
ATOM     19  C   UNL     1      -2.708  14.813  23.551  0.00  0.00    +0.000 A 
ATOM     20  C   UNL     1      -1.844  13.755  23.275  0.00  0.00    +0.000 A 
ATOM     21  F   UNL     1      -0.567  13.849  23.675  0.00  0.00    +0.000 F 
ENDBRANCH   5  15
BRANCH  13  22
ATOM     22  C   UNL     1       2.747  14.122  20.407  0.00  0.00    +0.000 C 
BRANCH  22  23
ATOM     23  C   UNL     1       2.793  15.143  19.284  0.00  0.00    +0.000 A 
ATOM     24  C   UNL     1       1.894  16.223  19.267  0.00  0.00    +0.000 A 
ATOM     25  C   UNL     1       1.848  17.086  18.171  0.00  0.00    +0.000 A 
ATOM     26  C   UNL     1       2.714  16.885  17.104  0.00  0.00    +0.000 A 
ATOM     27  F   UNL     1       2.643  17.690  16.035  0.00  0.00    +0.000 F 
ATOM     28  C   UNL     1       3.643  15.851  17.121  0.00  0.00    +0.000 A 
ATOM     29  C   UNL     1       3.685  14.980  18.211  0.00  0.00    +0.000 A 
ENDBRANCH  22  23
ENDBRANCH  13  22
TORSDOF 3
ENDMDL
MODEL 6
REMARK VINA RESULT:      -6.6      2.660      6.179
REMARK  Name = 
REMARK  3 active torsions:
REMARK  status: ('A' for Active; 'I' for Inactive)
REMARK    1  A    between atoms: C_5  and  C_6
REMARK    2  A    between atoms: N_20  and  C_21
REMARK    3  A    between atoms: C_21  and  C_22
REMARK                            x       y       z     vdW  Elec       q    Type
REMARK                         _______ _______ _______ _____ _____    ______ ____
ROOT
ATOM      1  O   UNL     1       0.660   8.305  21.217  0.00  0.00    +0.000 OA
ATOM      2  C   UNL     1       0.098   9.341  21.568  0.00  0.00    +0.000 A 
ATOM      3  C   UNL     1      -0.429   9.428  22.947  0.00  0.00    +0.000 A 
ATOM      4  C   UNL     1      -1.108  10.508  23.332  0.00  0.00    +0.000 A 
ATOM      5  C   UNL     1      -1.306  11.644  22.447  0.00  0.00    +0.000 A 
ATOM      6  C   UNL     1      -0.775  11.612  21.198  0.00  0.00    +0.000 A 
ATOM      7  N   UNL     1      -0.100  10.458  20.756  0.00  0.00    +0.000 N 
ATOM      8  C   UNL     1       0.319  10.297  19.364  0.00  0.00    +0.000 C 
ATOM      9  C   UNL     1       0.372  11.564  18.509  0.00  0.00    +0.000 C 
ATOM     10  C   UNL     1      -0.882  12.380  18.782  0.00  0.00    +0.000 C 
ATOM     11  C   UNL     1      -0.820  12.813  20.243  0.00  0.00    +0.000 C 
ATOM     12  C   UNL     1       0.434  13.701  20.438  0.00  0.00    +0.000 C 
ATOM     13  N   UNL     1       1.693  13.008  20.109  0.00  0.00    +0.000 NA
ATOM     14  C   UNL     1       1.642  12.402  18.772  0.00  0.00    +0.000 C 
ENDROOT
BRANCH   5  15
ATOM     15  C   UNL     1      -2.044  12.824  22.945  0.00  0.00    +0.000 A 
ATOM     16  C   UNL     1      -1.393  13.789  23.729  0.00  0.00    +0.000 A 
ATOM     17  C   UNL     1      -2.092  14.889  24.222  0.00  0.00    +0.000 A 
ATOM     18  C   UNL     1      -3.454  15.033  23.948  0.00  0.00    +0.000 A 
ATOM     19  C   UNL     1      -4.114  14.079  23.176  0.00  0.00    +0.000 A 
ATOM     20  C   UNL     1      -3.410  12.983  22.683  0.00  0.00    +0.000 A 
ATOM     21  F   UNL     1      -4.067  12.079  21.941  0.00  0.00    +0.000 F 
ENDBRANCH   5  15
BRANCH  13  22
ATOM     22  C   UNL     1       2.867  13.889  20.255  0.00  0.00    +0.000 C 
BRANCH  22  23
ATOM     23  C   UNL     1       2.908  14.988  19.208  0.00  0.00    +0.000 A 
ATOM     24  C   UNL     1       2.111  16.137  19.351  0.00  0.00    +0.000 A 
ATOM     25  C   UNL     1       2.050  17.085  18.329  0.00  0.00    +0.000 A 
ATOM     26  C   UNL     1       2.800  16.898  17.175  0.00  0.00    +0.000 A 
ATOM     27  F   UNL     1       2.711  17.788  16.178  0.00  0.00    +0.000 F 
ATOM     28  C   UNL     1       3.631  15.793  17.033  0.00  0.00    +0.000 A 
ATOM     29  C   UNL     1       3.688  14.838  18.049  0.00  0.00    +0.000 A 
ENDBRANCH  22  23
ENDBRANCH  13  22
TORSDOF 3
ENDMDL
MODEL 7
REMARK VINA RESULT:      -6.6      2.344      5.615
REMARK  Name = 
REMARK  3 active torsions:
REMARK  status: ('A' for Active; 'I' for Inactive)
REMARK    1  A    between atoms: C_5  and  C_6
REMARK    2  A    between atoms: N_20  and  C_21
REMARK    3  A    between atoms: C_21  and  C_22
REMARK                            x       y       z     vdW  Elec       q    Type
REMARK                         _______ _______ _______ _____ _____    ______ ____
ROOT
ATOM      1  O   UNL     1      -0.798   9.244  23.145  0.00  0.00    +0.000 OA
ATOM      2  C   UNL     1      -0.422  10.238  22.525  0.00  0.00    +0.000 A 
ATOM      3  C   UNL     1       0.832  10.150  21.745  0.00  0.00    +0.000 A 
ATOM      4  C   UNL     1       1.305  11.232  21.125  0.00  0.00    +0.000 A 
ATOM      5  C   UNL     1       0.592  12.499  21.144  0.00  0.00    +0.000 A 
ATOM      6  C   UNL     1      -0.594  12.583  21.801  0.00  0.00    +0.000 A 
ATOM      7  N   UNL     1      -1.082  11.466  22.506  0.00  0.00    +0.000 N 
ATOM      8  C   UNL     1      -2.248  11.560  23.384  0.00  0.00    +0.000 C 
ATOM      9  C   UNL     1      -3.153  12.778  23.200  0.00  0.00    +0.000 C 
ATOM     10  C   UNL     1      -2.276  14.011  23.053  0.00  0.00    +0.000 C 
ATOM     11  C   UNL     1      -1.478  13.837  21.766  0.00  0.00    +0.000 C 
ATOM     12  C   UNL     1      -2.471  13.761  20.580  0.00  0.00    +0.000 C 
ATOM     13  N   UNL     1      -3.420  12.637  20.690  0.00  0.00    +0.000 NA
ATOM     14  C   UNL     1      -4.103  12.632  21.990  0.00  0.00    +0.000 C 
ENDROOT
BRANCH   5  15
ATOM     15  C   UNL     1       1.155  13.652  20.411  0.00  0.00    +0.000 A 
ATOM     16  C   UNL     1       1.934  14.607  21.081  0.00  0.00    +0.000 A 
ATOM     17  C   UNL     1       2.444  15.710  20.398  0.00  0.00    +0.000 A 
ATOM     18  C   UNL     1       2.171  15.878  19.039  0.00  0.00    +0.000 A 
ATOM     19  C   UNL     1       1.393  14.941  18.362  0.00  0.00    +0.000 A 
ATOM     20  C   UNL     1       0.889  13.838  19.049  0.00  0.00    +0.000 A 
ATOM     21  F   UNL     1       0.144  12.949  18.376  0.00  0.00    +0.000 F 
ENDBRANCH   5  15
BRANCH  13  22
ATOM     22  C   UNL     1      -4.387  12.615  19.576  0.00  0.00    +0.000 C 
BRANCH  22  23
ATOM     23  C   UNL     1      -3.884  11.829  18.379  0.00  0.00    +0.000 A 
ATOM     24  C   UNL     1      -4.645  11.765  17.199  0.00  0.00    +0.000 A 
ATOM     25  C   UNL     1      -4.249  10.938  16.147  0.00  0.00    +0.000 A 
ATOM     26  C   UNL     1      -3.081  10.194  16.263  0.00  0.00    +0.000 A 
ATOM     27  F   UNL     1      -2.721   9.371  15.269  0.00  0.00    +0.000 F 
ATOM     28  C   UNL     1      -2.289  10.279  17.402  0.00  0.00    +0.000 A 
ATOM     29  C   UNL     1      -2.687  11.097  18.460  0.00  0.00    +0.000 A 
ENDBRANCH  22  23
ENDBRANCH  13  22
TORSDOF 3
ENDMDL
MODEL 8
REMARK VINA RESULT:      -6.5      3.135      6.124
REMARK  Name = 
REMARK  3 active torsions:
REMARK  status: ('A' for Active; 'I' for Inactive)
REMARK    1  A    between atoms: C_5  and  C_6
REMARK    2  A    between atoms: N_20  and  C_21
REMARK    3  A    between atoms: C_21  and  C_22
REMARK                            x       y       z     vdW  Elec       q    Type
REMARK                         _______ _______ _______ _____ _____    ______ ____
ROOT
ATOM      1  O   UNL     1      -5.253  17.393  22.898  0.00  0.00    +0.000 OA
ATOM      2  C   UNL     1      -5.409  16.293  22.370  0.00  0.00    +0.000 A 
ATOM      3  C   UNL     1      -6.252  16.204  21.158  0.00  0.00    +0.000 A 
ATOM      4  C   UNL     1      -6.501  15.016  20.608  0.00  0.00    +0.000 A 
ATOM      5  C   UNL     1      -5.921  13.791  21.134  0.00  0.00    +0.000 A 
ATOM      6  C   UNL     1      -5.092  13.858  22.208  0.00  0.00    +0.000 A 
ATOM      7  N   UNL     1      -4.860  15.098  22.834  0.00  0.00    +0.000 N 
ATOM      8  C   UNL     1      -4.136  15.196  24.101  0.00  0.00    +0.000 C 
ATOM      9  C   UNL     1      -3.297  13.985  24.511  0.00  0.00    +0.000 C 
ATOM     10  C   UNL     1      -4.111  12.727  24.256  0.00  0.00    +0.000 C 
ATOM     11  C   UNL     1      -4.332  12.639  22.750  0.00  0.00    +0.000 C 
ATOM     12  C   UNL     1      -2.952  12.516  22.058  0.00  0.00    +0.000 C 
ATOM     13  N   UNL     1      -2.063  13.662  22.328  0.00  0.00    +0.000 NA
ATOM     14  C   UNL     1      -1.944  13.925  23.768  0.00  0.00    +0.000 C 
ENDROOT
BRANCH   5  15
ATOM     15  C   UNL     1      -6.213  12.509  20.459  0.00  0.00    +0.000 A 
ATOM     16  C   UNL     1      -5.536  12.155  19.284  0.00  0.00    +0.000 A 
ATOM     17  C   UNL     1      -5.828  10.959  18.631  0.00  0.00    +0.000 A 
ATOM     18  C   UNL     1      -6.810  10.106  19.140  0.00  0.00    +0.000 A 
ATOM     19  C   UNL     1      -7.495  10.448  20.303  0.00  0.00    +0.000 A 
ATOM     20  C   UNL     1      -7.197  11.644  20.954  0.00  0.00    +0.000 A 
ATOM     21  F   UNL     1      -7.869  11.950  22.073  0.00  0.00    +0.000 F 
ENDBRANCH   5  15
BRANCH  13  22
ATOM     22  C   UNL     1      -0.739  13.497  21.700  0.00  0.00    +0.000 C 
BRANCH  22  23
ATOM     23  C   UNL     1      -0.764  12.542  20.521  0.00  0.00    +0.000 A 
ATOM     24  C   UNL     1      -1.404  12.908  19.324  0.00  0.00    +0.000 A 
ATOM     25  C   UNL     1      -1.541  11.983  18.287  0.00  0.00    +0.000 A 
ATOM     26  C   UNL     1      -1.020  10.705  18.435  0.00  0.00    +0.000 A 
ATOM     27  F   UNL     1      -1.187   9.806  17.455  0.00  0.00    +0.000 F 
ATOM     28  C   UNL     1      -0.343  10.337  19.592  0.00  0.00    +0.000 A 
ATOM     29  C   UNL     1      -0.212  11.255  20.635  0.00  0.00    +0.000 A 
ENDBRANCH  22  23
ENDBRANCH  13  22
TORSDOF 3
ENDMDL
MODEL 9
REMARK VINA RESULT:      -6.5      2.358      5.283
REMARK  Name = 
REMARK  3 active torsions:
REMARK  status: ('A' for Active; 'I' for Inactive)
REMARK    1  A    between atoms: C_5  and  C_6
REMARK    2  A    between atoms: N_20  and  C_21
REMARK    3  A    between atoms: C_21  and  C_22
REMARK                            x       y       z     vdW  Elec       q    Type
REMARK                         _______ _______ _______ _____ _____    ______ ____
ROOT
ATOM      1  O   UNL     1      -0.204   9.062  21.895  0.00  0.00    +0.000 OA
ATOM      2  C   UNL     1       0.021  10.205  21.499  0.00  0.00    +0.000 A 
ATOM      3  C   UNL     1       1.012  10.396  20.418  0.00  0.00    +0.000 A 
ATOM      4  C   UNL     1       1.332  11.628  20.021  0.00  0.00    +0.000 A 
ATOM      5  C   UNL     1       0.692  12.805  20.584  0.00  0.00    +0.000 A 
ATOM      6  C   UNL     1      -0.269  12.649  21.532  0.00  0.00    +0.000 A 
ATOM      7  N   UNL     1      -0.581  11.358  22.002  0.00  0.00    +0.000 N 
ATOM      8  C   UNL     1      -1.461  11.151  23.151  0.00  0.00    +0.000 C 
ATOM      9  C   UNL     1      -2.345  12.328  23.565  0.00  0.00    +0.000 C 
ATOM     10  C   UNL     1      -1.502  13.593  23.538  0.00  0.00    +0.000 C 
ATOM     11  C   UNL     1      -1.089  13.821  22.087  0.00  0.00    +0.000 C 
ATOM     12  C   UNL     1      -2.369  14.028  21.241  0.00  0.00    +0.000 C 
ATOM     13  N   UNL     1      -3.287  12.875  21.284  0.00  0.00    +0.000 NA
ATOM     14  C   UNL     1      -3.591  12.478  22.665  0.00  0.00    +0.000 C 
ENDROOT
BRANCH   5  15
ATOM     15  C   UNL     1       1.070  14.142  20.079  0.00  0.00    +0.000 A 
ATOM     16  C   UNL     1       2.078  14.882  20.714  0.00  0.00    +0.000 A 
ATOM     17  C   UNL     1       2.418  16.153  20.256  0.00  0.00    +0.000 A 
ATOM     18  C   UNL     1       1.746  16.706  19.164  0.00  0.00    +0.000 A 
ATOM     19  C   UNL     1       0.738  15.986  18.527  0.00  0.00    +0.000 A 
ATOM     20  C   UNL     1       0.404  14.713  18.987  0.00  0.00    +0.000 A 
ATOM     21  F   UNL     1      -0.569  14.038  18.357  0.00  0.00    +0.000 F 
ENDBRANCH   5  15
BRANCH  13  22
ATOM     22  C   UNL     1      -4.520  13.117  20.512  0.00  0.00    +0.000 C 
BRANCH  22  23
ATOM     23  C   UNL     1      -4.527  12.393  19.177  0.00  0.00    +0.000 A 
ATOM     24  C   UNL     1      -3.381  11.713  18.731  0.00  0.00    +0.000 A 
ATOM     25  C   UNL     1      -3.342  11.159  17.451  0.00  0.00    +0.000 A 
ATOM     26  C   UNL     1      -4.455  11.264  16.625  0.00  0.00    +0.000 A 
ATOM     27  F   UNL     1      -4.404  10.766  15.382  0.00  0.00    +0.000 F 
ATOM     28  C   UNL     1      -5.615  11.891  17.064  0.00  0.00    +0.000 A 
ATOM     29  C   UNL     1      -5.654  12.455  18.340  0.00  0.00    +0.000 A 
ENDBRANCH  22  23
ENDBRANCH  13  22
TORSDOF 3
ENDMDL
