MODEL 1
REMARK VINA RESULT:      -7.9      0.000      0.000
REMARK  Name = 
REMARK  8 active torsions:
REMARK  status: ('A' for Active; 'I' for Inactive)
REMARK    1  A    between atoms: C_1  and  O_2
REMARK    2  A    between atoms: O_2  and  C_3
REMARK    3  A    between atoms: C_8  and  O_9
REMARK    4  A    between atoms: O_9  and  S_10
REMARK    5  A    between atoms: S_10  and  N_11
REMARK    6  A    between atoms: N_17  and  C_18
REMARK    7  A    between atoms: C_18  and  C_19
REMARK    8  A    between atoms: C_24  and  C_25
REMARK                            x       y       z     vdW  Elec       q    Type
REMARK                         _______ _______ _______ _____ _____    ______ ____
ROOT
ATOM      1  C   UNL     1       2.923   4.840  18.151  0.00  0.00    +0.000 A 
ATOM      2  C   UNL     1       2.774   6.173  17.741  0.00  0.00    +0.000 A 
ATOM      3  C   UNL     1       2.345   7.151  18.649  0.00  0.00    +0.000 A 
ATOM      4  C   UNL     1       2.109   6.789  19.967  0.00  0.00    +0.000 A 
ATOM      5  C   UNL     1       2.321   5.484  20.405  0.00  0.00    +0.000 A 
ATOM      6  C   UNL     1       2.731   4.499  19.501  0.00  0.00    +0.000 A 
ATOM      7  N   UNL     1       1.614   7.744  20.846  0.00  0.00    +0.000 N 
ATOM      8  C   UNL     1       1.153   8.977  20.480  0.00  0.00    +0.000 C 
ATOM      9  O   UNL     1       0.632   9.693  21.333  0.00  0.00    +0.000 OA
ATOM     10  N   UNL     1       1.283   9.322  19.149  0.00  0.00    +0.000 N 
ATOM     11  C   UNL     1       2.193   8.593  18.278  0.00  0.00    +0.000 C 
ATOM     12  H   UNL     1       1.441   7.503  21.813  0.00  0.00    +0.000 HD
ENDROOT
BRANCH   1  14
ATOM     13  C   UNL     1       4.492   4.335  16.444  0.00  0.00    +0.000 C 
ATOM     14  O   UNL     1       3.303   3.988  17.143  0.00  0.00    +0.000 OA
ENDBRANCH   1  14
BRANCH   6  15
ATOM     15  O   UNL     1       2.881   3.192  19.880  0.00  0.00    +0.000 OA
BRANCH  15  16
ATOM     16  S   UNL     1       4.338   2.486  20.017  0.00  0.00    +0.000 S 
ATOM     17  O   UNL     1       5.362   3.431  19.630  0.00  0.00    +0.000 OA
ATOM     18  O   UNL     1       4.391   1.737  21.248  0.00  0.00    +0.000 OA
BRANCH  16  19
ATOM     19  N   UNL     1       4.286   1.335  18.796  0.00  0.00    +0.000 NA
ATOM     20  H   UNL     1       5.221   1.062  18.502  0.00  0.00    +0.000 HD
ATOM     21  H   UNL     1       3.653   1.613  18.051  0.00  0.00    +0.000 HD
ENDBRANCH  16  19
ENDBRANCH  15  16
ENDBRANCH   6  15
BRANCH  10  22
ATOM     22  C   UNL     1       0.860  10.654  18.725  0.00  0.00    +0.000 C 
BRANCH  22  23
ATOM     23  C   UNL     1      -0.625  10.767  18.427  0.00  0.00    +0.000 A 
ATOM     24  C   UNL     1      -1.180   9.868  17.494  0.00  0.00    +0.000 A 
ATOM     25  C   UNL     1      -2.547   9.852  17.219  0.00  0.00    +0.000 A 
ATOM     26  C   UNL     1      -3.392  10.740  17.871  0.00  0.00    +0.000 A 
ATOM     27  C   UNL     1      -2.864  11.652  18.783  0.00  0.00    +0.000 A 
ATOM     28  C   UNL     1      -1.485  11.688  19.066  0.00  0.00    +0.000 A 
ATOM     29  C   UNL     1      -1.010  12.688  20.081  0.00  0.00    +0.000 C 
ENDBRANCH  22  23
ENDBRANCH  10  22
TORSDOF 6
ENDMDL
MODEL 2
REMARK VINA RESULT:      -7.8      1.116      1.477
REMARK  Name = 
REMARK  8 active torsions:
REMARK  status: ('A' for Active; 'I' for Inactive)
REMARK    1  A    between atoms: C_1  and  O_2
REMARK    2  A    between atoms: O_2  and  C_3
REMARK    3  A    between atoms: C_8  and  O_9
REMARK    4  A    between atoms: O_9  and  S_10
REMARK    5  A    between atoms: S_10  and  N_11
REMARK    6  A    between atoms: N_17  and  C_18
REMARK    7  A    between atoms: C_18  and  C_19
REMARK    8  A    between atoms: C_24  and  C_25
REMARK                            x       y       z     vdW  Elec       q    Type
REMARK                         _______ _______ _______ _____ _____    ______ ____
ROOT
ATOM      1  C   UNL     1       3.675   5.823  17.726  0.00  0.00    +0.000 A 
ATOM      2  C   UNL     1       3.320   7.166  17.532  0.00  0.00    +0.000 A 
ATOM      3  C   UNL     1       2.571   7.849  18.501  0.00  0.00    +0.000 A 
ATOM      4  C   UNL     1       2.223   7.189  19.670  0.00  0.00    +0.000 A 
ATOM      5  C   UNL     1       2.630   5.878  19.907  0.00  0.00    +0.000 A 
ATOM      6  C   UNL     1       3.360   5.185  18.937  0.00  0.00    +0.000 A 
ATOM      7  N   UNL     1       1.419   7.844  20.595  0.00  0.00    +0.000 N 
ATOM      8  C   UNL     1       0.776   9.028  20.370  0.00  0.00    +0.000 C 
ATOM      9  O   UNL     1       0.000   9.454  21.223  0.00  0.00    +0.000 OA
ATOM     10  N   UNL     1       1.028   9.656  19.166  0.00  0.00    +0.000 N 
ATOM     11  C   UNL     1       2.186   9.288  18.364  0.00  0.00    +0.000 C 
ATOM     12  H   UNL     1       1.158   7.385  21.458  0.00  0.00    +0.000 HD
ENDROOT
BRANCH   1  14
ATOM     13  C   UNL     1       5.192   6.163  15.932  0.00  0.00    +0.000 C 
ATOM     14  O   UNL     1       4.365   5.274  16.673  0.00  0.00    +0.000 OA
ENDBRANCH   1  14
BRANCH   6  15
ATOM     15  O   UNL     1       3.716   3.874  19.106  0.00  0.00    +0.000 OA
BRANCH  15  16
ATOM     16  S   UNL     1       2.711   2.646  18.757  0.00  0.00    +0.000 S 
ATOM     17  O   UNL     1       2.028   2.234  19.963  0.00  0.00    +0.000 OA
ATOM     18  O   UNL     1       2.018   2.931  17.525  0.00  0.00    +0.000 OA
BRANCH  16  19
ATOM     19  N   UNL     1       3.784   1.408  18.389  0.00  0.00    +0.000 NA
ATOM     20  H   UNL     1       3.710   1.130  17.414  0.00  0.00    +0.000 HD
ATOM     21  H   UNL     1       3.727   0.655  19.069  0.00  0.00    +0.000 HD
ENDBRANCH  16  19
ENDBRANCH  15  16
ENDBRANCH   6  15
BRANCH  10  22
ATOM     22  C   UNL     1       0.410  10.953  18.907  0.00  0.00    +0.000 C 
BRANCH  22  23
ATOM     23  C   UNL     1      -1.016  10.868  18.388  0.00  0.00    +0.000 A 
ATOM     24  C   UNL     1      -1.297   9.914  17.390  0.00  0.00    +0.000 A 
ATOM     25  C   UNL     1      -2.593   9.717  16.912  0.00  0.00    +0.000 A 
ATOM     26  C   UNL     1      -3.638  10.476  17.421  0.00  0.00    +0.000 A 
ATOM     27  C   UNL     1      -3.381  11.439  18.394  0.00  0.00    +0.000 A 
ATOM     28  C   UNL     1      -2.078  11.658  18.882  0.00  0.00    +0.000 A 
ATOM     29  C   UNL     1      -1.900  12.701  19.948  0.00  0.00    +0.000 C 
ENDBRANCH  22  23
ENDBRANCH  10  22
TORSDOF 6
ENDMDL
MODEL 3
REMARK VINA RESULT:      -7.7      1.449      1.559
REMARK  Name = 
REMARK  8 active torsions:
REMARK  status: ('A' for Active; 'I' for Inactive)
REMARK    1  A    between atoms: C_1  and  O_2
REMARK    2  A    between atoms: O_2  and  C_3
REMARK    3  A    between atoms: C_8  and  O_9
REMARK    4  A    between atoms: O_9  and  S_10
REMARK    5  A    between atoms: S_10  and  N_11
REMARK    6  A    between atoms: N_17  and  C_18
REMARK    7  A    between atoms: C_18  and  C_19
REMARK    8  A    between atoms: C_24  and  C_25
REMARK                            x       y       z     vdW  Elec       q    Type
REMARK                         _______ _______ _______ _____ _____    ______ ____
ROOT
ATOM      1  C   UNL     1       2.871   5.457  18.488  0.00  0.00    +0.000 A 
ATOM      2  C   UNL     1       2.590   6.738  17.988  0.00  0.00    +0.000 A 
ATOM      3  C   UNL     1       2.063   7.728  18.828  0.00  0.00    +0.000 A 
ATOM      4  C   UNL     1       1.861   7.436  20.169  0.00  0.00    +0.000 A 
ATOM      5  C   UNL     1       2.202   6.192  20.695  0.00  0.00    +0.000 A 
ATOM      6  C   UNL     1       2.710   5.193  19.859  0.00  0.00    +0.000 A 
ATOM      7  N   UNL     1       1.271   8.395  20.983  0.00  0.00    +0.000 N 
ATOM      8  C   UNL     1       0.690   9.548  20.535  0.00  0.00    +0.000 C 
ATOM      9  O   UNL     1       0.098  10.265  21.339  0.00  0.00    +0.000 OA
ATOM     10  N   UNL     1       0.789   9.812  19.183  0.00  0.00    +0.000 N 
ATOM     11  C   UNL     1       1.770   9.119  18.360  0.00  0.00    +0.000 C 
ATOM     12  H   UNL     1       1.120   8.206  21.965  0.00  0.00    +0.000 HD
ENDROOT
BRANCH   1  14
ATOM     13  C   UNL     1       4.736   4.618  17.284  0.00  0.00    +0.000 C 
ATOM     14  O   UNL     1       3.337   4.581  17.540  0.00  0.00    +0.000 OA
ENDBRANCH   1  14
BRANCH   6  15
ATOM     15  O   UNL     1       2.989   3.937  20.326  0.00  0.00    +0.000 OA
BRANCH  15  16
ATOM     16  S   UNL     1       1.836   2.818  20.562  0.00  0.00    +0.000 S 
ATOM     17  O   UNL     1       1.945   1.801  19.540  0.00  0.00    +0.000 OA
ATOM     18  O   UNL     1       1.751   2.508  21.967  0.00  0.00    +0.000 OA
BRANCH  16  19
ATOM     19  N   UNL     1       0.437   3.677  20.209  0.00  0.00    +0.000 NA
ATOM     20  H   UNL     1      -0.386   3.224  20.600  0.00  0.00    +0.000 HD
ATOM     21  H   UNL     1       0.385   3.912  19.222  0.00  0.00    +0.000 HD
ENDBRANCH  16  19
ENDBRANCH  15  16
ENDBRANCH   6  15
BRANCH  10  22
ATOM     22  C   UNL     1       0.236  11.062  18.669  0.00  0.00    +0.000 C 
BRANCH  22  23
ATOM     23  C   UNL     1      -1.236  10.983  18.300  0.00  0.00    +0.000 A 
ATOM     24  C   UNL     1      -1.628  10.010  17.359  0.00  0.00    +0.000 A 
ATOM     25  C   UNL     1      -2.967   9.819  17.021  0.00  0.00    +0.000 A 
ATOM     26  C   UNL     1      -3.947  10.602  17.616  0.00  0.00    +0.000 A 
ATOM     27  C   UNL     1      -3.582  11.585  18.534  0.00  0.00    +0.000 A 
ATOM     28  C   UNL     1      -2.234  11.798  18.881  0.00  0.00    +0.000 A 
ATOM     29  C   UNL     1      -1.937  12.862  19.899  0.00  0.00    +0.000 C 
ENDBRANCH  22  23
ENDBRANCH  10  22
TORSDOF 6
ENDMDL
MODEL 4
REMARK VINA RESULT:      -7.4      1.111      1.168
REMARK  Name = 
REMARK  8 active torsions:
REMARK  status: ('A' for Active; 'I' for Inactive)
REMARK    1  A    between atoms: C_1  and  O_2
REMARK    2  A    between atoms: O_2  and  C_3
REMARK    3  A    between atoms: C_8  and  O_9
REMARK    4  A    between atoms: O_9  and  S_10
REMARK    5  A    between atoms: S_10  and  N_11
REMARK    6  A    between atoms: N_17  and  C_18
REMARK    7  A    between atoms: C_18  and  C_19
REMARK    8  A    between atoms: C_24  and  C_25
REMARK                            x       y       z     vdW  Elec       q    Type
REMARK                         _______ _______ _______ _____ _____    ______ ____
ROOT
ATOM      1  C   UNL     1       3.228   6.059  18.021  0.00  0.00    +0.000 A 
ATOM      2  C   UNL     1       2.874   7.406  17.851  0.00  0.00    +0.000 A 
ATOM      3  C   UNL     1       2.152   8.081  18.845  0.00  0.00    +0.000 A 
ATOM      4  C   UNL     1       1.829   7.410  20.015  0.00  0.00    +0.000 A 
ATOM      5  C   UNL     1       2.236   6.094  20.227  0.00  0.00    +0.000 A 
ATOM      6  C   UNL     1       2.939   5.408  19.232  0.00  0.00    +0.000 A 
ATOM      7  N   UNL     1       1.051   8.057  20.967  0.00  0.00    +0.000 N 
ATOM      8  C   UNL     1       0.408   9.247  20.771  0.00  0.00    +0.000 C 
ATOM      9  O   UNL     1      -0.344   9.667  21.648  0.00  0.00    +0.000 OA
ATOM     10  N   UNL     1       0.634   9.887  19.568  0.00  0.00    +0.000 N 
ATOM     11  C   UNL     1       1.770   9.523  18.734  0.00  0.00    +0.000 C 
ATOM     12  H   UNL     1       0.809   7.589  21.830  0.00  0.00    +0.000 HD
ENDROOT
BRANCH   1  14
ATOM     13  C   UNL     1       4.927   6.313  16.383  0.00  0.00    +0.000 C 
ATOM     14  O   UNL     1       3.889   5.519  16.945  0.00  0.00    +0.000 OA
ENDBRANCH   1  14
BRANCH   6  15
ATOM     15  O   UNL     1       3.292   4.094  19.377  0.00  0.00    +0.000 OA
BRANCH  15  16
ATOM     16  S   UNL     1       4.841   3.602  19.373  0.00  0.00    +0.000 S 
ATOM     17  O   UNL     1       5.704   4.748  19.553  0.00  0.00    +0.000 OA
ATOM     18  O   UNL     1       4.962   2.401  20.162  0.00  0.00    +0.000 OA
BRANCH  16  19
ATOM     19  N   UNL     1       5.049   3.113  17.781  0.00  0.00    +0.000 NA
ATOM     20  H   UNL     1       4.429   2.341  17.545  0.00  0.00    +0.000 HD
ATOM     21  H   UNL     1       6.032   2.972  17.563  0.00  0.00    +0.000 HD
ENDBRANCH  16  19
ENDBRANCH  15  16
ENDBRANCH   6  15
BRANCH  10  22
ATOM     22  C   UNL     1       0.016  11.190  19.339  0.00  0.00    +0.000 C 
BRANCH  22  23
ATOM     23  C   UNL     1      -1.368  11.119  18.715  0.00  0.00    +0.000 A 
ATOM     24  C   UNL     1      -1.578  10.181  17.684  0.00  0.00    +0.000 A 
ATOM     25  C   UNL     1      -2.835   9.997  17.110  0.00  0.00    +0.000 A 
ATOM     26  C   UNL     1      -3.913  10.752  17.553  0.00  0.00    +0.000 A 
ATOM     27  C   UNL     1      -3.726  11.699  18.557  0.00  0.00    +0.000 A 
ATOM     28  C   UNL     1      -2.461  11.905  19.142  0.00  0.00    +0.000 A 
ATOM     29  C   UNL     1      -2.359  12.931  20.235  0.00  0.00    +0.000 C 
ENDBRANCH  22  23
ENDBRANCH  10  22
TORSDOF 6
ENDMDL
MODEL 5
REMARK VINA RESULT:      -7.3      3.189      7.689
REMARK  Name = 
REMARK  8 active torsions:
REMARK  status: ('A' for Active; 'I' for Inactive)
REMARK    1  A    between atoms: C_1  and  O_2
REMARK    2  A    between atoms: O_2  and  C_3
REMARK    3  A    between atoms: C_8  and  O_9
REMARK    4  A    between atoms: O_9  and  S_10
REMARK    5  A    between atoms: S_10  and  N_11
REMARK    6  A    between atoms: N_17  and  C_18
REMARK    7  A    between atoms: C_18  and  C_19
REMARK    8  A    between atoms: C_24  and  C_25
REMARK                            x       y       z     vdW  Elec       q    Type
REMARK                         _______ _______ _______ _____ _____    ______ ____
ROOT
ATOM      1  C   UNL     1       1.491   9.117  18.935  0.00  0.00    +0.000 A 
ATOM      2  C   UNL     1       1.920   8.058  18.121  0.00  0.00    +0.000 A 
ATOM      3  C   UNL     1       2.236   6.814  18.684  0.00  0.00    +0.000 A 
ATOM      4  C   UNL     1       2.081   6.634  20.051  0.00  0.00    +0.000 A 
ATOM      5  C   UNL     1       1.588   7.655  20.861  0.00  0.00    +0.000 A 
ATOM      6  C   UNL     1       1.288   8.904  20.309  0.00  0.00    +0.000 A 
ATOM      7  N   UNL     1       2.465   5.424  20.616  0.00  0.00    +0.000 N 
ATOM      8  C   UNL     1       3.168   4.448  19.967  0.00  0.00    +0.000 C 
ATOM      9  O   UNL     1       3.550   3.469  20.605  0.00  0.00    +0.000 OA
ATOM     10  N   UNL     1       3.425   4.651  18.626  0.00  0.00    +0.000 N 
ATOM     11  C   UNL     1       2.672   5.639  17.866  0.00  0.00    +0.000 C 
ATOM     12  H   UNL     1       2.354   5.269  21.609  0.00  0.00    +0.000 HD
ENDROOT
BRANCH   1  14
ATOM     13  C   UNL     1       2.347  11.206  18.203  0.00  0.00    +0.000 C 
ATOM     14  O   UNL     1       1.263  10.286  18.251  0.00  0.00    +0.000 OA
ENDBRANCH   1  14
BRANCH   6  15
ATOM     15  O   UNL     1       0.870   9.951  21.085  0.00  0.00    +0.000 OA
BRANCH  15  16
ATOM     16  S   UNL     1       0.199   9.738  22.549  0.00  0.00    +0.000 S 
ATOM     17  O   UNL     1      -0.902   8.807  22.437  0.00  0.00    +0.000 OA
ATOM     18  O   UNL     1       1.241   9.599  23.537  0.00  0.00    +0.000 OA
BRANCH  16  19
ATOM     19  N   UNL     1      -0.494  11.240  22.840  0.00  0.00    +0.000 NA
ATOM     20  H   UNL     1      -0.143  11.942  22.193  0.00  0.00    +0.000 HD
ATOM     21  H   UNL     1      -0.447  11.484  23.825  0.00  0.00    +0.000 HD
ENDBRANCH  16  19
ENDBRANCH  15  16
ENDBRANCH   6  15
BRANCH  10  22
ATOM     22  C   UNL     1       4.119   3.607  17.878  0.00  0.00    +0.000 C 
BRANCH  22  23
ATOM     23  C   UNL     1       5.225   4.124  16.972  0.00  0.00    +0.000 A 
ATOM     24  C   UNL     1       5.107   3.886  15.588  0.00  0.00    +0.000 A 
ATOM     25  C   UNL     1       6.036   4.392  14.679  0.00  0.00    +0.000 A 
ATOM     26  C   UNL     1       7.109   5.145  15.136  0.00  0.00    +0.000 A 
ATOM     27  C   UNL     1       7.257   5.377  16.502  0.00  0.00    +0.000 A 
ATOM     28  C   UNL     1       6.334   4.867  17.435  0.00  0.00    +0.000 A 
ATOM     29  C   UNL     1       6.561   5.188  18.885  0.00  0.00    +0.000 C 
ENDBRANCH  22  23
ENDBRANCH  10  22
TORSDOF 6
ENDMDL
MODEL 6
REMARK VINA RESULT:      -7.3      3.379      8.230
REMARK  Name = 
REMARK  8 active torsions:
REMARK  status: ('A' for Active; 'I' for Inactive)
REMARK    1  A    between atoms: C_1  and  O_2
REMARK    2  A    between atoms: O_2  and  C_3
REMARK    3  A    between atoms: C_8  and  O_9
REMARK    4  A    between atoms: O_9  and  S_10
REMARK    5  A    between atoms: S_10  and  N_11
REMARK    6  A    between atoms: N_17  and  C_18
REMARK    7  A    between atoms: C_18  and  C_19
REMARK    8  A    between atoms: C_24  and  C_25
REMARK                            x       y       z     vdW  Elec       q    Type
REMARK                         _______ _______ _______ _____ _____    ______ ____
ROOT
ATOM      1  C   UNL     1       1.059  11.397  19.480  0.00  0.00    +0.000 A 
ATOM      2  C   UNL     1       1.440  10.420  18.547  0.00  0.00    +0.000 A 
ATOM      3  C   UNL     1       1.620   9.089  18.947  0.00  0.00    +0.000 A 
ATOM      4  C   UNL     1       1.378   8.744  20.269  0.00  0.00    +0.000 A 
ATOM      5  C   UNL     1       0.932   9.690  21.190  0.00  0.00    +0.000 A 
ATOM      6  C   UNL     1       0.768  11.023  20.803  0.00  0.00    +0.000 A 
ATOM      7  N   UNL     1       1.629   7.441  20.678  0.00  0.00    +0.000 N 
ATOM      8  C   UNL     1       2.280   6.500  19.932  0.00  0.00    +0.000 C 
ATOM      9  O   UNL     1       2.544   5.414  20.444  0.00  0.00    +0.000 OA
ATOM     10  N   UNL     1       2.624   6.855  18.642  0.00  0.00    +0.000 N 
ATOM     11  C   UNL     1       1.998   7.999  17.994  0.00  0.00    +0.000 C 
ATOM     12  H   UNL     1       1.454   7.166  21.636  0.00  0.00    +0.000 HD
ENDROOT
BRANCH   1  14
ATOM     13  C   UNL     1      -0.289  13.017  18.390  0.00  0.00    +0.000 C 
ATOM     14  O   UNL     1       0.968  12.662  18.953  0.00  0.00    +0.000 OA
ENDBRANCH   1  14
BRANCH   6  15
ATOM     15  O   UNL     1       0.399  11.991  21.697  0.00  0.00    +0.000 OA
BRANCH  15  16
ATOM     16  S   UNL     1      -1.075  12.034  22.377  0.00  0.00    +0.000 S 
ATOM     17  O   UNL     1      -2.075  12.143  21.338  0.00  0.00    +0.000 OA
ATOM     18  O   UNL     1      -1.145  11.049  23.428  0.00  0.00    +0.000 OA
BRANCH  16  19
ATOM     19  N   UNL     1      -1.058  13.520  23.159  0.00  0.00    +0.000 NA
ATOM     20  H   UNL     1      -1.148  13.411  24.166  0.00  0.00    +0.000 HD
ATOM     21  H   UNL     1      -1.704  14.174  22.726  0.00  0.00    +0.000 HD
ENDBRANCH  16  19
ENDBRANCH  15  16
ENDBRANCH   6  15
BRANCH  10  22
ATOM     22  C   UNL     1       3.266   5.861  17.787  0.00  0.00    +0.000 C 
BRANCH  22  23
ATOM     23  C   UNL     1       4.784   5.896  17.828  0.00  0.00    +0.000 A 
ATOM     24  C   UNL     1       5.433   6.998  17.233  0.00  0.00    +0.000 A 
ATOM     25  C   UNL     1       6.818   7.148  17.292  0.00  0.00    +0.000 A 
ATOM     26  C   UNL     1       7.588   6.195  17.946  0.00  0.00    +0.000 A 
ATOM     27  C   UNL     1       6.971   5.088  18.524  0.00  0.00    +0.000 A 
ATOM     28  C   UNL     1       5.575   4.915  18.466  0.00  0.00    +0.000 A 
ATOM     29  C   UNL     1       4.996   3.703  19.139  0.00  0.00    +0.000 C 
ENDBRANCH  22  23
ENDBRANCH  10  22
TORSDOF 6
ENDMDL
MODEL 7
REMARK VINA RESULT:      -7.3      3.369      8.186
REMARK  Name = 
REMARK  8 active torsions:
REMARK  status: ('A' for Active; 'I' for Inactive)
REMARK    1  A    between atoms: C_1  and  O_2
REMARK    2  A    between atoms: O_2  and  C_3
REMARK    3  A    between atoms: C_8  and  O_9
REMARK    4  A    between atoms: O_9  and  S_10
REMARK    5  A    between atoms: S_10  and  N_11
REMARK    6  A    between atoms: N_17  and  C_18
REMARK    7  A    between atoms: C_18  and  C_19
REMARK    8  A    between atoms: C_24  and  C_25
REMARK                            x       y       z     vdW  Elec       q    Type
REMARK                         _______ _______ _______ _____ _____    ______ ____
ROOT
ATOM      1  C   UNL     1       1.114  11.216  19.644  0.00  0.00    +0.000 A 
ATOM      2  C   UNL     1       1.551  10.244  18.731  0.00  0.00    +0.000 A 
ATOM      3  C   UNL     1       1.689   8.908  19.130  0.00  0.00    +0.000 A 
ATOM      4  C   UNL     1       1.350   8.553  20.427  0.00  0.00    +0.000 A 
ATOM      5  C   UNL     1       0.848   9.494  21.324  0.00  0.00    +0.000 A 
ATOM      6  C   UNL     1       0.725  10.833  20.939  0.00  0.00    +0.000 A 
ATOM      7  N   UNL     1       1.558   7.243  20.841  0.00  0.00    +0.000 N 
ATOM      8  C   UNL     1       2.251   6.302  20.133  0.00  0.00    +0.000 C 
ATOM      9  O   UNL     1       2.467   5.209  20.652  0.00  0.00    +0.000 OA
ATOM     10  N   UNL     1       2.690   6.666  18.875  0.00  0.00    +0.000 N 
ATOM     11  C   UNL     1       2.123   7.823  18.196  0.00  0.00    +0.000 C 
ATOM     12  H   UNL     1       1.311   6.961  21.780  0.00  0.00    +0.000 HD
ENDROOT
BRANCH   1  14
ATOM     13  C   UNL     1      -0.148  12.872  18.505  0.00  0.00    +0.000 C 
ATOM     14  O   UNL     1       1.073  12.487  19.125  0.00  0.00    +0.000 OA
ENDBRANCH   1  14
BRANCH   6  15
ATOM     15  O   UNL     1       0.302  11.797  21.814  0.00  0.00    +0.000 OA
BRANCH  15  16
ATOM     16  S   UNL     1      -1.227  11.873  22.356  0.00  0.00    +0.000 S 
ATOM     17  O   UNL     1      -2.116  12.108  21.239  0.00  0.00    +0.000 OA
ATOM     18  O   UNL     1      -1.445  10.823  23.320  0.00  0.00    +0.000 OA
BRANCH  16  19
ATOM     19  N   UNL     1      -1.215  13.298  23.244  0.00  0.00    +0.000 NA
ATOM     20  H   UNL     1      -0.427  13.889  22.987  0.00  0.00    +0.000 HD
ATOM     21  H   UNL     1      -1.324  13.115  24.238  0.00  0.00    +0.000 HD
ENDBRANCH  16  19
ENDBRANCH  15  16
ENDBRANCH   6  15
BRANCH  10  22
ATOM     22  C   UNL     1       3.382   5.673  18.058  0.00  0.00    +0.000 C 
BRANCH  22  23
ATOM     23  C   UNL     1       4.895   5.806  18.071  0.00  0.00    +0.000 A 
ATOM     24  C   UNL     1       5.580   5.419  19.241  0.00  0.00    +0.000 A 
ATOM     25  C   UNL     1       6.973   5.437  19.311  0.00  0.00    +0.000 A 
ATOM     26  C   UNL     1       7.714   5.845  18.211  0.00  0.00    +0.000 A 
ATOM     27  C   UNL     1       7.059   6.251  17.050  0.00  0.00    +0.000 A 
ATOM     28  C   UNL     1       5.653   6.249  16.964  0.00  0.00    +0.000 A 
ATOM     29  C   UNL     1       5.035   6.680  15.665  0.00  0.00    +0.000 C 
ENDBRANCH  22  23
ENDBRANCH  10  22
TORSDOF 6
ENDMDL
MODEL 8
REMARK VINA RESULT:      -7.2      3.342      7.959
REMARK  Name = 
REMARK  8 active torsions:
REMARK  status: ('A' for Active; 'I' for Inactive)
REMARK    1  A    between atoms: C_1  and  O_2
REMARK    2  A    between atoms: O_2  and  C_3
REMARK    3  A    between atoms: C_8  and  O_9
REMARK    4  A    between atoms: O_9  and  S_10
REMARK    5  A    between atoms: S_10  and  N_11
REMARK    6  A    between atoms: N_17  and  C_18
REMARK    7  A    between atoms: C_18  and  C_19
REMARK    8  A    between atoms: C_24  and  C_25
REMARK                            x       y       z     vdW  Elec       q    Type
REMARK                         _______ _______ _______ _____ _____    ______ ____
ROOT
ATOM      1  C   UNL     1       1.839   9.751  18.300  0.00  0.00    +0.000 A 
ATOM      2  C   UNL     1       2.507   8.588  17.889  0.00  0.00    +0.000 A 
ATOM      3  C   UNL     1       2.474   7.433  18.683  0.00  0.00    +0.000 A 
ATOM      4  C   UNL     1       1.737   7.445  19.858  0.00  0.00    +0.000 A 
ATOM      5  C   UNL     1       1.010   8.570  20.243  0.00  0.00    +0.000 A 
ATOM      6  C   UNL     1       1.055   9.731  19.466  0.00  0.00    +0.000 A 
ATOM      7  N   UNL     1       1.765   6.324  20.679  0.00  0.00    +0.000 N 
ATOM      8  C   UNL     1       2.615   5.265  20.524  0.00  0.00    +0.000 C 
ATOM      9  O   UNL     1       2.625   4.382  21.379  0.00  0.00    +0.000 OA
ATOM     10  N   UNL     1       3.434   5.279  19.412  0.00  0.00    +0.000 N 
ATOM     11  C   UNL     1       3.143   6.155  18.286  0.00  0.00    +0.000 C 
ATOM     12  H   UNL     1       1.231   6.308  21.537  0.00  0.00    +0.000 HD
ENDROOT
BRANCH   1  14
ATOM     13  C   UNL     1       2.701  11.937  17.967  0.00  0.00    +0.000 C 
ATOM     14  O   UNL     1       2.000  10.815  17.446  0.00  0.00    +0.000 OA
ENDBRANCH   1  14
BRANCH   6  15
ATOM     15  O   UNL     1       0.411  10.877  19.849  0.00  0.00    +0.000 OA
BRANCH  15  16
ATOM     16  S   UNL     1      -1.072  11.266  19.311  0.00  0.00    +0.000 S 
ATOM     17  O   UNL     1      -1.658  10.115  18.662  0.00  0.00    +0.000 OA
ATOM     18  O   UNL     1      -1.761  12.029  20.321  0.00  0.00    +0.000 OA
BRANCH  16  19
ATOM     19  N   UNL     1      -0.724  12.359  18.085  0.00  0.00    +0.000 NA
ATOM     20  H   UNL     1       0.004  12.008  17.468  0.00  0.00    +0.000 HD
ATOM     21  H   UNL     1      -0.578  13.295  18.454  0.00  0.00    +0.000 HD
ENDBRANCH  16  19
ENDBRANCH  15  16
ENDBRANCH   6  15
BRANCH  10  22
ATOM     22  C   UNL     1       4.315   4.140  19.173  0.00  0.00    +0.000 C 
BRANCH  22  23
ATOM     23  C   UNL     1       5.248   4.315  17.987  0.00  0.00    +0.000 A 
ATOM     24  C   UNL     1       4.829   3.810  16.740  0.00  0.00    +0.000 A 
ATOM     25  C   UNL     1       5.590   3.995  15.585  0.00  0.00    +0.000 A 
ATOM     26  C   UNL     1       6.790   4.688  15.653  0.00  0.00    +0.000 A 
ATOM     27  C   UNL     1       7.235   5.180  16.879  0.00  0.00    +0.000 A 
ATOM     28  C   UNL     1       6.485   4.994  18.056  0.00  0.00    +0.000 A 
ATOM     29  C   UNL     1       7.030   5.581  19.327  0.00  0.00    +0.000 C 
ENDBRANCH  22  23
ENDBRANCH  10  22
TORSDOF 6
ENDMDL
MODEL 9
REMARK VINA RESULT:      -7.2      1.548      1.994
REMARK  Name = 
REMARK  8 active torsions:
REMARK  status: ('A' for Active; 'I' for Inactive)
REMARK    1  A    between atoms: C_1  and  O_2
REMARK    2  A    between atoms: O_2  and  C_3
REMARK    3  A    between atoms: C_8  and  O_9
REMARK    4  A    between atoms: O_9  and  S_10
REMARK    5  A    between atoms: S_10  and  N_11
REMARK    6  A    between atoms: N_17  and  C_18
REMARK    7  A    between atoms: C_18  and  C_19
REMARK    8  A    between atoms: C_24  and  C_25
REMARK                            x       y       z     vdW  Elec       q    Type
REMARK                         _______ _______ _______ _____ _____    ______ ____
ROOT
ATOM      1  C   UNL     1       2.747   6.441  18.587  0.00  0.00    +0.000 A 
ATOM      2  C   UNL     1       2.330   7.689  18.100  0.00  0.00    +0.000 A 
ATOM      3  C   UNL     1       1.674   8.596  18.944  0.00  0.00    +0.000 A 
ATOM      4  C   UNL     1       1.479   8.258  20.275  0.00  0.00    +0.000 A 
ATOM      5  C   UNL     1       1.950   7.051  20.789  0.00  0.00    +0.000 A 
ATOM      6  C   UNL     1       2.589   6.134  19.949  0.00  0.00    +0.000 A 
ATOM      7  N   UNL     1       0.764   9.126  21.090  0.00  0.00    +0.000 N 
ATOM      8  C   UNL     1       0.063  10.212  20.647  0.00  0.00    +0.000 C 
ATOM      9  O   UNL     1      -0.625  10.842  21.448  0.00  0.00    +0.000 OA
ATOM     10  N   UNL     1       0.159  10.511  19.302  0.00  0.00    +0.000 N 
ATOM     11  C   UNL     1       1.231   9.952  18.492  0.00  0.00    +0.000 C 
ATOM     12  H   UNL     1       0.615   8.903  22.065  0.00  0.00    +0.000 HD
ENDROOT
BRANCH   1  14
ATOM     13  C   UNL     1       4.648   6.003  17.235  0.00  0.00    +0.000 C 
ATOM     14  O   UNL     1       3.332   5.642  17.635  0.00  0.00    +0.000 OA
ENDBRANCH   1  14
BRANCH   6  15
ATOM     15  O   UNL     1       3.002   4.910  20.402  0.00  0.00    +0.000 OA
BRANCH  15  16
ATOM     16  S   UNL     1       2.035   3.604  20.390  0.00  0.00    +0.000 S 
ATOM     17  O   UNL     1       2.386   2.743  21.497  0.00  0.00    +0.000 OA
ATOM     18  O   UNL     1       0.680   4.016  20.118  0.00  0.00    +0.000 OA
BRANCH  16  19
ATOM     19  N   UNL     1       2.545   2.804  19.004  0.00  0.00    +0.000 NA
ATOM     20  H   UNL     1       3.484   3.089  18.734  0.00  0.00    +0.000 HD
ATOM     21  H   UNL     1       1.842   2.849  18.271  0.00  0.00    +0.000 HD
ENDBRANCH  16  19
ENDBRANCH  15  16
ENDBRANCH   6  15
BRANCH  10  22
ATOM     22  C   UNL     1      -0.524  11.698  18.796  0.00  0.00    +0.000 C 
BRANCH  22  23
ATOM     23  C   UNL     1      -1.926  11.432  18.276  0.00  0.00    +0.000 A 
ATOM     24  C   UNL     1      -2.064  10.596  17.150  0.00  0.00    +0.000 A 
ATOM     25  C   UNL     1      -3.318  10.239  16.655  0.00  0.00    +0.000 A 
ATOM     26  C   UNL     1      -4.465  10.714  17.275  0.00  0.00    +0.000 A 
ATOM     27  C   UNL     1      -4.355  11.559  18.378  0.00  0.00    +0.000 A 
ATOM     28  C   UNL     1      -3.097  11.937  18.886  0.00  0.00    +0.000 A 
ATOM     29  C   UNL     1      -3.075  12.831  20.093  0.00  0.00    +0.000 C 
ENDBRANCH  22  23
ENDBRANCH  10  22
TORSDOF 6
ENDMDL
