MODEL 1
REMARK VINA RESULT:      -8.9      0.000      0.000
REMARK  Name = 
REMARK  5 active torsions:
REMARK  status: ('A' for Active; 'I' for Inactive)
REMARK    1  A    between atoms: C_1  and  C_2
REMARK    2  A    between atoms: C_5  and  O_6
REMARK    3  A    between atoms: O_6  and  C_7
REMARK    4  A    between atoms: C_10  and  C_11
REMARK    5  A    between atoms: C_23  and  C_24
REMARK                            x       y       z     vdW  Elec       q    Type
REMARK                         _______ _______ _______ _____ _____    ______ ____
ROOT
ATOM      1  C   UNL     1      -0.077   9.596  23.764  0.00  0.00    +0.000 C 
ATOM      2  C   UNL     1       0.290   9.313  22.363  0.00  0.00    +0.000 A 
ATOM      3  C   UNL     1       0.122  10.011  21.191  0.00  0.00    +0.000 A 
ATOM      4  C   UNL     1       0.831   9.300  20.182  0.00  0.00    +0.000 A 
ATOM      5  C   UNL     1       1.151   9.499  18.823  0.00  0.00    +0.000 A 
ATOM      6  C   UNL     1       1.855   8.483  18.147  0.00  0.00    +0.000 A 
ATOM      7  C   UNL     1       2.291   7.319  18.812  0.00  0.00    +0.000 A 
ATOM      8  C   UNL     1       2.022   7.137  20.174  0.00  0.00    +0.000 A 
ATOM      9  C   UNL     1       1.298   8.149  20.806  0.00  0.00    +0.000 A 
ATOM     10  O   UNL     1       0.969   8.157  22.129  0.00  0.00    +0.000 OA
ENDROOT
BRANCH   7  11
ATOM     11  C   UNL     1       3.102   6.315  18.041  0.00  0.00    +0.000 C 
ATOM     12  O   UNL     1       2.586   5.246  17.730  0.00  0.00    +0.000 OA
ATOM     13  N   UNL     1       4.418   6.646  17.784  0.00  0.00    +0.000 N 
ATOM     14  C   UNL     1       5.314   5.802  17.114  0.00  0.00    +0.000 A 
ATOM     15  C   UNL     1       4.956   4.973  16.050  0.00  0.00    +0.000 A 
ATOM     16  N   UNL     1       5.836   4.137  15.436  0.00  0.00    +0.000 NA
ATOM     17  C   UNL     1       7.082   4.137  15.954  0.00  0.00    +0.000 A 
ATOM     18  C   UNL     1       7.445   4.970  16.999  0.00  0.00    +0.000 A 
ATOM     19  N   UNL     1       6.585   5.847  17.572  0.00  0.00    +0.000 NA
ATOM     20  H   UNL     1       4.886   7.312  18.382  0.00  0.00    +0.000 HD
ENDBRANCH   7  11
BRANCH   5  21
ATOM     21  O   UNL     1       0.749  10.602  18.070  0.00  0.00    +0.000 OA
BRANCH  21  22
ATOM     22  C   UNL     1      -0.612  10.816  17.897  0.00  0.00    +0.000 A 
ATOM     23  C   UNL     1      -1.163  11.994  18.398  0.00  0.00    +0.000 A 
ATOM     24  N   UNL     1      -2.487  12.312  18.290  0.00  0.00    +0.000 NA
ATOM     25  C   UNL     1      -3.248  11.390  17.643  0.00  0.00    +0.000 A 
ATOM     26  C   UNL     1      -2.695  10.216  17.135  0.00  0.00    +0.000 A 
ATOM     27  N   UNL     1      -1.381   9.895  17.272  0.00  0.00    +0.000 NA
BRANCH  25  28
ATOM     28  C   UNL     1      -4.713  11.607  17.457  0.00  0.00    +0.000 C 
ATOM     29  O   UNL     1      -5.171  11.602  16.309  0.00  0.00    +0.000 OA
ATOM     30  N   UNL     1      -5.533  11.793  18.548  0.00  0.00    +0.000 N 
ATOM     31  C   UNL     1      -6.998  11.664  18.555  0.00  0.00    +0.000 C 
ATOM     32  C   UNL     1      -6.816  11.045  19.898  0.00  0.00    +0.000 C 
ATOM     33  C   UNL     1      -7.764  11.335  21.012  0.00  0.00    +0.000 C 
ATOM     34  O   UNL     1      -7.764   9.918  21.376  0.00  0.00    +0.000 OA
ATOM     35  C   UNL     1      -7.121   9.595  20.104  0.00  0.00    +0.000 C 
ATOM     36  C   UNL     1      -5.386  11.488  19.971  0.00  0.00    +0.000 C 
ENDBRANCH  25  28
ENDBRANCH  21  22
ENDBRANCH   5  21
TORSDOF 4
ENDMDL
MODEL 2
REMARK VINA RESULT:      -8.9      4.146      9.690
REMARK  Name = 
REMARK  5 active torsions:
REMARK  status: ('A' for Active; 'I' for Inactive)
REMARK    1  A    between atoms: C_1  and  C_2
REMARK    2  A    between atoms: C_5  and  O_6
REMARK    3  A    between atoms: O_6  and  C_7
REMARK    4  A    between atoms: C_10  and  C_11
REMARK    5  A    between atoms: C_23  and  C_24
REMARK                            x       y       z     vdW  Elec       q    Type
REMARK                         _______ _______ _______ _____ _____    ______ ____
ROOT
ATOM      1  C   UNL     1      -3.537  10.294  17.097  0.00  0.00    +0.000 C 
ATOM      2  C   UNL     1      -2.371  10.785  17.856  0.00  0.00    +0.000 A 
ATOM      3  C   UNL     1      -1.546  10.201  18.787  0.00  0.00    +0.000 A 
ATOM      4  C   UNL     1      -0.494  11.126  19.043  0.00  0.00    +0.000 A 
ATOM      5  C   UNL     1       0.704  11.132  19.787  0.00  0.00    +0.000 A 
ATOM      6  C   UNL     1       1.464  12.318  19.820  0.00  0.00    +0.000 A 
ATOM      7  C   UNL     1       1.084  13.458  19.083  0.00  0.00    +0.000 A 
ATOM      8  C   UNL     1      -0.077  13.443  18.299  0.00  0.00    +0.000 A 
ATOM      9  C   UNL     1      -0.821  12.262  18.313  0.00  0.00    +0.000 A 
ATOM     10  O   UNL     1      -1.961  12.056  17.594  0.00  0.00    +0.000 OA
ENDROOT
BRANCH   7  11
ATOM     11  C   UNL     1       1.987  14.660  19.107  0.00  0.00    +0.000 C 
ATOM     12  O   UNL     1       1.675  15.651  18.454  0.00  0.00    +0.000 OA
ATOM     13  N   UNL     1       3.159  14.542  19.827  0.00  0.00    +0.000 N 
ATOM     14  C   UNL     1       4.122  15.557  19.914  0.00  0.00    +0.000 A 
ATOM     15  C   UNL     1       3.817  16.916  19.977  0.00  0.00    +0.000 A 
ATOM     16  N   UNL     1       4.770  17.886  20.028  0.00  0.00    +0.000 NA
ATOM     17  C   UNL     1       6.042  17.441  19.975  0.00  0.00    +0.000 A 
ATOM     18  C   UNL     1       6.349  16.091  19.928  0.00  0.00    +0.000 A 
ATOM     19  N   UNL     1       5.401  15.122  19.939  0.00  0.00    +0.000 NA
ATOM     20  H   UNL     1       3.546  13.625  19.995  0.00  0.00    +0.000 HD
ENDBRANCH   7  11
BRANCH   5  21
ATOM     21  O   UNL     1       1.156  10.067  20.566  0.00  0.00    +0.000 OA
BRANCH  21  22
ATOM     22  C   UNL     1       1.546   8.902  19.920  0.00  0.00    +0.000 A 
ATOM     23  C   UNL     1       1.600   7.723  20.661  0.00  0.00    +0.000 A 
ATOM     24  N   UNL     1       1.971   6.518  20.135  0.00  0.00    +0.000 NA
ATOM     25  C   UNL     1       2.285   6.542  18.812  0.00  0.00    +0.000 A 
ATOM     26  C   UNL     1       2.223   7.719  18.070  0.00  0.00    +0.000 A 
ATOM     27  N   UNL     1       1.879   8.919  18.608  0.00  0.00    +0.000 NA
BRANCH  25  28
ATOM     28  C   UNL     1       2.712   5.296  18.109  0.00  0.00    +0.000 C 
ATOM     29  O   UNL     1       1.842   4.546  17.653  0.00  0.00    +0.000 OA
ATOM     30  N   UNL     1       4.050   5.004  17.962  0.00  0.00    +0.000 N 
ATOM     31  C   UNL     1       4.619   4.036  17.013  0.00  0.00    +0.000 C 
ATOM     32  C   UNL     1       5.716   5.030  16.842  0.00  0.00    +0.000 C 
ATOM     33  C   UNL     1       7.135   4.592  16.708  0.00  0.00    +0.000 C 
ATOM     34  O   UNL     1       7.330   5.567  15.634  0.00  0.00    +0.000 OA
ATOM     35  C   UNL     1       5.883   5.748  15.541  0.00  0.00    +0.000 C 
ATOM     36  C   UNL     1       5.263   5.817  18.035  0.00  0.00    +0.000 C 
ENDBRANCH  25  28
ENDBRANCH  21  22
ENDBRANCH   5  21
TORSDOF 4
ENDMDL
MODEL 3
REMARK VINA RESULT:      -8.5      2.732      4.266
REMARK  Name = 
REMARK  5 active torsions:
REMARK  status: ('A' for Active; 'I' for Inactive)
REMARK    1  A    between atoms: C_1  and  C_2
REMARK    2  A    between atoms: C_5  and  O_6
REMARK    3  A    between atoms: O_6  and  C_7
REMARK    4  A    between atoms: C_10  and  C_11
REMARK    5  A    between atoms: C_23  and  C_24
REMARK                            x       y       z     vdW  Elec       q    Type
REMARK                         _______ _______ _______ _____ _____    ______ ____
ROOT
ATOM      1  C   UNL     1       1.206   2.520  21.551  0.00  0.00    +0.000 C 
ATOM      2  C   UNL     1       1.748   3.580  20.680  0.00  0.00    +0.000 A 
ATOM      3  C   UNL     1       1.775   4.951  20.779  0.00  0.00    +0.000 A 
ATOM      4  C   UNL     1       2.581   5.425  19.706  0.00  0.00    +0.000 A 
ATOM      5  C   UNL     1       3.092   6.671  19.284  0.00  0.00    +0.000 A 
ATOM      6  C   UNL     1       3.834   6.716  18.086  0.00  0.00    +0.000 A 
ATOM      7  C   UNL     1       4.119   5.549  17.350  0.00  0.00    +0.000 A 
ATOM      8  C   UNL     1       3.659   4.302  17.790  0.00  0.00    +0.000 A 
ATOM      9  C   UNL     1       2.904   4.296  18.963  0.00  0.00    +0.000 A 
ATOM     10  O   UNL     1       2.397   3.176  19.554  0.00  0.00    +0.000 OA
ENDROOT
BRANCH   7  11
ATOM     11  C   UNL     1       4.981   5.668  16.124  0.00  0.00    +0.000 C 
ATOM     12  O   UNL     1       5.306   6.785  15.731  0.00  0.00    +0.000 OA
ATOM     13  N   UNL     1       5.304   4.494  15.474  0.00  0.00    +0.000 N 
ATOM     14  C   UNL     1       6.063   4.441  14.297  0.00  0.00    +0.000 A 
ATOM     15  C   UNL     1       7.138   5.288  14.025  0.00  0.00    +0.000 A 
ATOM     16  N   UNL     1       7.840   5.240  12.861  0.00  0.00    +0.000 NA
ATOM     17  C   UNL     1       7.400   4.333  11.964  0.00  0.00    +0.000 A 
ATOM     18  C   UNL     1       6.344   3.480  12.237  0.00  0.00    +0.000 A 
ATOM     19  N   UNL     1       5.682   3.486  13.420  0.00  0.00    +0.000 NA
ATOM     20  H   UNL     1       4.707   3.686  15.587  0.00  0.00    +0.000 HD
ENDBRANCH   7  11
BRANCH   5  21
ATOM     21  O   UNL     1       2.849   7.884  19.926  0.00  0.00    +0.000 OA
BRANCH  21  22
ATOM     22  C   UNL     1       1.691   8.577  19.600  0.00  0.00    +0.000 A 
ATOM     23  C   UNL     1       0.741   8.780  20.599  0.00  0.00    +0.000 A 
ATOM     24  N   UNL     1      -0.435   9.445  20.397  0.00  0.00    +0.000 NA
ATOM     25  C   UNL     1      -0.620   9.911  19.133  0.00  0.00    +0.000 A 
ATOM     26  C   UNL     1       0.333   9.715  18.137  0.00  0.00    +0.000 A 
ATOM     27  N   UNL     1       1.489   9.028  18.341  0.00  0.00    +0.000 NA
BRANCH  25  28
ATOM     28  C   UNL     1      -1.865  10.653  18.770  0.00  0.00    +0.000 C 
ATOM     29  O   UNL     1      -2.676  10.112  18.012  0.00  0.00    +0.000 OA
ATOM     30  N   UNL     1      -2.102  11.908  19.286  0.00  0.00    +0.000 N 
ATOM     31  C   UNL     1      -3.401  12.595  19.312  0.00  0.00    +0.000 C 
ATOM     32  C   UNL     1      -2.983  13.079  20.658  0.00  0.00    +0.000 C 
ATOM     33  C   UNL     1      -3.284  14.470  21.102  0.00  0.00    +0.000 C 
ATOM     34  O   UNL     1      -3.668  13.963  22.419  0.00  0.00    +0.000 OA
ATOM     35  C   UNL     1      -3.698  12.603  21.883  0.00  0.00    +0.000 C 
ATOM     36  C   UNL     1      -1.569  12.630  20.441  0.00  0.00    +0.000 C 
ENDBRANCH  25  28
ENDBRANCH  21  22
ENDBRANCH   5  21
TORSDOF 4
ENDMDL
MODEL 4
REMARK VINA RESULT:      -8.4      3.287     10.443
REMARK  Name = 
REMARK  5 active torsions:
REMARK  status: ('A' for Active; 'I' for Inactive)
REMARK    1  A    between atoms: C_1  and  C_2
REMARK    2  A    between atoms: C_5  and  O_6
REMARK    3  A    between atoms: O_6  and  C_7
REMARK    4  A    between atoms: C_10  and  C_11
REMARK    5  A    between atoms: C_23  and  C_24
REMARK                            x       y       z     vdW  Elec       q    Type
REMARK                         _______ _______ _______ _____ _____    ______ ____
ROOT
ATOM      1  C   UNL     1      -3.509   9.693  15.022  0.00  0.00    +0.000 C 
ATOM      2  C   UNL     1      -2.851  10.162  16.257  0.00  0.00    +0.000 A 
ATOM      3  C   UNL     1      -1.542  10.174  16.675  0.00  0.00    +0.000 A 
ATOM      4  C   UNL     1      -1.506  10.903  17.897  0.00  0.00    +0.000 A 
ATOM      5  C   UNL     1      -0.511  11.367  18.782  0.00  0.00    +0.000 A 
ATOM      6  C   UNL     1      -0.919  12.031  19.957  0.00  0.00    +0.000 A 
ATOM      7  C   UNL     1      -2.278  12.288  20.224  0.00  0.00    +0.000 A 
ATOM      8  C   UNL     1      -3.269  11.877  19.325  0.00  0.00    +0.000 A 
ATOM      9  C   UNL     1      -2.833  11.197  18.187  0.00  0.00    +0.000 A 
ATOM     10  O   UNL     1      -3.649  10.746  17.192  0.00  0.00    +0.000 OA
ENDROOT
BRANCH   7  11
ATOM     11  C   UNL     1      -2.629  13.069  21.460  0.00  0.00    +0.000 C 
ATOM     12  O   UNL     1      -3.778  13.478  21.599  0.00  0.00    +0.000 OA
ATOM     13  N   UNL     1      -1.600  13.331  22.343  0.00  0.00    +0.000 N 
ATOM     14  C   UNL     1      -1.757  14.080  23.517  0.00  0.00    +0.000 A 
ATOM     15  C   UNL     1      -2.895  14.036  24.323  0.00  0.00    +0.000 A 
ATOM     16  N   UNL     1      -3.038  14.797  25.441  0.00  0.00    +0.000 NA
ATOM     17  C   UNL     1      -2.010  15.630  25.702  0.00  0.00    +0.000 A 
ATOM     18  C   UNL     1      -0.872  15.665  24.914  0.00  0.00    +0.000 A 
ATOM     19  N   UNL     1      -0.703  14.864  23.833  0.00  0.00    +0.000 NA
ATOM     20  H   UNL     1      -0.648  13.333  22.005  0.00  0.00    +0.000 HD
ENDBRANCH   7  11
BRANCH   5  21
ATOM     21  O   UNL     1       0.856  11.145  18.620  0.00  0.00    +0.000 OA
BRANCH  21  22
ATOM     22  C   UNL     1       1.325   9.842  18.724  0.00  0.00    +0.000 A 
ATOM     23  C   UNL     1       1.304   9.232  19.977  0.00  0.00    +0.000 A 
ATOM     24  N   UNL     1       1.740   7.957  20.202  0.00  0.00    +0.000 NA
ATOM     25  C   UNL     1       2.200   7.305  19.100  0.00  0.00    +0.000 A 
ATOM     26  C   UNL     1       2.213   7.913  17.847  0.00  0.00    +0.000 A 
ATOM     27  N   UNL     1       1.803   9.192  17.638  0.00  0.00    +0.000 NA
BRANCH  25  28
ATOM     28  C   UNL     1       2.712   5.906  19.202  0.00  0.00    +0.000 C 
ATOM     29  O   UNL     1       1.929   5.013  19.542  0.00  0.00    +0.000 OA
ATOM     30  N   UNL     1       4.027   5.624  18.906  0.00  0.00    +0.000 N 
ATOM     31  C   UNL     1       4.576   4.291  18.618  0.00  0.00    +0.000 C 
ATOM     32  C   UNL     1       5.410   4.986  17.598  0.00  0.00    +0.000 C 
ATOM     33  C   UNL     1       6.834   4.601  17.378  0.00  0.00    +0.000 C 
ATOM     34  O   UNL     1       6.630   4.690  15.931  0.00  0.00    +0.000 OA
ATOM     35  C   UNL     1       5.184   4.732  16.142  0.00  0.00    +0.000 C 
ATOM     36  C   UNL     1       5.056   6.336  18.148  0.00  0.00    +0.000 C 
ENDBRANCH  25  28
ENDBRANCH  21  22
ENDBRANCH   5  21
TORSDOF 4
ENDMDL
MODEL 5
REMARK VINA RESULT:      -8.4      3.006     10.663
REMARK  Name = 
REMARK  5 active torsions:
REMARK  status: ('A' for Active; 'I' for Inactive)
REMARK    1  A    between atoms: C_1  and  C_2
REMARK    2  A    between atoms: C_5  and  O_6
REMARK    3  A    between atoms: O_6  and  C_7
REMARK    4  A    between atoms: C_10  and  C_11
REMARK    5  A    between atoms: C_23  and  C_24
REMARK                            x       y       z     vdW  Elec       q    Type
REMARK                         _______ _______ _______ _____ _____    ______ ____
ROOT
ATOM      1  C   UNL     1       4.122  14.637  19.385  0.00  0.00    +0.000 C 
ATOM      2  C   UNL     1       2.854  13.888  19.478  0.00  0.00    +0.000 A 
ATOM      3  C   UNL     1       2.355  12.803  18.797  0.00  0.00    +0.000 A 
ATOM      4  C   UNL     1       1.142  12.433  19.444  0.00  0.00    +0.000 A 
ATOM      5  C   UNL     1       0.203  11.387  19.334  0.00  0.00    +0.000 A 
ATOM      6  C   UNL     1      -0.936  11.422  20.164  0.00  0.00    +0.000 A 
ATOM      7  C   UNL     1      -1.115  12.434  21.129  0.00  0.00    +0.000 A 
ATOM      8  C   UNL     1      -0.160  13.447  21.280  0.00  0.00    +0.000 A 
ATOM      9  C   UNL     1       0.940  13.399  20.422  0.00  0.00    +0.000 A 
ATOM     10  O   UNL     1       1.978  14.283  20.442  0.00  0.00    +0.000 OA
ENDROOT
BRANCH   7  11
ATOM     11  C   UNL     1      -2.316  12.360  22.029  0.00  0.00    +0.000 C 
ATOM     12  O   UNL     1      -2.185  11.896  23.158  0.00  0.00    +0.000 OA
ATOM     13  N   UNL     1      -3.521  12.770  21.494  0.00  0.00    +0.000 N 
ATOM     14  C   UNL     1      -4.736  12.725  22.190  0.00  0.00    +0.000 A 
ATOM     15  C   UNL     1      -4.862  12.988  23.554  0.00  0.00    +0.000 A 
ATOM     16  N   UNL     1      -6.047  12.905  24.217  0.00  0.00    +0.000 NA
ATOM     17  C   UNL     1      -7.096  12.514  23.465  0.00  0.00    +0.000 A 
ATOM     18  C   UNL     1      -6.978  12.267  22.107  0.00  0.00    +0.000 A 
ATOM     19  N   UNL     1      -5.810  12.408  21.434  0.00  0.00    +0.000 NA
ATOM     20  H   UNL     1      -3.647  12.754  20.492  0.00  0.00    +0.000 HD
ENDBRANCH   7  11
BRANCH   5  21
ATOM     21  O   UNL     1       0.276  10.354  18.400  0.00  0.00    +0.000 OA
BRANCH  21  22
ATOM     22  C   UNL     1       1.058   9.249  18.706  0.00  0.00    +0.000 A 
ATOM     23  C   UNL     1       1.808   8.669  17.684  0.00  0.00    +0.000 A 
ATOM     24  N   UNL     1       2.612   7.579  17.864  0.00  0.00    +0.000 NA
ATOM     25  C   UNL     1       2.640   7.090  19.133  0.00  0.00    +0.000 A 
ATOM     26  C   UNL     1       1.898   7.676  20.155  0.00  0.00    +0.000 A 
ATOM     27  N   UNL     1       1.078   8.743  19.961  0.00  0.00    +0.000 NA
BRANCH  25  28
ATOM     28  C   UNL     1       3.474   5.899  19.471  0.00  0.00    +0.000 C 
ATOM     29  O   UNL     1       3.050   5.099  20.312  0.00  0.00    +0.000 OA
ATOM     30  N   UNL     1       4.682   5.694  18.842  0.00  0.00    +0.000 N 
ATOM     31  C   UNL     1       5.426   4.427  18.802  0.00  0.00    +0.000 C 
ATOM     32  C   UNL     1       5.755   4.804  17.398  0.00  0.00    +0.000 C 
ATOM     33  C   UNL     1       7.109   4.545  16.830  0.00  0.00    +0.000 C 
ATOM     34  O   UNL     1       6.494   4.078  15.587  0.00  0.00    +0.000 OA
ATOM     35  C   UNL     1       5.197   4.012  16.258  0.00  0.00    +0.000 C 
ATOM     36  C   UNL     1       5.260   6.205  17.599  0.00  0.00    +0.000 C 
ENDBRANCH  25  28
ENDBRANCH  21  22
ENDBRANCH   5  21
TORSDOF 4
ENDMDL
MODEL 6
REMARK VINA RESULT:      -8.4      4.114      9.813
REMARK  Name = 
REMARK  5 active torsions:
REMARK  status: ('A' for Active; 'I' for Inactive)
REMARK    1  A    between atoms: C_1  and  C_2
REMARK    2  A    between atoms: C_5  and  O_6
REMARK    3  A    between atoms: O_6  and  C_7
REMARK    4  A    between atoms: C_10  and  C_11
REMARK    5  A    between atoms: C_23  and  C_24
REMARK                            x       y       z     vdW  Elec       q    Type
REMARK                         _______ _______ _______ _____ _____    ______ ____
ROOT
ATOM      1  C   UNL     1      -3.520  10.525  17.016  0.00  0.00    +0.000 C 
ATOM      2  C   UNL     1      -2.337  10.918  17.807  0.00  0.00    +0.000 A 
ATOM      3  C   UNL     1      -1.605  10.277  18.778  0.00  0.00    +0.000 A 
ATOM      4  C   UNL     1      -0.477  11.101  19.053  0.00  0.00    +0.000 A 
ATOM      5  C   UNL     1       0.690  11.007  19.840  0.00  0.00    +0.000 A 
ATOM      6  C   UNL     1       1.561  12.115  19.877  0.00  0.00    +0.000 A 
ATOM      7  C   UNL     1       1.320  13.269  19.105  0.00  0.00    +0.000 A 
ATOM      8  C   UNL     1       0.190  13.349  18.281  0.00  0.00    +0.000 A 
ATOM      9  C   UNL     1      -0.666  12.248  18.291  0.00  0.00    +0.000 A 
ATOM     10  O   UNL     1      -1.796  12.136  17.535  0.00  0.00    +0.000 OA
ENDROOT
BRANCH   7  11
ATOM     11  C   UNL     1       2.334  14.378  19.139  0.00  0.00    +0.000 C 
ATOM     12  O   UNL     1       2.866  14.730  18.090  0.00  0.00    +0.000 OA
ATOM     13  N   UNL     1       2.651  14.894  20.380  0.00  0.00    +0.000 N 
ATOM     14  C   UNL     1       3.605  15.900  20.583  0.00  0.00    +0.000 A 
ATOM     15  C   UNL     1       3.808  16.967  19.708  0.00  0.00    +0.000 A 
ATOM     16  N   UNL     1       4.764  17.915  19.908  0.00  0.00    +0.000 NA
ATOM     17  C   UNL     1       5.531  17.731  21.002  0.00  0.00    +0.000 A 
ATOM     18  C   UNL     1       5.322  16.682  21.881  0.00  0.00    +0.000 A 
ATOM     19  N   UNL     1       4.331  15.772  21.715  0.00  0.00    +0.000 NA
ATOM     20  H   UNL     1       2.505  14.326  21.202  0.00  0.00    +0.000 HD
ENDBRANCH   7  11
BRANCH   5  21
ATOM     21  O   UNL     1       1.009   9.922  20.654  0.00  0.00    +0.000 OA
BRANCH  21  22
ATOM     22  C   UNL     1       1.441   8.751  20.045  0.00  0.00    +0.000 A 
ATOM     23  C   UNL     1       1.755   8.791  18.688  0.00  0.00    +0.000 A 
ATOM     24  N   UNL     1       2.187   7.705  17.982  0.00  0.00    +0.000 NA
ATOM     25  C   UNL     1       2.300   6.558  18.705  0.00  0.00    +0.000 A 
ATOM     26  C   UNL     1       1.994   6.521  20.063  0.00  0.00    +0.000 A 
ATOM     27  N   UNL     1       1.538   7.601  20.751  0.00  0.00    +0.000 NA
BRANCH  25  28
ATOM     28  C   UNL     1       2.758   5.293  18.058  0.00  0.00    +0.000 C 
ATOM     29  O   UNL     1       1.907   4.508  17.625  0.00  0.00    +0.000 OA
ATOM     30  N   UNL     1       4.103   5.020  17.937  0.00  0.00    +0.000 N 
ATOM     31  C   UNL     1       4.700   4.024  17.036  0.00  0.00    +0.000 C 
ATOM     32  C   UNL     1       5.780   5.031  16.835  0.00  0.00    +0.000 C 
ATOM     33  C   UNL     1       7.208   4.615  16.734  0.00  0.00    +0.000 C 
ATOM     34  O   UNL     1       7.398   5.548  15.623  0.00  0.00    +0.000 OA
ATOM     35  C   UNL     1       5.948   5.697  15.507  0.00  0.00    +0.000 C 
ATOM     36  C   UNL     1       5.300   5.858  17.990  0.00  0.00    +0.000 C 
ENDBRANCH  25  28
ENDBRANCH  21  22
ENDBRANCH   5  21
TORSDOF 4
ENDMDL
MODEL 7
REMARK VINA RESULT:      -8.4      3.374     10.869
REMARK  Name = 
REMARK  5 active torsions:
REMARK  status: ('A' for Active; 'I' for Inactive)
REMARK    1  A    between atoms: C_1  and  C_2
REMARK    2  A    between atoms: C_5  and  O_6
REMARK    3  A    between atoms: O_6  and  C_7
REMARK    4  A    between atoms: C_10  and  C_11
REMARK    5  A    between atoms: C_23  and  C_24
REMARK                            x       y       z     vdW  Elec       q    Type
REMARK                         _______ _______ _______ _____ _____    ______ ____
ROOT
ATOM      1  C   UNL     1      -3.139   9.719  15.622  0.00  0.00    +0.000 C 
ATOM      2  C   UNL     1      -2.443  10.188  16.836  0.00  0.00    +0.000 A 
ATOM      3  C   UNL     1      -1.128  10.153  17.235  0.00  0.00    +0.000 A 
ATOM      4  C   UNL     1      -1.042  10.909  18.438  0.00  0.00    +0.000 A 
ATOM      5  C   UNL     1      -0.014  11.351  19.297  0.00  0.00    +0.000 A 
ATOM      6  C   UNL     1      -0.375  12.059  20.461  0.00  0.00    +0.000 A 
ATOM      7  C   UNL     1      -1.718  12.381  20.742  0.00  0.00    +0.000 A 
ATOM      8  C   UNL     1      -2.740  11.992  19.867  0.00  0.00    +0.000 A 
ATOM      9  C   UNL     1      -2.351  11.266  18.739  0.00  0.00    +0.000 A 
ATOM     10  O   UNL     1      -3.201  10.828  17.768  0.00  0.00    +0.000 OA
ENDROOT
BRANCH   7  11
ATOM     11  C   UNL     1      -2.017  13.205  21.963  0.00  0.00    +0.000 C 
ATOM     12  O   UNL     1      -1.448  12.935  23.016  0.00  0.00    +0.000 OA
ATOM     13  N   UNL     1      -2.974  14.191  21.829  0.00  0.00    +0.000 N 
ATOM     14  C   UNL     1      -3.392  15.016  22.882  0.00  0.00    +0.000 A 
ATOM     15  C   UNL     1      -2.543  15.498  23.878  0.00  0.00    +0.000 A 
ATOM     16  N   UNL     1      -2.978  16.270  24.910  0.00  0.00    +0.000 NA
ATOM     17  C   UNL     1      -4.305  16.510  24.925  0.00  0.00    +0.000 A 
ATOM     18  C   UNL     1      -5.149  16.046  23.930  0.00  0.00    +0.000 A 
ATOM     19  N   UNL     1      -4.707  15.328  22.869  0.00  0.00    +0.000 NA
ATOM     20  H   UNL     1      -3.670  14.108  21.101  0.00  0.00    +0.000 HD
ENDBRANCH   7  11
BRANCH   5  21
ATOM     21  O   UNL     1       1.339  11.067  19.121  0.00  0.00    +0.000 OA
BRANCH  21  22
ATOM     22  C   UNL     1       1.704   9.753  18.858  0.00  0.00    +0.000 A 
ATOM     23  C   UNL     1       1.595   8.820  19.889  0.00  0.00    +0.000 A 
ATOM     24  N   UNL     1       1.925   7.502  19.750  0.00  0.00    +0.000 NA
ATOM     25  C   UNL     1       2.370   7.149  18.515  0.00  0.00    +0.000 A 
ATOM     26  C   UNL     1       2.471   8.079  17.483  0.00  0.00    +0.000 A 
ATOM     27  N   UNL     1       2.166   9.395  17.638  0.00  0.00    +0.000 NA
BRANCH  25  28
ATOM     28  C   UNL     1       2.771   5.740  18.224  0.00  0.00    +0.000 C 
ATOM     29  O   UNL     1       1.885   4.901  18.032  0.00  0.00    +0.000 OA
ATOM     30  N   UNL     1       4.103   5.395  18.157  0.00  0.00    +0.000 N 
ATOM     31  C   UNL     1       4.645   4.173  17.546  0.00  0.00    +0.000 C 
ATOM     32  C   UNL     1       5.750   5.048  17.064  0.00  0.00    +0.000 C 
ATOM     33  C   UNL     1       7.161   4.568  17.053  0.00  0.00    +0.000 C 
ATOM     34  O   UNL     1       7.350   5.161  15.729  0.00  0.00    +0.000 OA
ATOM     35  C   UNL     1       5.903   5.328  15.603  0.00  0.00    +0.000 C 
ATOM     36  C   UNL     1       5.327   6.172  17.962  0.00  0.00    +0.000 C 
ENDBRANCH  25  28
ENDBRANCH  21  22
ENDBRANCH   5  21
TORSDOF 4
ENDMDL
MODEL 8
REMARK VINA RESULT:      -8.3      2.709     10.878
REMARK  Name = 
REMARK  5 active torsions:
REMARK  status: ('A' for Active; 'I' for Inactive)
REMARK    1  A    between atoms: C_1  and  C_2
REMARK    2  A    between atoms: C_5  and  O_6
REMARK    3  A    between atoms: O_6  and  C_7
REMARK    4  A    between atoms: C_10  and  C_11
REMARK    5  A    between atoms: C_23  and  C_24
REMARK                            x       y       z     vdW  Elec       q    Type
REMARK                         _______ _______ _______ _____ _____    ______ ____
ROOT
ATOM      1  C   UNL     1      -3.037   9.519  14.624  0.00  0.00    +0.000 C 
ATOM      2  C   UNL     1      -2.740  10.057  15.965  0.00  0.00    +0.000 A 
ATOM      3  C   UNL     1      -1.578  10.178  16.690  0.00  0.00    +0.000 A 
ATOM      4  C   UNL     1      -1.897  10.927  17.857  0.00  0.00    +0.000 A 
ATOM      5  C   UNL     1      -1.187  11.482  18.943  0.00  0.00    +0.000 A 
ATOM      6  C   UNL     1      -1.919  12.130  19.958  0.00  0.00    +0.000 A 
ATOM      7  C   UNL     1      -3.317  12.284  19.876  0.00  0.00    +0.000 A 
ATOM      8  C   UNL     1      -4.024  11.782  18.776  0.00  0.00    +0.000 A 
ATOM      9  C   UNL     1      -3.273  11.120  17.804  0.00  0.00    +0.000 A 
ATOM     10  O   UNL     1      -3.784  10.591  16.656  0.00  0.00    +0.000 OA
ENDROOT
BRANCH   7  11
ATOM     11  C   UNL     1      -4.018  13.054  20.961  0.00  0.00    +0.000 C 
ATOM     12  O   UNL     1      -3.416  13.961  21.530  0.00  0.00    +0.000 OA
ATOM     13  N   UNL     1      -5.293  12.642  21.292  0.00  0.00    +0.000 N 
ATOM     14  C   UNL     1      -6.060  13.230  22.307  0.00  0.00    +0.000 A 
ATOM     15  C   UNL     1      -6.058  14.595  22.593  0.00  0.00    +0.000 A 
ATOM     16  N   UNL     1      -6.786  15.139  23.606  0.00  0.00    +0.000 NA
ATOM     17  C   UNL     1      -7.489  14.256  24.343  0.00  0.00    +0.000 A 
ATOM     18  C   UNL     1      -7.506  12.902  24.052  0.00  0.00    +0.000 A 
ATOM     19  N   UNL     1      -6.829  12.367  23.007  0.00  0.00    +0.000 NA
ATOM     20  H   UNL     1      -5.571  11.690  21.098  0.00  0.00    +0.000 HD
ENDBRANCH   7  11
BRANCH   5  21
ATOM     21  O   UNL     1       0.190  11.366  19.128  0.00  0.00    +0.000 OA
BRANCH  21  22
ATOM     22  C   UNL     1       0.708  10.110  19.415  0.00  0.00    +0.000 A 
ATOM     23  C   UNL     1       1.421   9.448  18.416  0.00  0.00    +0.000 A 
ATOM     24  N   UNL     1       1.975   8.210  18.581  0.00  0.00    +0.000 NA
ATOM     25  C   UNL     1       1.788   7.656  19.809  0.00  0.00    +0.000 A 
ATOM     26  C   UNL     1       1.084   8.322  20.808  0.00  0.00    +0.000 A 
ATOM     27  N   UNL     1       0.512   9.542  20.627  0.00  0.00    +0.000 NA
BRANCH  25  28
ATOM     28  C   UNL     1       2.337   6.304  20.125  0.00  0.00    +0.000 C 
ATOM     29  O   UNL     1       1.721   5.587  20.921  0.00  0.00    +0.000 OA
ATOM     30  N   UNL     1       3.497   5.867  19.526  0.00  0.00    +0.000 N 
ATOM     31  C   UNL     1       3.957   4.471  19.458  0.00  0.00    +0.000 C 
ATOM     32  C   UNL     1       4.410   4.814  18.081  0.00  0.00    +0.000 C 
ATOM     33  C   UNL     1       5.699   4.290  17.545  0.00  0.00    +0.000 C 
ATOM     34  O   UNL     1       5.047   4.005  16.267  0.00  0.00    +0.000 OA
ATOM     35  C   UNL     1       3.742   4.196  16.895  0.00  0.00    +0.000 C 
ATOM     36  C   UNL     1       4.218   6.281  18.322  0.00  0.00    +0.000 C 
ENDBRANCH  25  28
ENDBRANCH  21  22
ENDBRANCH   5  21
TORSDOF 4
ENDMDL
MODEL 9
REMARK VINA RESULT:      -8.2      4.262      9.685
REMARK  Name = 
REMARK  5 active torsions:
REMARK  status: ('A' for Active; 'I' for Inactive)
REMARK    1  A    between atoms: C_1  and  C_2
REMARK    2  A    between atoms: C_5  and  O_6
REMARK    3  A    between atoms: O_6  and  C_7
REMARK    4  A    between atoms: C_10  and  C_11
REMARK    5  A    between atoms: C_23  and  C_24
REMARK                            x       y       z     vdW  Elec       q    Type
REMARK                         _______ _______ _______ _____ _____    ______ ____
ROOT
ATOM      1  C   UNL     1      -2.848  10.938  16.782  0.00  0.00    +0.000 C 
ATOM      2  C   UNL     1      -1.815  11.099  17.823  0.00  0.00    +0.000 A 
ATOM      3  C   UNL     1      -1.301  10.249  18.773  0.00  0.00    +0.000 A 
ATOM      4  C   UNL     1      -0.209  10.926  19.384  0.00  0.00    +0.000 A 
ATOM      5  C   UNL     1       0.790  10.611  20.330  0.00  0.00    +0.000 A 
ATOM      6  C   UNL     1       1.686  11.627  20.717  0.00  0.00    +0.000 A 
ATOM      7  C   UNL     1       1.641  12.911  20.139  0.00  0.00    +0.000 A 
ATOM      8  C   UNL     1       0.686  13.216  19.161  0.00  0.00    +0.000 A 
ATOM      9  C   UNL     1      -0.205  12.197  18.822  0.00  0.00    +0.000 A 
ATOM     10  O   UNL     1      -1.181  12.302  17.875  0.00  0.00    +0.000 OA
ENDROOT
BRANCH   7  11
ATOM     11  C   UNL     1       2.679  13.918  20.548  0.00  0.00    +0.000 C 
ATOM     12  O   UNL     1       2.664  14.355  21.696  0.00  0.00    +0.000 OA
ATOM     13  N   UNL     1       3.558  14.338  19.570  0.00  0.00    +0.000 N 
ATOM     14  C   UNL     1       4.555  15.299  19.782  0.00  0.00    +0.000 A 
ATOM     15  C   UNL     1       5.281  15.420  20.967  0.00  0.00    +0.000 A 
ATOM     16  N   UNL     1       6.222  16.383  21.163  0.00  0.00    +0.000 NA
ATOM     17  C   UNL     1       6.381  17.244  20.137  0.00  0.00    +0.000 A 
ATOM     18  C   UNL     1       5.674  17.118  18.953  0.00  0.00    +0.000 A 
ATOM     19  N   UNL     1       4.781  16.122  18.734  0.00  0.00    +0.000 NA
ATOM     20  H   UNL     1       3.287  14.268  18.599  0.00  0.00    +0.000 HD
ENDBRANCH   7  11
BRANCH   5  21
ATOM     21  O   UNL     1       0.907   9.381  20.976  0.00  0.00    +0.000 OA
BRANCH  21  22
ATOM     22  C   UNL     1       1.395   8.303  20.249  0.00  0.00    +0.000 A 
ATOM     23  C   UNL     1       1.413   7.050  20.860  0.00  0.00    +0.000 A 
ATOM     24  N   UNL     1       1.871   5.920  20.246  0.00  0.00    +0.000 NA
ATOM     25  C   UNL     1       2.313   6.097  18.972  0.00  0.00    +0.000 A 
ATOM     26  C   UNL     1       2.287   7.348  18.359  0.00  0.00    +0.000 A 
ATOM     27  N   UNL     1       1.855   8.473  18.988  0.00  0.00    +0.000 NA
BRANCH  25  28
ATOM     28  C   UNL     1       2.846   4.946  18.184  0.00  0.00    +0.000 C 
ATOM     29  O   UNL     1       2.044   4.187  17.629  0.00  0.00    +0.000 OA
ATOM     30  N   UNL     1       4.204   4.752  18.069  0.00  0.00    +0.000 N 
ATOM     31  C   UNL     1       4.870   3.907  17.066  0.00  0.00    +0.000 C 
ATOM     32  C   UNL     1       5.905   4.978  17.027  0.00  0.00    +0.000 C 
ATOM     33  C   UNL     1       7.354   4.643  16.916  0.00  0.00    +0.000 C 
ATOM     34  O   UNL     1       7.524   5.718  15.938  0.00  0.00    +0.000 OA
ATOM     35  C   UNL     1       6.073   5.816  15.799  0.00  0.00    +0.000 C 
ATOM     36  C   UNL     1       5.359   5.628  18.263  0.00  0.00    +0.000 C 
ENDBRANCH  25  28
ENDBRANCH  21  22
ENDBRANCH   5  21
TORSDOF 4
ENDMDL
