MODEL 1
REMARK VINA RESULT:      -7.5      0.000      0.000
REMARK  Name = 
REMARK  13 active torsions:
REMARK  status: ('A' for Active; 'I' for Inactive)
REMARK    1  A    between atoms: C_1  and  C_2
REMARK    2  A    between atoms: C_3  and  C_4
REMARK    3  A    between atoms: C_4  and  O_5
REMARK    4  A    between atoms: O_5  and  C_6
REMARK    5  A    between atoms: C_9  and  S_10
REMARK    6  A    between atoms: S_10  and  N_13
REMARK    7  A    between atoms: N_13  and  C_14
REMARK    8  A    between atoms: N_13  and  C_15
REMARK    9  A    between atoms: C_15  and  C_16
REMARK   10  A    between atoms: C_15  and  C_20
REMARK   11  A    between atoms: N_18  and  O_19
REMARK   12  A    between atoms: C_20  and  C_21
REMARK   13  A    between atoms: C_20  and  C_22
REMARK                            x       y       z     vdW  Elec       q    Type
REMARK                         _______ _______ _______ _____ _____    ______ ____
ROOT
ATOM      1  S   UNL     1       5.732   6.090  17.312  0.00  0.00    +0.000 S 
ATOM      2  O   UNL     1       7.053   6.158  17.859  0.00  0.00    +0.000 OA
ATOM      3  O   UNL     1       4.951   7.271  17.084  0.00  0.00    +0.000 OA
ENDROOT
BRANCH   1   7
ATOM      4  C   UNL     1       6.218   3.924  13.341  0.00  0.00    +0.000 A 
ATOM      5  C   UNL     1       7.224   4.714  13.831  0.00  0.00    +0.000 A 
ATOM      6  C   UNL     1       7.072   5.358  15.054  0.00  0.00    +0.000 A 
ATOM      7  C   UNL     1       5.851   5.289  15.721  0.00  0.00    +0.000 A 
ATOM      8  C   UNL     1       4.803   4.505  15.223  0.00  0.00    +0.000 A 
ATOM      9  C   UNL     1       4.988   3.803  14.029  0.00  0.00    +0.000 A 
BRANCH   4  10
ATOM     10  O   UNL     1       6.476   3.305  12.152  0.00  0.00    +0.000 OA
BRANCH  10  11
ATOM     11  C   UNL     1       5.498   2.361  11.733  0.00  0.00    +0.000 C 
BRANCH  11  14
ATOM     12  C   UNL     1       2.532   4.533   9.419  0.00  0.00    +0.000 C 
ATOM     13  C   UNL     1       3.570   3.773  10.228  0.00  0.00    +0.000 C 
ATOM     14  C   UNL     1       4.460   3.121  10.923  0.00  0.00    +0.000 C 
ENDBRANCH  11  14
ENDBRANCH  10  11
ENDBRANCH   4  10
ENDBRANCH   1   7
BRANCH   1  15
ATOM     15  N   UNL     1       4.801   4.965  18.242  0.00  0.00    +0.000 NA
ATOM     16  C   UNL     1       5.432   4.750  19.601  0.00  0.00    +0.000 C 
BRANCH  15  17
ATOM     17  C   UNL     1       3.287   5.262  18.340  0.00  0.00    +0.000 C 
BRANCH  17  18
ATOM     18  C   UNL     1       2.447   4.017  17.927  0.00  0.00    +0.000 C 
ATOM     19  O   UNL     1       1.327   4.110  17.416  0.00  0.00    +0.000 OA
ATOM     20  N   UNL     1       2.997   2.779  18.160  0.00  0.00    +0.000 N 
ATOM     21  H   UNL     1       3.561   2.620  18.996  0.00  0.00    +0.000 HD
BRANCH  20  22
ATOM     22  O   UNL     1       2.232   1.672  17.728  0.00  0.00    +0.000 OA
ATOM     23  H   UNL     1       2.688   1.414  16.899  0.00  0.00    +0.000 HD
ENDBRANCH  20  22
ENDBRANCH  17  18
BRANCH  17  24
ATOM     24  C   UNL     1       2.816   5.806  19.738  0.00  0.00    +0.000 C 
ATOM     25  C   UNL     1       2.209   7.216  19.790  0.00  0.00    +0.000 C 
ATOM     26  C   UNL     1       1.774   4.881  20.382  0.00  0.00    +0.000 C 
ENDBRANCH  17  24
ENDBRANCH  15  17
ENDBRANCH   1  15
TORSDOF 9
ENDMDL
MODEL 2
REMARK VINA RESULT:      -7.5      1.919      2.581
REMARK  Name = 
REMARK  13 active torsions:
REMARK  status: ('A' for Active; 'I' for Inactive)
REMARK    1  A    between atoms: C_1  and  C_2
REMARK    2  A    between atoms: C_3  and  C_4
REMARK    3  A    between atoms: C_4  and  O_5
REMARK    4  A    between atoms: O_5  and  C_6
REMARK    5  A    between atoms: C_9  and  S_10
REMARK    6  A    between atoms: S_10  and  N_13
REMARK    7  A    between atoms: N_13  and  C_14
REMARK    8  A    between atoms: N_13  and  C_15
REMARK    9  A    between atoms: C_15  and  C_16
REMARK   10  A    between atoms: C_15  and  C_20
REMARK   11  A    between atoms: N_18  and  O_19
REMARK   12  A    between atoms: C_20  and  C_21
REMARK   13  A    between atoms: C_20  and  C_22
REMARK                            x       y       z     vdW  Elec       q    Type
REMARK                         _______ _______ _______ _____ _____    ______ ____
ROOT
ATOM      1  S   UNL     1       5.353   4.758  18.957  0.00  0.00    +0.000 S 
ATOM      2  O   UNL     1       6.461   4.115  19.597  0.00  0.00    +0.000 OA
ATOM      3  O   UNL     1       5.037   6.135  19.205  0.00  0.00    +0.000 OA
ENDROOT
BRANCH   1   7
ATOM      4  C   UNL     1       6.182   4.308  14.507  0.00  0.00    +0.000 A 
ATOM      5  C   UNL     1       7.146   4.796  15.349  0.00  0.00    +0.000 A 
ATOM      6  C   UNL     1       6.888   4.914  16.711  0.00  0.00    +0.000 A 
ATOM      7  C   UNL     1       5.610   4.642  17.195  0.00  0.00    +0.000 A 
ATOM      8  C   UNL     1       4.606   4.163  16.345  0.00  0.00    +0.000 A 
ATOM      9  C   UNL     1       4.893   3.979  14.990  0.00  0.00    +0.000 A 
BRANCH   4  10
ATOM     10  O   UNL     1       6.543   4.194  13.196  0.00  0.00    +0.000 OA
BRANCH  10  11
ATOM     11  C   UNL     1       6.171   2.975  12.566  0.00  0.00    +0.000 C 
BRANCH  11  14
ATOM     12  C   UNL     1       2.901   3.880   9.853  0.00  0.00    +0.000 C 
ATOM     13  C   UNL     1       4.045   3.564  10.802  0.00  0.00    +0.000 C 
ATOM     14  C   UNL     1       5.027   3.291  11.616  0.00  0.00    +0.000 C 
ENDBRANCH  11  14
ENDBRANCH  10  11
ENDBRANCH   4  10
ENDBRANCH   1   7
BRANCH   1  15
ATOM     15  N   UNL     1       3.934   3.797  19.205  0.00  0.00    +0.000 NA
ATOM     16  C   UNL     1       4.299   2.454  19.800  0.00  0.00    +0.000 C 
BRANCH  15  17
ATOM     17  C   UNL     1       2.782   4.484  19.973  0.00  0.00    +0.000 C 
BRANCH  17  18
ATOM     18  C   UNL     1       2.371   5.820  19.283  0.00  0.00    +0.000 C 
ATOM     19  O   UNL     1       2.064   5.884  18.089  0.00  0.00    +0.000 OA
ATOM     20  N   UNL     1       2.366   6.954  20.058  0.00  0.00    +0.000 N 
ATOM     21  H   UNL     1       3.074   7.082  20.782  0.00  0.00    +0.000 HD
BRANCH  20  22
ATOM     22  O   UNL     1       1.940   8.139  19.416  0.00  0.00    +0.000 OA
ATOM     23  H   UNL     1       1.008   7.931  19.192  0.00  0.00    +0.000 HD
ENDBRANCH  20  22
ENDBRANCH  17  18
BRANCH  17  24
ATOM     24  C   UNL     1       1.521   3.575  20.210  0.00  0.00    +0.000 C 
ATOM     25  C   UNL     1       1.166   2.546  19.127  0.00  0.00    +0.000 C 
ATOM     26  C   UNL     1       1.636   2.778  21.518  0.00  0.00    +0.000 C 
ENDBRANCH  17  24
ENDBRANCH  15  17
ENDBRANCH   1  15
TORSDOF 9
ENDMDL
MODEL 3
REMARK VINA RESULT:      -7.4      2.056      2.954
REMARK  Name = 
REMARK  13 active torsions:
REMARK  status: ('A' for Active; 'I' for Inactive)
REMARK    1  A    between atoms: C_1  and  C_2
REMARK    2  A    between atoms: C_3  and  C_4
REMARK    3  A    between atoms: C_4  and  O_5
REMARK    4  A    between atoms: O_5  and  C_6
REMARK    5  A    between atoms: C_9  and  S_10
REMARK    6  A    between atoms: S_10  and  N_13
REMARK    7  A    between atoms: N_13  and  C_14
REMARK    8  A    between atoms: N_13  and  C_15
REMARK    9  A    between atoms: C_15  and  C_16
REMARK   10  A    between atoms: C_15  and  C_20
REMARK   11  A    between atoms: N_18  and  O_19
REMARK   12  A    between atoms: C_20  and  C_21
REMARK   13  A    between atoms: C_20  and  C_22
REMARK                            x       y       z     vdW  Elec       q    Type
REMARK                         _______ _______ _______ _____ _____    ______ ____
ROOT
ATOM      1  S   UNL     1       5.750   4.592  18.980  0.00  0.00    +0.000 S 
ATOM      2  O   UNL     1       5.506   3.271  19.473  0.00  0.00    +0.000 OA
ATOM      3  O   UNL     1       6.815   5.403  19.497  0.00  0.00    +0.000 OA
ENDROOT
BRANCH   1   7
ATOM      4  C   UNL     1       6.329   4.338  14.475  0.00  0.00    +0.000 A 
ATOM      5  C   UNL     1       5.380   3.572  15.100  0.00  0.00    +0.000 A 
ATOM      6  C   UNL     1       5.200   3.670  16.475  0.00  0.00    +0.000 A 
ATOM      7  C   UNL     1       6.064   4.463  17.228  0.00  0.00    +0.000 A 
ATOM      8  C   UNL     1       7.055   5.235  16.608  0.00  0.00    +0.000 A 
ATOM      9  C   UNL     1       7.183   5.186  15.218  0.00  0.00    +0.000 A 
BRANCH   4  10
ATOM     10  O   UNL     1       6.404   4.199  13.119  0.00  0.00    +0.000 OA
BRANCH  10  11
ATOM     11  C   UNL     1       5.870   2.986  12.602  0.00  0.00    +0.000 C 
BRANCH  11  14
ATOM     12  C   UNL     1       2.812   4.067   9.712  0.00  0.00    +0.000 C 
ATOM     13  C   UNL     1       3.882   3.689  10.723  0.00  0.00    +0.000 C 
ATOM     14  C   UNL     1       4.800   3.364  11.591  0.00  0.00    +0.000 C 
ENDBRANCH  11  14
ENDBRANCH  10  11
ENDBRANCH   4  10
ENDBRANCH   1   7
BRANCH   1  15
ATOM     15  N   UNL     1       4.272   5.492  19.043  0.00  0.00    +0.000 NA
ATOM     16  C   UNL     1       4.043   6.227  17.741  0.00  0.00    +0.000 C 
BRANCH  15  17
ATOM     17  C   UNL     1       3.023   4.702  19.497  0.00  0.00    +0.000 C 
BRANCH  17  18
ATOM     18  C   UNL     1       2.038   5.619  20.283  0.00  0.00    +0.000 C 
ATOM     19  O   UNL     1       0.985   5.200  20.771  0.00  0.00    +0.000 OA
ATOM     20  N   UNL     1       2.381   6.943  20.415  0.00  0.00    +0.000 N 
ATOM     21  H   UNL     1       2.853   7.429  19.651  0.00  0.00    +0.000 HD
BRANCH  20  22
ATOM     22  O   UNL     1       1.493   7.737  21.176  0.00  0.00    +0.000 OA
ATOM     23  H   UNL     1       1.254   7.136  21.913  0.00  0.00    +0.000 HD
ENDBRANCH  20  22
ENDBRANCH  17  18
BRANCH  17  24
ATOM     24  C   UNL     1       2.269   3.949  18.340  0.00  0.00    +0.000 C 
ATOM     25  C   UNL     1       1.418   2.726  18.717  0.00  0.00    +0.000 C 
ATOM     26  C   UNL     1       1.328   4.889  17.573  0.00  0.00    +0.000 C 
ENDBRANCH  17  24
ENDBRANCH  15  17
ENDBRANCH   1  15
TORSDOF 9
ENDMDL
MODEL 4
REMARK VINA RESULT:      -7.4      1.328      1.416
REMARK  Name = 
REMARK  13 active torsions:
REMARK  status: ('A' for Active; 'I' for Inactive)
REMARK    1  A    between atoms: C_1  and  C_2
REMARK    2  A    between atoms: C_3  and  C_4
REMARK    3  A    between atoms: C_4  and  O_5
REMARK    4  A    between atoms: O_5  and  C_6
REMARK    5  A    between atoms: C_9  and  S_10
REMARK    6  A    between atoms: S_10  and  N_13
REMARK    7  A    between atoms: N_13  and  C_14
REMARK    8  A    between atoms: N_13  and  C_15
REMARK    9  A    between atoms: C_15  and  C_16
REMARK   10  A    between atoms: C_15  and  C_20
REMARK   11  A    between atoms: N_18  and  O_19
REMARK   12  A    between atoms: C_20  and  C_21
REMARK   13  A    between atoms: C_20  and  C_22
REMARK                            x       y       z     vdW  Elec       q    Type
REMARK                         _______ _______ _______ _____ _____    ______ ____
ROOT
ATOM      1  S   UNL     1       6.465   6.190  17.059  0.00  0.00    +0.000 S 
ATOM      2  O   UNL     1       7.835   6.589  17.189  0.00  0.00    +0.000 OA
ATOM      3  O   UNL     1       5.398   7.148  17.072  0.00  0.00    +0.000 OA
ENDROOT
BRANCH   1   7
ATOM      4  C   UNL     1       6.255   3.873  13.150  0.00  0.00    +0.000 A 
ATOM      5  C   UNL     1       7.298   4.725  13.399  0.00  0.00    +0.000 A 
ATOM      6  C   UNL     1       7.361   5.416  14.604  0.00  0.00    +0.000 A 
ATOM      7  C   UNL     1       6.303   5.325  15.506  0.00  0.00    +0.000 A 
ATOM      8  C   UNL     1       5.218   4.476  15.258  0.00  0.00    +0.000 A 
ATOM      9  C   UNL     1       5.196   3.730  14.077  0.00  0.00    +0.000 A 
BRANCH   4  10
ATOM     10  O   UNL     1       6.301   3.213  11.956  0.00  0.00    +0.000 OA
BRANCH  10  11
ATOM     11  C   UNL     1       5.187   2.372  11.683  0.00  0.00    +0.000 C 
BRANCH  11  14
ATOM     12  C   UNL     1       2.430   4.660   9.226  0.00  0.00    +0.000 C 
ATOM     13  C   UNL     1       3.394   3.860  10.086  0.00  0.00    +0.000 C 
ATOM     14  C   UNL     1       4.222   3.173  10.823  0.00  0.00    +0.000 C 
ENDBRANCH  11  14
ENDBRANCH  10  11
ENDBRANCH   4  10
ENDBRANCH   1   7
BRANCH   1  15
ATOM     15  N   UNL     1       6.132   4.955  18.226  0.00  0.00    +0.000 NA
ATOM     16  C   UNL     1       6.709   5.329  19.574  0.00  0.00    +0.000 C 
BRANCH  15  17
ATOM     17  C   UNL     1       4.657   4.503  18.325  0.00  0.00    +0.000 C 
BRANCH  17  18
ATOM     18  C   UNL     1       4.560   3.011  18.766  0.00  0.00    +0.000 C 
ATOM     19  O   UNL     1       5.001   2.606  19.845  0.00  0.00    +0.000 OA
ATOM     20  N   UNL     1       3.959   2.135  17.894  0.00  0.00    +0.000 N 
ATOM     21  H   UNL     1       4.090   2.244  16.888  0.00  0.00    +0.000 HD
BRANCH  20  22
ATOM     22  O   UNL     1       3.841   0.800  18.345  0.00  0.00    +0.000 OA
ATOM     23  H   UNL     1       3.658   0.918  19.301  0.00  0.00    +0.000 HD
ENDBRANCH  20  22
ENDBRANCH  17  18
BRANCH  17  24
ATOM     24  C   UNL     1       3.756   5.408  19.242  0.00  0.00    +0.000 C 
ATOM     25  C   UNL     1       2.691   6.282  18.561  0.00  0.00    +0.000 C 
ATOM     26  C   UNL     1       3.002   4.577  20.291  0.00  0.00    +0.000 C 
ENDBRANCH  17  24
ENDBRANCH  15  17
ENDBRANCH   1  15
TORSDOF 9
ENDMDL
MODEL 5
REMARK VINA RESULT:      -7.4      1.905      2.456
REMARK  Name = 
REMARK  13 active torsions:
REMARK  status: ('A' for Active; 'I' for Inactive)
REMARK    1  A    between atoms: C_1  and  C_2
REMARK    2  A    between atoms: C_3  and  C_4
REMARK    3  A    between atoms: C_4  and  O_5
REMARK    4  A    between atoms: O_5  and  C_6
REMARK    5  A    between atoms: C_9  and  S_10
REMARK    6  A    between atoms: S_10  and  N_13
REMARK    7  A    between atoms: N_13  and  C_14
REMARK    8  A    between atoms: N_13  and  C_15
REMARK    9  A    between atoms: C_15  and  C_16
REMARK   10  A    between atoms: C_15  and  C_20
REMARK   11  A    between atoms: N_18  and  O_19
REMARK   12  A    between atoms: C_20  and  C_21
REMARK   13  A    between atoms: C_20  and  C_22
REMARK                            x       y       z     vdW  Elec       q    Type
REMARK                         _______ _______ _______ _____ _____    ______ ____
ROOT
ATOM      1  S   UNL     1       4.191   5.175  18.548  0.00  0.00    +0.000 S 
ATOM      2  O   UNL     1       5.026   4.529  19.515  0.00  0.00    +0.000 OA
ATOM      3  O   UNL     1       3.841   6.562  18.663  0.00  0.00    +0.000 OA
ENDROOT
BRANCH   1   7
ATOM      4  C   UNL     1       6.071   4.613  14.444  0.00  0.00    +0.000 A 
ATOM      5  C   UNL     1       6.048   3.583  15.347  0.00  0.00    +0.000 A 
ATOM      6  C   UNL     1       5.456   3.760  16.592  0.00  0.00    +0.000 A 
ATOM      7  C   UNL     1       4.990   5.021  16.960  0.00  0.00    +0.000 A 
ATOM      8  C   UNL     1       5.026   6.091  16.058  0.00  0.00    +0.000 A 
ATOM      9  C   UNL     1       5.558   5.887  14.782  0.00  0.00    +0.000 A 
BRANCH   4  10
ATOM     10  O   UNL     1       6.641   4.330  13.236  0.00  0.00    +0.000 OA
BRANCH  10  11
ATOM     11  C   UNL     1       6.293   3.067  12.681  0.00  0.00    +0.000 C 
BRANCH  11  14
ATOM     12  C   UNL     1       2.954   3.730   9.983  0.00  0.00    +0.000 C 
ATOM     13  C   UNL     1       4.122   3.498  10.927  0.00  0.00    +0.000 C 
ATOM     14  C   UNL     1       5.125   3.300  11.737  0.00  0.00    +0.000 C 
ENDBRANCH  11  14
ENDBRANCH  10  11
ENDBRANCH   4  10
ENDBRANCH   1   7
BRANCH   1  15
ATOM     15  N   UNL     1       2.747   4.241  18.347  0.00  0.00    +0.000 NA
ATOM     16  C   UNL     1       2.660   3.695  16.939  0.00  0.00    +0.000 C 
BRANCH  15  17
ATOM     17  C   UNL     1       2.496   3.151  19.414  0.00  0.00    +0.000 C 
BRANCH  17  18
ATOM     18  C   UNL     1       3.620   2.072  19.384  0.00  0.00    +0.000 C 
ATOM     19  O   UNL     1       3.729   1.250  18.470  0.00  0.00    +0.000 OA
ATOM     20  N   UNL     1       4.506   2.057  20.435  0.00  0.00    +0.000 N 
ATOM     21  H   UNL     1       4.183   2.269  21.380  0.00  0.00    +0.000 HD
BRANCH  20  22
ATOM     22  O   UNL     1       5.543   1.100  20.353  0.00  0.00    +0.000 OA
ATOM     23  H   UNL     1       5.303   0.599  19.545  0.00  0.00    +0.000 HD
ENDBRANCH  20  22
ENDBRANCH  17  18
BRANCH  17  24
ATOM     24  C   UNL     1       2.298   3.700  20.875  0.00  0.00    +0.000 C 
ATOM     25  C   UNL     1       1.731   5.119  21.036  0.00  0.00    +0.000 C 
ATOM     26  C   UNL     1       1.377   2.789  21.700  0.00  0.00    +0.000 C 
ENDBRANCH  17  24
ENDBRANCH  15  17
ENDBRANCH   1  15
TORSDOF 9
ENDMDL
MODEL 6
REMARK VINA RESULT:      -7.3      0.825      1.383
REMARK  Name = 
REMARK  13 active torsions:
REMARK  status: ('A' for Active; 'I' for Inactive)
REMARK    1  A    between atoms: C_1  and  C_2
REMARK    2  A    between atoms: C_3  and  C_4
REMARK    3  A    between atoms: C_4  and  O_5
REMARK    4  A    between atoms: O_5  and  C_6
REMARK    5  A    between atoms: C_9  and  S_10
REMARK    6  A    between atoms: S_10  and  N_13
REMARK    7  A    between atoms: N_13  and  C_14
REMARK    8  A    between atoms: N_13  and  C_15
REMARK    9  A    between atoms: C_15  and  C_16
REMARK   10  A    between atoms: C_15  and  C_20
REMARK   11  A    between atoms: N_18  and  O_19
REMARK   12  A    between atoms: C_20  and  C_21
REMARK   13  A    between atoms: C_20  and  C_22
REMARK                            x       y       z     vdW  Elec       q    Type
REMARK                         _______ _______ _______ _____ _____    ______ ____
ROOT
ATOM      1  S   UNL     1       5.950   6.291  16.716  0.00  0.00    +0.000 S 
ATOM      2  O   UNL     1       7.240   6.790  17.084  0.00  0.00    +0.000 OA
ATOM      3  O   UNL     1       4.857   7.172  16.422  0.00  0.00    +0.000 OA
ENDROOT
BRANCH   1   7
ATOM      4  C   UNL     1       6.288   3.855  12.888  0.00  0.00    +0.000 A 
ATOM      5  C   UNL     1       5.191   3.730  13.698  0.00  0.00    +0.000 A 
ATOM      6  C   UNL     1       5.089   4.492  14.857  0.00  0.00    +0.000 A 
ATOM      7  C   UNL     1       6.159   5.295  15.249  0.00  0.00    +0.000 A 
ATOM      8  C   UNL     1       7.298   5.417  14.445  0.00  0.00    +0.000 A 
ATOM      9  C   UNL     1       7.363   4.703  13.245  0.00  0.00    +0.000 A 
BRANCH   4  10
ATOM     10  O   UNL     1       6.278   3.094  11.755  0.00  0.00    +0.000 OA
BRANCH  10  11
ATOM     11  C   UNL     1       5.099   2.326  11.549  0.00  0.00    +0.000 C 
BRANCH  11  14
ATOM     12  C   UNL     1       2.385   4.757   9.184  0.00  0.00    +0.000 C 
ATOM     13  C   UNL     1       3.334   3.907  10.012  0.00  0.00    +0.000 C 
ATOM     14  C   UNL     1       4.149   3.177  10.722  0.00  0.00    +0.000 C 
ENDBRANCH  11  14
ENDBRANCH  10  11
ENDBRANCH   4  10
ENDBRANCH   1   7
BRANCH   1  15
ATOM     15  N   UNL     1       5.442   5.133  17.900  0.00  0.00    +0.000 NA
ATOM     16  C   UNL     1       6.216   5.317  19.187  0.00  0.00    +0.000 C 
BRANCH  15  17
ATOM     17  C   UNL     1       3.918   5.041  18.140  0.00  0.00    +0.000 C 
BRANCH  17  18
ATOM     18  C   UNL     1       3.430   3.563  18.064  0.00  0.00    +0.000 C 
ATOM     19  O   UNL     1       4.200   2.603  18.157  0.00  0.00    +0.000 OA
ATOM     20  N   UNL     1       2.085   3.353  17.880  0.00  0.00    +0.000 N 
ATOM     21  H   UNL     1       1.546   3.981  17.281  0.00  0.00    +0.000 HD
BRANCH  20  22
ATOM     22  O   UNL     1       1.667   2.002  17.866  0.00  0.00    +0.000 OA
ATOM     23  H   UNL     1       2.485   1.528  18.129  0.00  0.00    +0.000 HD
ENDBRANCH  20  22
ENDBRANCH  17  18
BRANCH  17  24
ATOM     24  C   UNL     1       3.424   5.717  19.472  0.00  0.00    +0.000 C 
ATOM     25  C   UNL     1       2.384   6.842  19.360  0.00  0.00    +0.000 C 
ATOM     26  C   UNL     1       2.820   4.687  20.437  0.00  0.00    +0.000 C 
ENDBRANCH  17  24
ENDBRANCH  15  17
ENDBRANCH   1  15
TORSDOF 9
ENDMDL
MODEL 7
REMARK VINA RESULT:      -7.2      3.279      7.441
REMARK  Name = 
REMARK  13 active torsions:
REMARK  status: ('A' for Active; 'I' for Inactive)
REMARK    1  A    between atoms: C_1  and  C_2
REMARK    2  A    between atoms: C_3  and  C_4
REMARK    3  A    between atoms: C_4  and  O_5
REMARK    4  A    between atoms: O_5  and  C_6
REMARK    5  A    between atoms: C_9  and  S_10
REMARK    6  A    between atoms: S_10  and  N_13
REMARK    7  A    between atoms: N_13  and  C_14
REMARK    8  A    between atoms: N_13  and  C_15
REMARK    9  A    between atoms: C_15  and  C_16
REMARK   10  A    between atoms: C_15  and  C_20
REMARK   11  A    between atoms: N_18  and  O_19
REMARK   12  A    between atoms: C_20  and  C_21
REMARK   13  A    between atoms: C_20  and  C_22
REMARK                            x       y       z     vdW  Elec       q    Type
REMARK                         _______ _______ _______ _____ _____    ______ ____
ROOT
ATOM      1  S   UNL     1       2.717   5.580  19.259  0.00  0.00    +0.000 S 
ATOM      2  O   UNL     1       2.693   5.129  20.618  0.00  0.00    +0.000 OA
ATOM      3  O   UNL     1       1.940   4.937  18.239  0.00  0.00    +0.000 OA
ENDROOT
BRANCH   1   7
ATOM      4  C   UNL     1       1.215   9.870  19.064  0.00  0.00    +0.000 A 
ATOM      5  C   UNL     1       1.806   9.289  17.973  0.00  0.00    +0.000 A 
ATOM      6  C   UNL     1       2.246   7.971  18.038  0.00  0.00    +0.000 A 
ATOM      7  C   UNL     1       2.188   7.285  19.249  0.00  0.00    +0.000 A 
ATOM      8  C   UNL     1       1.607   7.871  20.381  0.00  0.00    +0.000 A 
ATOM      9  C   UNL     1       1.102   9.171  20.288  0.00  0.00    +0.000 A 
BRANCH   4  10
ATOM     10  O   UNL     1       0.782  11.153  18.890  0.00  0.00    +0.000 OA
BRANCH  10  11
ATOM     11  C   UNL     1      -0.590  11.377  19.188  0.00  0.00    +0.000 C 
BRANCH  11  14
ATOM     12  C   UNL     1      -2.899   9.739  15.893  0.00  0.00    +0.000 C 
ATOM     13  C   UNL     1      -2.091  10.312  17.046  0.00  0.00    +0.000 C 
ATOM     14  C   UNL     1      -1.399  10.804  18.035  0.00  0.00    +0.000 C 
ENDBRANCH  11  14
ENDBRANCH  10  11
ENDBRANCH   4  10
ENDBRANCH   1   7
BRANCH   1  15
ATOM     15  N   UNL     1       4.365   5.684  18.736  0.00  0.00    +0.000 NA
ATOM     16  C   UNL     1       5.255   4.835  19.617  0.00  0.00    +0.000 C 
BRANCH  15  17
ATOM     17  C   UNL     1       4.611   5.425  17.232  0.00  0.00    +0.000 C 
BRANCH  17  18
ATOM     18  C   UNL     1       5.585   6.486  16.636  0.00  0.00    +0.000 C 
ATOM     19  O   UNL     1       5.343   7.098  15.591  0.00  0.00    +0.000 OA
ATOM     20  N   UNL     1       6.754   6.721  17.318  0.00  0.00    +0.000 N 
ATOM     21  H   UNL     1       7.239   5.952  17.782  0.00  0.00    +0.000 HD
BRANCH  20  22
ATOM     22  O   UNL     1       7.592   7.724  16.779  0.00  0.00    +0.000 OA
ATOM     23  H   UNL     1       7.003   8.160  16.127  0.00  0.00    +0.000 HD
ENDBRANCH  20  22
ENDBRANCH  17  18
BRANCH  17  24
ATOM     24  C   UNL     1       5.104   3.971  16.890  0.00  0.00    +0.000 C 
ATOM     25  C   UNL     1       4.077   2.831  16.966  0.00  0.00    +0.000 C 
ATOM     26  C   UNL     1       5.705   3.895  15.479  0.00  0.00    +0.000 C 
ENDBRANCH  17  24
ENDBRANCH  15  17
ENDBRANCH   1  15
TORSDOF 9
ENDMDL
MODEL 8
REMARK VINA RESULT:      -7.2      2.057      2.645
REMARK  Name = 
REMARK  13 active torsions:
REMARK  status: ('A' for Active; 'I' for Inactive)
REMARK    1  A    between atoms: C_1  and  C_2
REMARK    2  A    between atoms: C_3  and  C_4
REMARK    3  A    between atoms: C_4  and  O_5
REMARK    4  A    between atoms: O_5  and  C_6
REMARK    5  A    between atoms: C_9  and  S_10
REMARK    6  A    between atoms: S_10  and  N_13
REMARK    7  A    between atoms: N_13  and  C_14
REMARK    8  A    between atoms: N_13  and  C_15
REMARK    9  A    between atoms: C_15  and  C_16
REMARK   10  A    between atoms: C_15  and  C_20
REMARK   11  A    between atoms: N_18  and  O_19
REMARK   12  A    between atoms: C_20  and  C_21
REMARK   13  A    between atoms: C_20  and  C_22
REMARK                            x       y       z     vdW  Elec       q    Type
REMARK                         _______ _______ _______ _____ _____    ______ ____
ROOT
ATOM      1  S   UNL     1       4.374   4.488  18.644  0.00  0.00    +0.000 S 
ATOM      2  O   UNL     1       4.615   3.121  18.994  0.00  0.00    +0.000 OA
ATOM      3  O   UNL     1       4.733   5.564  19.523  0.00  0.00    +0.000 OA
ENDROOT
BRANCH   1   7
ATOM      4  C   UNL     1       6.527   5.105  14.685  0.00  0.00    +0.000 A 
ATOM      5  C   UNL     1       6.907   4.101  15.535  0.00  0.00    +0.000 A 
ATOM      6  C   UNL     1       6.231   3.910  16.735  0.00  0.00    +0.000 A 
ATOM      7  C   UNL     1       5.244   4.815  17.120  0.00  0.00    +0.000 A 
ATOM      8  C   UNL     1       4.858   5.861  16.274  0.00  0.00    +0.000 A 
ATOM      9  C   UNL     1       5.493   6.004  15.037  0.00  0.00    +0.000 A 
BRANCH   4  10
ATOM     10  O   UNL     1       7.227   5.188  13.515  0.00  0.00    +0.000 OA
BRANCH  10  11
ATOM     11  C   UNL     1       7.362   3.966  12.800  0.00  0.00    +0.000 C 
BRANCH  11  14
ATOM     12  C   UNL     1       3.506   3.109  10.991  0.00  0.00    +0.000 C 
ATOM     13  C   UNL     1       4.855   3.409  11.624  0.00  0.00    +0.000 C 
ATOM     14  C   UNL     1       6.012   3.666  12.167  0.00  0.00    +0.000 C 
ENDBRANCH  11  14
ENDBRANCH  10  11
ENDBRANCH   4  10
ENDBRANCH   1   7
BRANCH   1  15
ATOM     15  N   UNL     1       2.713   4.661  18.186  0.00  0.00    +0.000 NA
ATOM     16  C   UNL     1       2.173   3.354  17.648  0.00  0.00    +0.000 C 
BRANCH  15  17
ATOM     17  C   UNL     1       1.783   5.286  19.250  0.00  0.00    +0.000 C 
BRANCH  17  18
ATOM     18  C   UNL     1       1.552   4.302  20.436  0.00  0.00    +0.000 C 
ATOM     19  O   UNL     1       0.478   3.722  20.620  0.00  0.00    +0.000 OA
ATOM     20  N   UNL     1       2.602   4.097  21.298  0.00  0.00    +0.000 N 
ATOM     21  H   UNL     1       3.226   4.869  21.538  0.00  0.00    +0.000 HD
BRANCH  20  22
ATOM     22  O   UNL     1       2.378   3.160  22.333  0.00  0.00    +0.000 OA
ATOM     23  H   UNL     1       3.071   3.399  22.985  0.00  0.00    +0.000 HD
ENDBRANCH  20  22
ENDBRANCH  17  18
BRANCH  17  24
ATOM     24  C   UNL     1       2.250   6.690  19.783  0.00  0.00    +0.000 C 
ATOM     25  C   UNL     1       2.336   7.846  18.774  0.00  0.00    +0.000 C 
ATOM     26  C   UNL     1       1.343   7.195  20.915  0.00  0.00    +0.000 C 
ENDBRANCH  17  24
ENDBRANCH  15  17
ENDBRANCH   1  15
TORSDOF 9
ENDMDL
MODEL 9
REMARK VINA RESULT:      -7.2      1.784      2.387
REMARK  Name = 
REMARK  13 active torsions:
REMARK  status: ('A' for Active; 'I' for Inactive)
REMARK    1  A    between atoms: C_1  and  C_2
REMARK    2  A    between atoms: C_3  and  C_4
REMARK    3  A    between atoms: C_4  and  O_5
REMARK    4  A    between atoms: O_5  and  C_6
REMARK    5  A    between atoms: C_9  and  S_10
REMARK    6  A    between atoms: S_10  and  N_13
REMARK    7  A    between atoms: N_13  and  C_14
REMARK    8  A    between atoms: N_13  and  C_15
REMARK    9  A    between atoms: C_15  and  C_16
REMARK   10  A    between atoms: C_15  and  C_20
REMARK   11  A    between atoms: N_18  and  O_19
REMARK   12  A    between atoms: C_20  and  C_21
REMARK   13  A    between atoms: C_20  and  C_22
REMARK                            x       y       z     vdW  Elec       q    Type
REMARK                         _______ _______ _______ _____ _____    ______ ____
ROOT
ATOM      1  S   UNL     1       5.344   4.927  18.951  0.00  0.00    +0.000 S 
ATOM      2  O   UNL     1       5.846   3.700  19.492  0.00  0.00    +0.000 OA
ATOM      3  O   UNL     1       5.861   6.199  19.366  0.00  0.00    +0.000 OA
ENDROOT
BRANCH   1   7
ATOM      4  C   UNL     1       5.793   4.625  14.434  0.00  0.00    +0.000 A 
ATOM      5  C   UNL     1       6.055   3.544  15.234  0.00  0.00    +0.000 A 
ATOM      6  C   UNL     1       5.898   3.642  16.612  0.00  0.00    +0.000 A 
ATOM      7  C   UNL     1       5.586   4.874  17.183  0.00  0.00    +0.000 A 
ATOM      8  C   UNL     1       5.337   5.995  16.382  0.00  0.00    +0.000 A 
ATOM      9  C   UNL     1       5.426   5.872  14.994  0.00  0.00    +0.000 A 
BRANCH   4  10
ATOM     10  O   UNL     1       5.939   4.419  13.093  0.00  0.00    +0.000 OA
BRANCH  10  11
ATOM     11  C   UNL     1       5.428   3.184  12.608  0.00  0.00    +0.000 C 
BRANCH  11  14
ATOM     12  C   UNL     1       2.685   4.115   9.371  0.00  0.00    +0.000 C 
ATOM     13  C   UNL     1       3.644   3.789  10.504  0.00  0.00    +0.000 C 
ATOM     14  C   UNL     1       4.468   3.510  11.475  0.00  0.00    +0.000 C 
ENDBRANCH  11  14
ENDBRANCH  10  11
ENDBRANCH   4  10
ENDBRANCH   1   7
BRANCH   1  15
ATOM     15  N   UNL     1       3.619   4.939  19.105  0.00  0.00    +0.000 NA
ATOM     16  C   UNL     1       3.041   6.199  18.500  0.00  0.00    +0.000 C 
BRANCH  15  17
ATOM     17  C   UNL     1       2.891   3.666  18.614  0.00  0.00    +0.000 C 
BRANCH  17  18
ATOM     18  C   UNL     1       3.538   2.385  19.221  0.00  0.00    +0.000 C 
ATOM     19  O   UNL     1       3.568   2.167  20.436  0.00  0.00    +0.000 OA
ATOM     20  N   UNL     1       4.094   1.484  18.345  0.00  0.00    +0.000 N 
ATOM     21  H   UNL     1       4.577   1.816  17.509  0.00  0.00    +0.000 HD
BRANCH  20  22
ATOM     22  O   UNL     1       4.627   0.310  18.923  0.00  0.00    +0.000 OA
ATOM     23  H   UNL     1       5.585   0.400  18.734  0.00  0.00    +0.000 HD
ENDBRANCH  20  22
ENDBRANCH  17  18
BRANCH  17  24
ATOM     24  C   UNL     1       1.337   3.667  18.856  0.00  0.00    +0.000 C 
ATOM     25  C   UNL     1       0.585   2.339  18.682  0.00  0.00    +0.000 C 
ATOM     26  C   UNL     1       0.986   4.162  20.267  0.00  0.00    +0.000 C 
ENDBRANCH  17  24
ENDBRANCH  15  17
ENDBRANCH   1  15
TORSDOF 9
ENDMDL
