MODEL 1
REMARK VINA RESULT:      -8.0      0.000      0.000
REMARK  Name = 
REMARK  4 active torsions:
REMARK  status: ('A' for Active; 'I' for Inactive)
REMARK    1  A    between atoms: C_2  and  O_3
REMARK    2  A    between atoms: C_2  and  C_4
REMARK    3  A    between atoms: C_7  and  C_8
REMARK    4  A    between atoms: C_11  and  C_12
REMARK                            x       y       z     vdW  Elec       q    Type
REMARK                         _______ _______ _______ _____ _____    ______ ____
ROOT
ATOM      1  C   UNL     1       2.976   6.301  18.839  0.00  0.00    +0.000 A 
ATOM      2  N   UNL     1       2.479   5.496  19.792  0.00  0.00    +0.000 NA
ATOM      3  O   UNL     1       1.727   6.356  20.589  0.00  0.00    +0.000 OA
ATOM      4  C   UNL     1       1.838   7.602  20.040  0.00  0.00    +0.000 A 
ATOM      5  N   UNL     1       2.594   7.618  18.966  0.00  0.00    +0.000 NA
ENDROOT
BRANCH   4   6
ATOM      6  C   UNL     1       1.094   8.668  20.694  0.00  0.00    +0.000 A 
ATOM      7  C   UNL     1       1.017   8.684  22.100  0.00  0.00    +0.000 A 
ATOM      8  C   UNL     1       0.287   9.663  22.775  0.00  0.00    +0.000 A 
ATOM      9  C   UNL     1      -0.377  10.651  22.056  0.00  0.00    +0.000 A 
ATOM     10  C   UNL     1      -0.309  10.659  20.665  0.00  0.00    +0.000 A 
ATOM     11  C   UNL     1       0.418   9.674  19.983  0.00  0.00    +0.000 A 
ATOM     12 CL   UNL     1       0.455   9.797  18.255  0.00  0.00    +0.000 Cl
ENDBRANCH   4   6
BRANCH   1  16
ATOM     13  C   UNL     1       5.654   5.064  15.761  0.00  0.00    +0.000 A 
ATOM     14  C   UNL     1       5.059   4.105  16.590  0.00  0.00    +0.000 A 
ATOM     15  C   UNL     1       4.166   4.504  17.590  0.00  0.00    +0.000 A 
ATOM     16  C   UNL     1       3.858   5.860  17.770  0.00  0.00    +0.000 A 
ATOM     17  C   UNL     1       4.425   6.806  16.902  0.00  0.00    +0.000 A 
ATOM     18  C   UNL     1       5.310   6.413  15.896  0.00  0.00    +0.000 A 
BRANCH  13  20
ATOM     19  O   UNL     1       7.644   5.232  14.471  0.00  0.00    +0.000 OA
ATOM     20  C   UNL     1       6.628   4.612  14.740  0.00  0.00    +0.000 C 
BRANCH  20  21
ATOM     21  O   UNL     1       6.259   3.481  14.104  0.00  0.00    +0.000 OA
ATOM     22  H   UNL     1       6.844   3.209  13.372  0.00  0.00    +0.000 HD
ENDBRANCH  20  21
ENDBRANCH  13  20
ENDBRANCH   1  16
TORSDOF 4
ENDMDL
MODEL 2
REMARK VINA RESULT:      -7.9      0.167      1.269
REMARK  Name = 
REMARK  4 active torsions:
REMARK  status: ('A' for Active; 'I' for Inactive)
REMARK    1  A    between atoms: C_2  and  O_3
REMARK    2  A    between atoms: C_2  and  C_4
REMARK    3  A    between atoms: C_7  and  C_8
REMARK    4  A    between atoms: C_11  and  C_12
REMARK                            x       y       z     vdW  Elec       q    Type
REMARK                         _______ _______ _______ _____ _____    ______ ____
ROOT
ATOM      1  C   UNL     1       2.986   6.341  18.833  0.00  0.00    +0.000 A 
ATOM      2  N   UNL     1       2.486   5.529  19.778  0.00  0.00    +0.000 NA
ATOM      3  O   UNL     1       1.717   6.380  20.569  0.00  0.00    +0.000 OA
ATOM      4  C   UNL     1       1.824   7.629  20.024  0.00  0.00    +0.000 A 
ATOM      5  N   UNL     1       2.592   7.654  18.959  0.00  0.00    +0.000 NA
ENDROOT
BRANCH   4   6
ATOM      6  C   UNL     1       1.063   8.687  20.673  0.00  0.00    +0.000 A 
ATOM      7  C   UNL     1       0.973   8.700  22.078  0.00  0.00    +0.000 A 
ATOM      8  C   UNL     1       0.228   9.671  22.748  0.00  0.00    +0.000 A 
ATOM      9  C   UNL     1      -0.439  10.653  22.024  0.00  0.00    +0.000 A 
ATOM     10  C   UNL     1      -0.360  10.663  20.633  0.00  0.00    +0.000 A 
ATOM     11  C   UNL     1       0.383   9.687  19.957  0.00  0.00    +0.000 A 
ATOM     12 CL   UNL     1       0.434   9.811  18.230  0.00  0.00    +0.000 Cl
ENDBRANCH   4   6
BRANCH   1  16
ATOM     13  C   UNL     1       5.524   5.045  15.662  0.00  0.00    +0.000 A 
ATOM     14  C   UNL     1       5.429   6.409  15.962  0.00  0.00    +0.000 A 
ATOM     15  C   UNL     1       4.612   6.838  17.012  0.00  0.00    +0.000 A 
ATOM     16  C   UNL     1       3.885   5.911  17.773  0.00  0.00    +0.000 A 
ATOM     17  C   UNL     1       4.026   4.543  17.492  0.00  0.00    +0.000 A 
ATOM     18  C   UNL     1       4.848   4.108  16.451  0.00  0.00    +0.000 A 
BRANCH  13  20
ATOM     19  O   UNL     1       6.052   3.725  13.755  0.00  0.00    +0.000 OA
ATOM     20  C   UNL     1       6.365   4.627  14.516  0.00  0.00    +0.000 C 
BRANCH  20  21
ATOM     21  O   UNL     1       7.530   5.303  14.425  0.00  0.00    +0.000 OA
ATOM     22  H   UNL     1       7.444   6.274  14.425  0.00  0.00    +0.000 HD
ENDBRANCH  20  21
ENDBRANCH  13  20
ENDBRANCH   1  16
TORSDOF 4
ENDMDL
MODEL 3
REMARK VINA RESULT:      -7.5      1.022      1.215
REMARK  Name = 
REMARK  4 active torsions:
REMARK  status: ('A' for Active; 'I' for Inactive)
REMARK    1  A    between atoms: C_2  and  O_3
REMARK    2  A    between atoms: C_2  and  C_4
REMARK    3  A    between atoms: C_7  and  C_8
REMARK    4  A    between atoms: C_11  and  C_12
REMARK                            x       y       z     vdW  Elec       q    Type
REMARK                         _______ _______ _______ _____ _____    ______ ____
ROOT
ATOM      1  C   UNL     1       2.606   6.450  19.624  0.00  0.00    +0.000 A 
ATOM      2  N   UNL     1       1.935   5.725  20.533  0.00  0.00    +0.000 NA
ATOM      3  O   UNL     1       1.123   6.663  21.167  0.00  0.00    +0.000 OA
ATOM      4  C   UNL     1       1.380   7.869  20.578  0.00  0.00    +0.000 A 
ATOM      5  N   UNL     1       2.282   7.788  19.627  0.00  0.00    +0.000 NA
ENDROOT
BRANCH   4   6
ATOM      6  C   UNL     1       0.608   9.004  21.061  0.00  0.00    +0.000 A 
ATOM      7  C   UNL     1       0.385   9.139  22.445  0.00  0.00    +0.000 A 
ATOM      8  C   UNL     1      -0.378  10.189  22.958  0.00  0.00    +0.000 A 
ATOM      9  C   UNL     1      -0.929  11.130  22.096  0.00  0.00    +0.000 A 
ATOM     10  C   UNL     1      -0.717  11.021  20.723  0.00  0.00    +0.000 A 
ATOM     11  C   UNL     1       0.044   9.964  20.203  0.00  0.00    +0.000 A 
ATOM     12 CL   UNL     1       0.265   9.942  18.486  0.00  0.00    +0.000 Cl
ENDBRANCH   4   6
BRANCH   1  16
ATOM     13  C   UNL     1       5.614   4.955  16.998  0.00  0.00    +0.000 A 
ATOM     14  C   UNL     1       5.281   4.237  18.153  0.00  0.00    +0.000 A 
ATOM     15  C   UNL     1       4.283   4.714  19.009  0.00  0.00    +0.000 A 
ATOM     16  C   UNL     1       3.608   5.908  18.719  0.00  0.00    +0.000 A 
ATOM     17  C   UNL     1       3.918   6.593  17.534  0.00  0.00    +0.000 A 
ATOM     18  C   UNL     1       4.906   6.117  16.671  0.00  0.00    +0.000 A 
BRANCH  13  20
ATOM     19  O   UNL     1       6.519   4.029  15.004  0.00  0.00    +0.000 OA
ATOM     20  C   UNL     1       6.705   4.445  16.135  0.00  0.00    +0.000 C 
BRANCH  20  21
ATOM     21  O   UNL     1       7.913   4.439  16.738  0.00  0.00    +0.000 OA
ATOM     22  H   UNL     1       8.388   5.290  16.718  0.00  0.00    +0.000 HD
ENDBRANCH  20  21
ENDBRANCH  13  20
ENDBRANCH   1  16
TORSDOF 4
ENDMDL
MODEL 4
REMARK VINA RESULT:      -7.3      3.274      8.538
REMARK  Name = 
REMARK  4 active torsions:
REMARK  status: ('A' for Active; 'I' for Inactive)
REMARK    1  A    between atoms: C_2  and  O_3
REMARK    2  A    between atoms: C_2  and  C_4
REMARK    3  A    between atoms: C_7  and  C_8
REMARK    4  A    between atoms: C_11  and  C_12
REMARK                            x       y       z     vdW  Elec       q    Type
REMARK                         _______ _______ _______ _____ _____    ______ ____
ROOT
ATOM      1  C   UNL     1       1.302   8.471  20.232  0.00  0.00    +0.000 A 
ATOM      2  N   UNL     1       1.705   8.685  18.969  0.00  0.00    +0.000 NA
ATOM      3  O   UNL     1       2.442   7.543  18.663  0.00  0.00    +0.000 OA
ATOM      4  C   UNL     1       2.412   6.745  19.771  0.00  0.00    +0.000 A 
ATOM      5  N   UNL     1       1.726   7.272  20.758  0.00  0.00    +0.000 NA
ENDROOT
BRANCH   4   6
ATOM      6  C   UNL     1       3.095   5.463  19.666  0.00  0.00    +0.000 A 
ATOM      7  C   UNL     1       4.454   5.442  19.295  0.00  0.00    +0.000 A 
ATOM      8  C   UNL     1       5.145   4.238  19.145  0.00  0.00    +0.000 A 
ATOM      9  C   UNL     1       4.492   3.032  19.370  0.00  0.00    +0.000 A 
ATOM     10  C   UNL     1       3.150   3.029  19.744  0.00  0.00    +0.000 A 
ATOM     11  C   UNL     1       2.450   4.234  19.889  0.00  0.00    +0.000 A 
ATOM     12 CL   UNL     1       0.794   4.113  20.383  0.00  0.00    +0.000 Cl
ENDBRANCH   4   6
BRANCH   1  16
ATOM     13  C   UNL     1      -1.119  11.188  22.454  0.00  0.00    +0.000 A 
ATOM     14  C   UNL     1      -0.520  10.101  23.103  0.00  0.00    +0.000 A 
ATOM     15  C   UNL     1       0.289   9.217  22.382  0.00  0.00    +0.000 A 
ATOM     16  C   UNL     1       0.509   9.411  21.011  0.00  0.00    +0.000 A 
ATOM     17  C   UNL     1      -0.058  10.530  20.383  0.00  0.00    +0.000 A 
ATOM     18  C   UNL     1      -0.859  11.421  21.099  0.00  0.00    +0.000 A 
BRANCH  13  20
ATOM     19  O   UNL     1      -3.126  11.758  23.595  0.00  0.00    +0.000 OA
ATOM     20  C   UNL     1      -2.005  12.081  23.236  0.00  0.00    +0.000 C 
BRANCH  20  21
ATOM     21  O   UNL     1      -1.475  13.300  23.469  0.00  0.00    +0.000 OA
ATOM     22  H   UNL     1      -1.602  13.640  24.374  0.00  0.00    +0.000 HD
ENDBRANCH  20  21
ENDBRANCH  13  20
ENDBRANCH   1  16
TORSDOF 4
ENDMDL
MODEL 5
REMARK VINA RESULT:      -7.3      3.217      3.528
REMARK  Name = 
REMARK  4 active torsions:
REMARK  status: ('A' for Active; 'I' for Inactive)
REMARK    1  A    between atoms: C_2  and  O_3
REMARK    2  A    between atoms: C_2  and  C_4
REMARK    3  A    between atoms: C_7  and  C_8
REMARK    4  A    between atoms: C_11  and  C_12
REMARK                            x       y       z     vdW  Elec       q    Type
REMARK                         _______ _______ _______ _____ _____    ______ ____
ROOT
ATOM      1  C   UNL     1       2.348   7.661  18.323  0.00  0.00    +0.000 A 
ATOM      2  N   UNL     1       2.691   8.481  17.317  0.00  0.00    +0.000 NA
ATOM      3  O   UNL     1       2.006   9.659  17.605  0.00  0.00    +0.000 OA
ATOM      4  C   UNL     1       1.313   9.440  18.762  0.00  0.00    +0.000 A 
ATOM      5  N   UNL     1       1.492   8.229  19.239  0.00  0.00    +0.000 NA
ENDROOT
BRANCH   4   6
ATOM      6  C   UNL     1       0.544  10.562  19.280  0.00  0.00    +0.000 A 
ATOM      7  C   UNL     1       1.092  11.347  20.313  0.00  0.00    +0.000 A 
ATOM      8  C   UNL     1       0.382  12.412  20.869  0.00  0.00    +0.000 A 
ATOM      9  C   UNL     1      -0.890  12.716  20.399  0.00  0.00    +0.000 A 
ATOM     10  C   UNL     1      -1.451  11.957  19.373  0.00  0.00    +0.000 A 
ATOM     11  C   UNL     1      -0.743  10.884  18.816  0.00  0.00    +0.000 A 
ATOM     12 CL   UNL     1      -1.524  10.026  17.530  0.00  0.00    +0.000 Cl
ENDBRANCH   4   6
BRANCH   1  16
ATOM     13  C   UNL     1       3.661   3.635  18.822  0.00  0.00    +0.000 A 
ATOM     14  C   UNL     1       2.463   3.896  18.146  0.00  0.00    +0.000 A 
ATOM     15  C   UNL     1       2.036   5.216  17.965  0.00  0.00    +0.000 A 
ATOM     16  C   UNL     1       2.801   6.284  18.453  0.00  0.00    +0.000 A 
ATOM     17  C   UNL     1       4.023   6.011  19.086  0.00  0.00    +0.000 A 
ATOM     18  C   UNL     1       4.459   4.697  19.262  0.00  0.00    +0.000 A 
BRANCH  13  20
ATOM     19  O   UNL     1       3.550   1.291  18.442  0.00  0.00    +0.000 OA
ATOM     20  C   UNL     1       4.063   2.225  19.035  0.00  0.00    +0.000 C 
BRANCH  20  21
ATOM     21  O   UNL     1       5.013   2.071  19.981  0.00  0.00    +0.000 OA
ATOM     22  H   UNL     1       5.811   1.590  19.691  0.00  0.00    +0.000 HD
ENDBRANCH  20  21
ENDBRANCH  13  20
ENDBRANCH   1  16
TORSDOF 4
ENDMDL
MODEL 6
REMARK VINA RESULT:      -7.3      1.226      1.616
REMARK  Name = 
REMARK  4 active torsions:
REMARK  status: ('A' for Active; 'I' for Inactive)
REMARK    1  A    between atoms: C_2  and  O_3
REMARK    2  A    between atoms: C_2  and  C_4
REMARK    3  A    between atoms: C_7  and  C_8
REMARK    4  A    between atoms: C_11  and  C_12
REMARK                            x       y       z     vdW  Elec       q    Type
REMARK                         _______ _______ _______ _____ _____    ______ ____
ROOT
ATOM      1  C   UNL     1       2.761   6.593  19.609  0.00  0.00    +0.000 A 
ATOM      2  N   UNL     1       1.919   5.764  20.247  0.00  0.00    +0.000 NA
ATOM      3  O   UNL     1       1.027   6.625  20.881  0.00  0.00    +0.000 OA
ATOM      4  C   UNL     1       1.413   7.897  20.563  0.00  0.00    +0.000 A 
ATOM      5  N   UNL     1       2.471   7.927  19.786  0.00  0.00    +0.000 NA
ENDROOT
BRANCH   4   6
ATOM      6  C   UNL     1       0.591   8.976  21.092  0.00  0.00    +0.000 A 
ATOM      7  C   UNL     1       0.372   9.049  22.481  0.00  0.00    +0.000 A 
ATOM      8  C   UNL     1      -0.436  10.043  23.036  0.00  0.00    +0.000 A 
ATOM      9  C   UNL     1      -1.039  10.986  22.212  0.00  0.00    +0.000 A 
ATOM     10  C   UNL     1      -0.832  10.937  20.835  0.00  0.00    +0.000 A 
ATOM     11  C   UNL     1      -0.025   9.938  20.273  0.00  0.00    +0.000 A 
ATOM     12 CL   UNL     1       0.183   9.988  18.554  0.00  0.00    +0.000 Cl
ENDBRANCH   4   6
BRANCH   1  16
ATOM     13  C   UNL     1       6.049   5.204  17.277  0.00  0.00    +0.000 A 
ATOM     14  C   UNL     1       5.154   6.133  16.732  0.00  0.00    +0.000 A 
ATOM     15  C   UNL     1       4.084   6.605  17.498  0.00  0.00    +0.000 A 
ATOM     16  C   UNL     1       3.899   6.157  18.814  0.00  0.00    +0.000 A 
ATOM     17  C   UNL     1       4.829   5.262  19.364  0.00  0.00    +0.000 A 
ATOM     18  C   UNL     1       5.905   4.794  18.607  0.00  0.00    +0.000 A 
BRANCH  13  20
ATOM     19  O   UNL     1       7.151   4.800  15.210  0.00  0.00    +0.000 OA
ATOM     20  C   UNL     1       7.147   4.691  16.425  0.00  0.00    +0.000 C 
BRANCH  20  21
ATOM     21  O   UNL     1       8.113   4.050  17.115  0.00  0.00    +0.000 OA
ATOM     22  H   UNL     1       7.792   3.414  17.781  0.00  0.00    +0.000 HD
ENDBRANCH  20  21
ENDBRANCH  13  20
ENDBRANCH   1  16
TORSDOF 4
ENDMDL
MODEL 7
REMARK VINA RESULT:      -7.3      2.994      3.602
REMARK  Name = 
REMARK  4 active torsions:
REMARK  status: ('A' for Active; 'I' for Inactive)
REMARK    1  A    between atoms: C_2  and  O_3
REMARK    2  A    between atoms: C_2  and  C_4
REMARK    3  A    between atoms: C_7  and  C_8
REMARK    4  A    between atoms: C_11  and  C_12
REMARK                            x       y       z     vdW  Elec       q    Type
REMARK                         _______ _______ _______ _____ _____    ______ ____
ROOT
ATOM      1  C   UNL     1       2.336   7.740  18.413  0.00  0.00    +0.000 A 
ATOM      2  N   UNL     1       2.667   8.469  17.335  0.00  0.00    +0.000 NA
ATOM      3  O   UNL     1       1.990   9.670  17.531  0.00  0.00    +0.000 OA
ATOM      4  C   UNL     1       1.315   9.554  18.714  0.00  0.00    +0.000 A 
ATOM      5  N   UNL     1       1.496   8.388  19.290  0.00  0.00    +0.000 NA
ENDROOT
BRANCH   4   6
ATOM      6  C   UNL     1       0.557  10.720  19.145  0.00  0.00    +0.000 A 
ATOM      7  C   UNL     1       1.115  11.577  20.114  0.00  0.00    +0.000 A 
ATOM      8  C   UNL     1       0.416  12.688  20.588  0.00  0.00    +0.000 A 
ATOM      9  C   UNL     1      -0.854  12.968  20.097  0.00  0.00    +0.000 A 
ATOM     10  C   UNL     1      -1.424  12.138  19.133  0.00  0.00    +0.000 A 
ATOM     11  C   UNL     1      -0.727  11.018  18.659  0.00  0.00    +0.000 A 
ATOM     12 CL   UNL     1      -1.519  10.073  17.443  0.00  0.00    +0.000 Cl
ENDBRANCH   4   6
BRANCH   1  16
ATOM     13  C   UNL     1       3.768   3.789  19.132  0.00  0.00    +0.000 A 
ATOM     14  C   UNL     1       2.883   4.382  20.040  0.00  0.00    +0.000 A 
ATOM     15  C   UNL     1       2.397   5.671  19.800  0.00  0.00    +0.000 A 
ATOM     16  C   UNL     1       2.787   6.377  18.653  0.00  0.00    +0.000 A 
ATOM     17  C   UNL     1       3.637   5.752  17.728  0.00  0.00    +0.000 A 
ATOM     18  C   UNL     1       4.118   4.462  17.957  0.00  0.00    +0.000 A 
BRANCH  13  20
ATOM     19  O   UNL     1       4.997   2.204  20.409  0.00  0.00    +0.000 OA
ATOM     20  C   UNL     1       4.299   2.439  19.437  0.00  0.00    +0.000 C 
BRANCH  20  21
ATOM     21  O   UNL     1       3.978   1.510  18.512  0.00  0.00    +0.000 OA
ATOM     22  H   UNL     1       3.904   0.599  18.851  0.00  0.00    +0.000 HD
ENDBRANCH  20  21
ENDBRANCH  13  20
ENDBRANCH   1  16
TORSDOF 4
ENDMDL
MODEL 8
REMARK VINA RESULT:      -7.3      3.091      3.736
REMARK  Name = 
REMARK  4 active torsions:
REMARK  status: ('A' for Active; 'I' for Inactive)
REMARK    1  A    between atoms: C_2  and  O_3
REMARK    2  A    between atoms: C_2  and  C_4
REMARK    3  A    between atoms: C_7  and  C_8
REMARK    4  A    between atoms: C_11  and  C_12
REMARK                            x       y       z     vdW  Elec       q    Type
REMARK                         _______ _______ _______ _____ _____    ______ ____
ROOT
ATOM      1  C   UNL     1       2.377   7.800  18.439  0.00  0.00    +0.000 A 
ATOM      2  N   UNL     1       2.691   8.500  17.338  0.00  0.00    +0.000 NA
ATOM      3  O   UNL     1       1.980   9.688  17.489  0.00  0.00    +0.000 OA
ATOM      4  C   UNL     1       1.304   9.595  18.673  0.00  0.00    +0.000 A 
ATOM      5  N   UNL     1       1.515   8.455  19.290  0.00  0.00    +0.000 NA
ENDROOT
BRANCH   4   6
ATOM      6  C   UNL     1       0.512  10.753  19.061  0.00  0.00    +0.000 A 
ATOM      7  C   UNL     1       1.037  11.652  20.010  0.00  0.00    +0.000 A 
ATOM      8  C   UNL     1       0.304  12.759  20.443  0.00  0.00    +0.000 A 
ATOM      9  C   UNL     1      -0.967  12.991  19.930  0.00  0.00    +0.000 A 
ATOM     10  C   UNL     1      -1.504  12.119  18.985  0.00  0.00    +0.000 A 
ATOM     11  C   UNL     1      -0.774  11.003  18.553  0.00  0.00    +0.000 A 
ATOM     12 CL   UNL     1      -1.528  10.002  17.357  0.00  0.00    +0.000 Cl
ENDBRANCH   4   6
BRANCH   1  16
ATOM     13  C   UNL     1       3.694   3.831  19.269  0.00  0.00    +0.000 A 
ATOM     14  C   UNL     1       4.147   4.486  18.118  0.00  0.00    +0.000 A 
ATOM     15  C   UNL     1       3.732   5.795  17.850  0.00  0.00    +0.000 A 
ATOM     16  C   UNL     1       2.865   6.460  18.728  0.00  0.00    +0.000 A 
ATOM     17  C   UNL     1       2.456   5.809  19.902  0.00  0.00    +0.000 A 
ATOM     18  C   UNL     1       2.874   4.507  20.180  0.00  0.00    +0.000 A 
BRANCH  13  20
ATOM     19  O   UNL     1       4.934   2.116  20.353  0.00  0.00    +0.000 OA
ATOM     20  C   UNL     1       4.119   2.430  19.502  0.00  0.00    +0.000 C 
BRANCH  20  21
ATOM     21  O   UNL     1       3.556   1.547  18.651  0.00  0.00    +0.000 OA
ATOM     22  H   UNL     1       4.157   1.189  17.971  0.00  0.00    +0.000 HD
ENDBRANCH  20  21
ENDBRANCH  13  20
ENDBRANCH   1  16
TORSDOF 4
ENDMDL
MODEL 9
REMARK VINA RESULT:      -7.2      2.935      8.494
REMARK  Name = 
REMARK  4 active torsions:
REMARK  status: ('A' for Active; 'I' for Inactive)
REMARK    1  A    between atoms: C_2  and  O_3
REMARK    2  A    between atoms: C_2  and  C_4
REMARK    3  A    between atoms: C_7  and  C_8
REMARK    4  A    between atoms: C_11  and  C_12
REMARK                            x       y       z     vdW  Elec       q    Type
REMARK                         _______ _______ _______ _____ _____    ______ ____
ROOT
ATOM      1  C   UNL     1       1.443   9.151  19.006  0.00  0.00    +0.000 A 
ATOM      2  N   UNL     1       1.709   9.666  17.795  0.00  0.00    +0.000 NA
ATOM      3  O   UNL     1       2.533   8.711  17.205  0.00  0.00    +0.000 OA
ATOM      4  C   UNL     1       2.687   7.705  18.117  0.00  0.00    +0.000 A 
ATOM      5  N   UNL     1       2.038   7.931  19.236  0.00  0.00    +0.000 NA
ENDROOT
BRANCH   4   6
ATOM      6  C   UNL     1       3.491   6.566  17.697  0.00  0.00    +0.000 A 
ATOM      7  C   UNL     1       4.687   6.798  16.991  0.00  0.00    +0.000 A 
ATOM      8  C   UNL     1       5.477   5.741  16.536  0.00  0.00    +0.000 A 
ATOM      9  C   UNL     1       5.087   4.430  16.782  0.00  0.00    +0.000 A 
ATOM     10  C   UNL     1       3.910   4.176  17.483  0.00  0.00    +0.000 A 
ATOM     11  C   UNL     1       3.111   5.234  17.938  0.00  0.00    +0.000 A 
ATOM     12 CL   UNL     1       1.685   4.804  18.821  0.00  0.00    +0.000 Cl
ENDBRANCH   4   6
BRANCH   1  16
ATOM     13  C   UNL     1      -0.849  11.109  22.021  0.00  0.00    +0.000 A 
ATOM     14  C   UNL     1      -0.912  11.561  20.697  0.00  0.00    +0.000 A 
ATOM     15  C   UNL     1      -0.176  10.912  19.701  0.00  0.00    +0.000 A 
ATOM     16  C   UNL     1       0.627   9.806  20.016  0.00  0.00    +0.000 A 
ATOM     17  C   UNL     1       0.644   9.334  21.338  0.00  0.00    +0.000 A 
ATOM     18  C   UNL     1      -0.097   9.972  22.334  0.00  0.00    +0.000 A 
BRANCH  13  20
ATOM     19  O   UNL     1      -2.693  11.476  23.476  0.00  0.00    +0.000 OA
ATOM     20  C   UNL     1      -1.608  11.845  23.059  0.00  0.00    +0.000 C 
BRANCH  20  21
ATOM     21  O   UNL     1      -1.008  12.985  23.460  0.00  0.00    +0.000 OA
ATOM     22  H   UNL     1      -1.616  13.705  23.713  0.00  0.00    +0.000 HD
ENDBRANCH  20  21
ENDBRANCH  13  20
ENDBRANCH   1  16
TORSDOF 4
ENDMDL
