MODEL 1
REMARK VINA RESULT:      -7.6      0.000      0.000
REMARK  Name = 
REMARK  6 active torsions:
REMARK  status: ('A' for Active; 'I' for Inactive)
REMARK    1  A    between atoms: C_1  and  O_2
REMARK    2  A    between atoms: O_2  and  C_3
REMARK    3  A    between atoms: N_14  and  C_15
REMARK    4  A    between atoms: C_15  and  C_16
REMARK    5  A    between atoms: N_22  and  C_23
REMARK    6  A    between atoms: C_23  and  C_24
REMARK                            x       y       z     vdW  Elec       q    Type
REMARK                         _______ _______ _______ _____ _____    ______ ____
ROOT
ATOM      1  C   UNL     1       1.225  11.200  18.710  0.00  0.00    +0.000 A 
ATOM      2  C   UNL     1       0.533  10.634  19.863  0.00  0.00    +0.000 A 
ATOM      3  C   UNL     1       0.703   9.342  20.175  0.00  0.00    +0.000 A 
ATOM      4  N   UNL     1       1.557   8.563  19.397  0.00  0.00    +0.000 N 
ATOM      5  C   UNL     1       2.242   9.058  18.285  0.00  0.00    +0.000 A 
ATOM      6  C   UNL     1       2.038  10.429  17.951  0.00  0.00    +0.000 A 
ATOM      7  N   UNL     1       3.033   8.145  17.750  0.00  0.00    +0.000 NA
ATOM      8  C   UNL     1       2.893   7.058  18.560  0.00  0.00    +0.000 A 
ATOM      9  C   UNL     1       1.963   7.266  19.536  0.00  0.00    +0.000 A 
ATOM     10  C   UNL     1       1.605   6.278  20.491  0.00  0.00    +0.000 A 
ATOM     11  O   UNL     1       0.655   6.408  21.255  0.00  0.00    +0.000 OA
ATOM     12  N   UNL     1       2.441   5.157  20.450  0.00  0.00    +0.000 N 
ATOM     13  C   UNL     1       3.529   4.994  19.573  0.00  0.00    +0.000 A 
ATOM     14  O   UNL     1       4.361   4.101  19.754  0.00  0.00    +0.000 OA
ATOM     15  N   UNL     1       3.627   5.893  18.503  0.00  0.00    +0.000 N 
ENDROOT
BRANCH   1  17
ATOM     16  C   UNL     1       1.881  13.467  19.073  0.00  0.00    +0.000 C 
ATOM     17  O   UNL     1       0.948  12.534  18.539  0.00  0.00    +0.000 OA
ENDBRANCH   1  17
BRANCH  12  18
ATOM     18  C   UNL     1       2.131   4.058  21.361  0.00  0.00    +0.000 C 
BRANCH  18  19
ATOM     19  C   UNL     1       1.199   3.058  20.682  0.00  0.00    +0.000 C 
ATOM     20  C   UNL     1       0.528   3.424  19.339  0.00  0.00    +0.000 C 
ATOM     21  C   UNL     1       1.112   2.161  18.700  0.00  0.00    +0.000 C 
ATOM     22  C   UNL     1       1.959   1.922  19.954  0.00  0.00    +0.000 C 
ENDBRANCH  18  19
ENDBRANCH  12  18
BRANCH  15  23
ATOM     23  C   UNL     1       4.632   5.673  17.462  0.00  0.00    +0.000 C 
BRANCH  23  24
ATOM     24  C   UNL     1       5.969   6.322  17.773  0.00  0.00    +0.000 A 
ATOM     25  C   UNL     1       6.361   7.514  17.146  0.00  0.00    +0.000 A 
ATOM     26  C   UNL     1       7.602   8.094  17.434  0.00  0.00    +0.000 A 
ATOM     27  C   UNL     1       8.469   7.486  18.339  0.00  0.00    +0.000 A 
ATOM     28  C   UNL     1       8.092   6.306  18.973  0.00  0.00    +0.000 A 
ATOM     29  C   UNL     1       6.849   5.733  18.696  0.00  0.00    +0.000 A 
ENDBRANCH  23  24
ENDBRANCH  15  23
TORSDOF 5
ENDMDL
MODEL 2
REMARK VINA RESULT:      -7.3      2.228      2.964
REMARK  Name = 
REMARK  6 active torsions:
REMARK  status: ('A' for Active; 'I' for Inactive)
REMARK    1  A    between atoms: C_1  and  O_2
REMARK    2  A    between atoms: O_2  and  C_3
REMARK    3  A    between atoms: N_14  and  C_15
REMARK    4  A    between atoms: C_15  and  C_16
REMARK    5  A    between atoms: N_22  and  C_23
REMARK    6  A    between atoms: C_23  and  C_24
REMARK                            x       y       z     vdW  Elec       q    Type
REMARK                         _______ _______ _______ _____ _____    ______ ____
ROOT
ATOM      1  C   UNL     1       1.170   9.977  18.835  0.00  0.00    +0.000 A 
ATOM      2  C   UNL     1       0.737   8.999  19.828  0.00  0.00    +0.000 A 
ATOM      3  C   UNL     1       1.338   7.803  19.892  0.00  0.00    +0.000 A 
ATOM      4  N   UNL     1       2.382   7.521  19.014  0.00  0.00    +0.000 N 
ATOM      5  C   UNL     1       2.833   8.423  18.048  0.00  0.00    +0.000 A 
ATOM      6  C   UNL     1       2.173   9.685  17.976  0.00  0.00    +0.000 A 
ATOM      7  N   UNL     1       3.870   7.948  17.380  0.00  0.00    +0.000 NA
ATOM      8  C   UNL     1       4.122   6.741  17.960  0.00  0.00    +0.000 A 
ATOM      9  C   UNL     1       3.203   6.433  18.918  0.00  0.00    +0.000 A 
ATOM     10  C   UNL     1       3.221   5.215  19.649  0.00  0.00    +0.000 A 
ATOM     11  O   UNL     1       2.302   4.870  20.384  0.00  0.00    +0.000 OA
ATOM     12  N   UNL     1       4.382   4.467  19.428  0.00  0.00    +0.000 N 
ATOM     13  C   UNL     1       5.439   4.851  18.582  0.00  0.00    +0.000 A 
ATOM     14  O   UNL     1       6.526   4.268  18.621  0.00  0.00    +0.000 OA
ATOM     15  N   UNL     1       5.202   5.922  17.710  0.00  0.00    +0.000 N 
ENDROOT
BRANCH   1  17
ATOM     16  C   UNL     1      -0.891  11.123  18.459  0.00  0.00    +0.000 C 
ATOM     17  O   UNL     1       0.458  11.149  18.913  0.00  0.00    +0.000 OA
ENDBRANCH   1  17
BRANCH  12  18
ATOM     18  C   UNL     1       4.481   3.173  20.097  0.00  0.00    +0.000 C 
BRANCH  18  19
ATOM     19  C   UNL     1       3.835   2.087  19.240  0.00  0.00    +0.000 C 
ATOM     20  C   UNL     1       2.305   1.878  19.290  0.00  0.00    +0.000 C 
ATOM     21  C   UNL     1       2.228   2.061  17.772  0.00  0.00    +0.000 C 
ATOM     22  C   UNL     1       3.697   2.494  17.752  0.00  0.00    +0.000 C 
ENDBRANCH  18  19
ENDBRANCH  12  18
BRANCH  15  23
ATOM     23  C   UNL     1       6.195   6.256  16.688  0.00  0.00    +0.000 C 
BRANCH  23  24
ATOM     24  C   UNL     1       6.111   5.372  15.457  0.00  0.00    +0.000 A 
ATOM     25  C   UNL     1       4.946   4.647  15.162  0.00  0.00    +0.000 A 
ATOM     26  C   UNL     1       4.887   3.826  14.030  0.00  0.00    +0.000 A 
ATOM     27  C   UNL     1       5.991   3.709  13.188  0.00  0.00    +0.000 A 
ATOM     28  C   UNL     1       7.152   4.425  13.465  0.00  0.00    +0.000 A 
ATOM     29  C   UNL     1       7.207   5.254  14.588  0.00  0.00    +0.000 A 
ENDBRANCH  23  24
ENDBRANCH  15  23
TORSDOF 5
ENDMDL
MODEL 3
REMARK VINA RESULT:      -7.2      6.281      9.559
REMARK  Name = 
REMARK  6 active torsions:
REMARK  status: ('A' for Active; 'I' for Inactive)
REMARK    1  A    between atoms: C_1  and  O_2
REMARK    2  A    between atoms: O_2  and  C_3
REMARK    3  A    between atoms: N_14  and  C_15
REMARK    4  A    between atoms: C_15  and  C_16
REMARK    5  A    between atoms: N_22  and  C_23
REMARK    6  A    between atoms: C_23  and  C_24
REMARK                            x       y       z     vdW  Elec       q    Type
REMARK                         _______ _______ _______ _____ _____    ______ ____
ROOT
ATOM      1  C   UNL     1      -2.974  10.412  15.312  0.00  0.00    +0.000 A 
ATOM      2  C   UNL     1      -4.359  10.807  15.547  0.00  0.00    +0.000 A 
ATOM      3  C   UNL     1      -4.707  11.352  16.721  0.00  0.00    +0.000 A 
ATOM      4  N   UNL     1      -3.729  11.547  17.694  0.00  0.00    +0.000 N 
ATOM      5  C   UNL     1      -2.391  11.188  17.517  0.00  0.00    +0.000 A 
ATOM      6  C   UNL     1      -2.037  10.590  16.271  0.00  0.00    +0.000 A 
ATOM      7  N   UNL     1      -1.650  11.528  18.556  0.00  0.00    +0.000 NA
ATOM      8  C   UNL     1      -2.515  12.162  19.397  0.00  0.00    +0.000 A 
ATOM      9  C   UNL     1      -3.794  12.141  18.923  0.00  0.00    +0.000 A 
ATOM     10  C   UNL     1      -4.892  12.705  19.626  0.00  0.00    +0.000 A 
ATOM     11  O   UNL     1      -6.056  12.537  19.281  0.00  0.00    +0.000 OA
ATOM     12  N   UNL     1      -4.496  13.450  20.741  0.00  0.00    +0.000 N 
ATOM     13  C   UNL     1      -3.164  13.644  21.150  0.00  0.00    +0.000 A 
ATOM     14  O   UNL     1      -2.876  14.502  21.989  0.00  0.00    +0.000 OA
ATOM     15  N   UNL     1      -2.189  12.831  20.556  0.00  0.00    +0.000 N 
ENDROOT
BRANCH   1  17
ATOM     16  C   UNL     1      -3.910   9.878  13.181  0.00  0.00    +0.000 C 
ATOM     17  O   UNL     1      -2.789   9.882  14.059  0.00  0.00    +0.000 OA
ENDBRANCH   1  17
BRANCH  12  18
ATOM     18  C   UNL     1      -5.552  14.036  21.563  0.00  0.00    +0.000 C 
BRANCH  18  19
ATOM     19  C   UNL     1      -6.026  13.028  22.607  0.00  0.00    +0.000 C 
ATOM     20  C   UNL     1      -6.195  13.469  24.079  0.00  0.00    +0.000 C 
ATOM     21  C   UNL     1      -7.650  12.990  24.058  0.00  0.00    +0.000 C 
ATOM     22  C   UNL     1      -7.552  12.768  22.545  0.00  0.00    +0.000 C 
ENDBRANCH  18  19
ENDBRANCH  12  18
BRANCH  15  23
ATOM     23  C   UNL     1      -0.815  12.863  21.060  0.00  0.00    +0.000 C 
BRANCH  23  24
ATOM     24  C   UNL     1      -0.354  11.531  21.627  0.00  0.00    +0.000 A 
ATOM     25  C   UNL     1      -0.928  11.000  22.791  0.00  0.00    +0.000 A 
ATOM     26  C   UNL     1      -0.484   9.777  23.309  0.00  0.00    +0.000 A 
ATOM     27  C   UNL     1       0.543   9.078  22.678  0.00  0.00    +0.000 A 
ATOM     28  C   UNL     1       1.118   9.590  21.519  0.00  0.00    +0.000 A 
ATOM     29  C   UNL     1       0.668  10.804  20.995  0.00  0.00    +0.000 A 
ENDBRANCH  23  24
ENDBRANCH  15  23
TORSDOF 5
ENDMDL
MODEL 4
REMARK VINA RESULT:      -7.2      1.749      2.368
REMARK  Name = 
REMARK  6 active torsions:
REMARK  status: ('A' for Active; 'I' for Inactive)
REMARK    1  A    between atoms: C_1  and  O_2
REMARK    2  A    between atoms: O_2  and  C_3
REMARK    3  A    between atoms: N_14  and  C_15
REMARK    4  A    between atoms: C_15  and  C_16
REMARK    5  A    between atoms: N_22  and  C_23
REMARK    6  A    between atoms: C_23  and  C_24
REMARK                            x       y       z     vdW  Elec       q    Type
REMARK                         _______ _______ _______ _____ _____    ______ ____
ROOT
ATOM      1  C   UNL     1       0.896  10.657  18.718  0.00  0.00    +0.000 A 
ATOM      2  C   UNL     1       0.235   9.749  19.649  0.00  0.00    +0.000 A 
ATOM      3  C   UNL     1       0.706   8.505  19.815  0.00  0.00    +0.000 A 
ATOM      4  N   UNL     1       1.834   8.106  19.103  0.00  0.00    +0.000 N 
ATOM      5  C   UNL     1       2.502   8.937  18.201  0.00  0.00    +0.000 A 
ATOM      6  C   UNL     1       1.981  10.252  18.018  0.00  0.00    +0.000 A 
ATOM      7  N   UNL     1       3.575   8.353  17.698  0.00  0.00    +0.000 NA
ATOM      8  C   UNL     1       3.627   7.143  18.323  0.00  0.00    +0.000 A 
ATOM      9  C   UNL     1       2.554   6.945  19.140  0.00  0.00    +0.000 A 
ATOM     10  C   UNL     1       2.352   5.750  19.882  0.00  0.00    +0.000 A 
ATOM     11  O   UNL     1       1.309   5.509  20.479  0.00  0.00    +0.000 OA
ATOM     12  N   UNL     1       3.457   4.894  19.841  0.00  0.00    +0.000 N 
ATOM     13  C   UNL     1       4.657   5.158  19.153  0.00  0.00    +0.000 A 
ATOM     14  O   UNL     1       5.667   4.480  19.358  0.00  0.00    +0.000 OA
ATOM     15  N   UNL     1       4.649   6.223  18.243  0.00  0.00    +0.000 N 
ENDROOT
BRANCH   1  17
ATOM     16  C   UNL     1       0.818  12.900  19.532  0.00  0.00    +0.000 C 
ATOM     17  O   UNL     1       0.294  11.890  18.677  0.00  0.00    +0.000 OA
ENDBRANCH   1  17
BRANCH  12  18
ATOM     18  C   UNL     1       3.337   3.614  20.534  0.00  0.00    +0.000 C 
BRANCH  18  19
ATOM     19  C   UNL     1       2.645   2.593  19.635  0.00  0.00    +0.000 C 
ATOM     20  C   UNL     1       2.035   3.043  18.288  0.00  0.00    +0.000 C 
ATOM     21  C   UNL     1       2.874   1.993  17.554  0.00  0.00    +0.000 C 
ATOM     22  C   UNL     1       3.642   1.706  18.848  0.00  0.00    +0.000 C 
ENDBRANCH  18  19
ENDBRANCH  12  18
BRANCH  15  23
ATOM     23  C   UNL     1       5.806   6.439  17.373  0.00  0.00    +0.000 C 
BRANCH  23  24
ATOM     24  C   UNL     1       5.832   5.514  16.169  0.00  0.00    +0.000 A 
ATOM     25  C   UNL     1       4.773   4.633  15.907  0.00  0.00    +0.000 A 
ATOM     26  C   UNL     1       4.816   3.776  14.800  0.00  0.00    +0.000 A 
ATOM     27  C   UNL     1       5.920   3.782  13.951  0.00  0.00    +0.000 A 
ATOM     28  C   UNL     1       6.977   4.653  14.195  0.00  0.00    +0.000 A 
ATOM     29  C   UNL     1       6.929   5.516  15.292  0.00  0.00    +0.000 A 
ENDBRANCH  23  24
ENDBRANCH  15  23
TORSDOF 5
ENDMDL
MODEL 5
REMARK VINA RESULT:      -7.1      3.543      8.396
REMARK  Name = 
REMARK  6 active torsions:
REMARK  status: ('A' for Active; 'I' for Inactive)
REMARK    1  A    between atoms: C_1  and  O_2
REMARK    2  A    between atoms: O_2  and  C_3
REMARK    3  A    between atoms: N_14  and  C_15
REMARK    4  A    between atoms: C_15  and  C_16
REMARK    5  A    between atoms: N_22  and  C_23
REMARK    6  A    between atoms: C_23  and  C_24
REMARK                            x       y       z     vdW  Elec       q    Type
REMARK                         _______ _______ _______ _____ _____    ______ ____
ROOT
ATOM      1  C   UNL     1       2.096   7.447  19.547  0.00  0.00    +0.000 A 
ATOM      2  C   UNL     1       1.557   7.362  20.900  0.00  0.00    +0.000 A 
ATOM      3  C   UNL     1       0.964   8.430  21.450  0.00  0.00    +0.000 A 
ATOM      4  N   UNL     1       0.859   9.604  20.708  0.00  0.00    +0.000 N 
ATOM      5  C   UNL     1       1.357   9.736  19.410  0.00  0.00    +0.000 A 
ATOM      6  C   UNL     1       2.004   8.598  18.843  0.00  0.00    +0.000 A 
ATOM      7  N   UNL     1       1.083  10.922  18.897  0.00  0.00    +0.000 NA
ATOM      8  C   UNL     1       0.351  11.547  19.862  0.00  0.00    +0.000 A 
ATOM      9  C   UNL     1       0.245  10.792  20.991  0.00  0.00    +0.000 A 
ATOM     10  C   UNL     1      -0.439  11.229  22.157  0.00  0.00    +0.000 A 
ATOM     11  O   UNL     1      -0.388  10.623  23.222  0.00  0.00    +0.000 OA
ATOM     12  N   UNL     1      -1.153  12.414  21.953  0.00  0.00    +0.000 N 
ATOM     13  C   UNL     1      -1.213  13.122  20.738  0.00  0.00    +0.000 A 
ATOM     14  O   UNL     1      -2.047  14.014  20.564  0.00  0.00    +0.000 OA
ATOM     15  N   UNL     1      -0.295  12.758  19.743  0.00  0.00    +0.000 N 
ENDROOT
BRANCH   1  17
ATOM     16  C   UNL     1       2.655   5.183  20.061  0.00  0.00    +0.000 C 
ATOM     17  O   UNL     1       2.659   6.264  19.135  0.00  0.00    +0.000 OA
ENDBRANCH   1  17
BRANCH  12  18
ATOM     18  C   UNL     1      -1.856  12.978  23.103  0.00  0.00    +0.000 C 
BRANCH  18  19
ATOM     19  C   UNL     1      -3.213  12.299  23.274  0.00  0.00    +0.000 C 
ATOM     20  C   UNL     1      -3.967  12.418  24.618  0.00  0.00    +0.000 C 
ATOM     21  C   UNL     1      -5.189  12.980  23.886  0.00  0.00    +0.000 C 
ATOM     22  C   UNL     1      -4.367  13.079  22.597  0.00  0.00    +0.000 C 
ENDBRANCH  18  19
ENDBRANCH  12  18
BRANCH  15  23
ATOM     23  C   UNL     1      -0.190  13.565  18.527  0.00  0.00    +0.000 C 
BRANCH  23  24
ATOM     24  C   UNL     1       0.887  14.633  18.607  0.00  0.00    +0.000 A 
ATOM     25  C   UNL     1       0.580  15.947  18.992  0.00  0.00    +0.000 A 
ATOM     26  C   UNL     1       1.581  16.924  19.050  0.00  0.00    +0.000 A 
ATOM     27  C   UNL     1       2.895  16.604  18.713  0.00  0.00    +0.000 A 
ATOM     28  C   UNL     1       3.215  15.304  18.335  0.00  0.00    +0.000 A 
ATOM     29  C   UNL     1       2.220  14.326  18.288  0.00  0.00    +0.000 A 
ENDBRANCH  23  24
ENDBRANCH  15  23
TORSDOF 5
ENDMDL
MODEL 6
REMARK VINA RESULT:      -7.0      1.900      2.574
REMARK  Name = 
REMARK  6 active torsions:
REMARK  status: ('A' for Active; 'I' for Inactive)
REMARK    1  A    between atoms: C_1  and  O_2
REMARK    2  A    between atoms: O_2  and  C_3
REMARK    3  A    between atoms: N_14  and  C_15
REMARK    4  A    between atoms: C_15  and  C_16
REMARK    5  A    between atoms: N_22  and  C_23
REMARK    6  A    between atoms: C_23  and  C_24
REMARK                            x       y       z     vdW  Elec       q    Type
REMARK                         _______ _______ _______ _____ _____    ______ ____
ROOT
ATOM      1  C   UNL     1       0.139   9.882  20.448  0.00  0.00    +0.000 A 
ATOM      2  C   UNL     1      -0.209   8.742  21.289  0.00  0.00    +0.000 A 
ATOM      3  C   UNL     1       0.431   7.575  21.129  0.00  0.00    +0.000 A 
ATOM      4  N   UNL     1       1.433   7.478  20.166  0.00  0.00    +0.000 N 
ATOM      5  C   UNL     1       1.803   8.539  19.338  0.00  0.00    +0.000 A 
ATOM      6  C   UNL     1       1.102   9.770  19.504  0.00  0.00    +0.000 A 
ATOM      7  N   UNL     1       2.815   8.218  18.552  0.00  0.00    +0.000 NA
ATOM      8  C   UNL     1       3.136   6.944  18.915  0.00  0.00    +0.000 A 
ATOM      9  C   UNL     1       2.280   6.452  19.855  0.00  0.00    +0.000 A 
ATOM     10  C   UNL     1       2.375   5.134  20.377  0.00  0.00    +0.000 A 
ATOM     11  O   UNL     1       1.509   4.640  21.091  0.00  0.00    +0.000 OA
ATOM     12  N   UNL     1       3.544   4.477  19.980  0.00  0.00    +0.000 N 
ATOM     13  C   UNL     1       4.541   5.031  19.156  0.00  0.00    +0.000 A 
ATOM     14  O   UNL     1       5.645   4.493  19.047  0.00  0.00    +0.000 OA
ATOM     15  N   UNL     1       4.224   6.218  18.482  0.00  0.00    +0.000 N 
ENDROOT
BRANCH   1  17
ATOM     16  C   UNL     1      -0.288  11.682  21.957  0.00  0.00    +0.000 C 
ATOM     17  O   UNL     1      -0.602  10.998  20.749  0.00  0.00    +0.000 OA
ENDBRANCH   1  17
BRANCH  12  18
ATOM     18  C   UNL     1       3.719   3.097  20.425  0.00  0.00    +0.000 C 
BRANCH  18  19
ATOM     19  C   UNL     1       2.979   2.145  19.489  0.00  0.00    +0.000 C 
ATOM     20  C   UNL     1       1.960   2.705  18.471  0.00  0.00    +0.000 C 
ATOM     21  C   UNL     1       2.721   2.026  17.330  0.00  0.00    +0.000 C 
ATOM     22  C   UNL     1       3.851   1.667  18.301  0.00  0.00    +0.000 C 
ENDBRANCH  18  19
ENDBRANCH  12  18
BRANCH  15  23
ATOM     23  C   UNL     1       5.149   6.751  17.481  0.00  0.00    +0.000 C 
BRANCH  23  24
ATOM     24  C   UNL     1       5.547   5.730  16.430  0.00  0.00    +0.000 A 
ATOM     25  C   UNL     1       6.868   5.644  15.964  0.00  0.00    +0.000 A 
ATOM     26  C   UNL     1       7.218   4.706  14.986  0.00  0.00    +0.000 A 
ATOM     27  C   UNL     1       6.254   3.852  14.454  0.00  0.00    +0.000 A 
ATOM     28  C   UNL     1       4.941   3.922  14.910  0.00  0.00    +0.000 A 
ATOM     29  C   UNL     1       4.593   4.849  15.894  0.00  0.00    +0.000 A 
ENDBRANCH  23  24
ENDBRANCH  15  23
TORSDOF 5
ENDMDL
MODEL 7
REMARK VINA RESULT:      -7.0      2.691      5.634
REMARK  Name = 
REMARK  6 active torsions:
REMARK  status: ('A' for Active; 'I' for Inactive)
REMARK    1  A    between atoms: C_1  and  O_2
REMARK    2  A    between atoms: O_2  and  C_3
REMARK    3  A    between atoms: N_14  and  C_15
REMARK    4  A    between atoms: C_15  and  C_16
REMARK    5  A    between atoms: N_22  and  C_23
REMARK    6  A    between atoms: C_23  and  C_24
REMARK                            x       y       z     vdW  Elec       q    Type
REMARK                         _______ _______ _______ _____ _____    ______ ____
ROOT
ATOM      1  C   UNL     1       1.424   8.995  19.147  0.00  0.00    +0.000 A 
ATOM      2  C   UNL     1       1.987   9.452  17.881  0.00  0.00    +0.000 A 
ATOM      3  C   UNL     1       2.928   8.723  17.267  0.00  0.00    +0.000 A 
ATOM      4  N   UNL     1       3.343   7.526  17.846  0.00  0.00    +0.000 N 
ATOM      5  C   UNL     1       2.836   7.045  19.054  0.00  0.00    +0.000 A 
ATOM      6  C   UNL     1       1.848   7.839  19.708  0.00  0.00    +0.000 A 
ATOM      7  N   UNL     1       3.342   5.864  19.364  0.00  0.00    +0.000 NA
ATOM      8  C   UNL     1       4.151   5.556  18.312  0.00  0.00    +0.000 A 
ATOM      9  C   UNL     1       4.213   6.570  17.402  0.00  0.00    +0.000 A 
ATOM     10  C   UNL     1       5.014   6.514  16.231  0.00  0.00    +0.000 A 
ATOM     11  O   UNL     1       5.198   7.487  15.507  0.00  0.00    +0.000 OA
ATOM     12  N   UNL     1       5.565   5.248  16.011  0.00  0.00    +0.000 N 
ATOM     13  C   UNL     1       5.367   4.127  16.838  0.00  0.00    +0.000 A 
ATOM     14  O   UNL     1       5.679   2.995  16.458  0.00  0.00    +0.000 OA
ATOM     15  N   UNL     1       4.793   4.356  18.096  0.00  0.00    +0.000 N 
ENDROOT
BRANCH   1  17
ATOM     16  C   UNL     1       0.022   9.641  20.968  0.00  0.00    +0.000 C 
ATOM     17  O   UNL     1       0.467   9.852  19.633  0.00  0.00    +0.000 OA
ENDBRANCH   1  17
BRANCH  12  18
ATOM     18  C   UNL     1       6.446   5.093  14.856  0.00  0.00    +0.000 C 
BRANCH  18  19
ATOM     19  C   UNL     1       6.055   3.851  14.059  0.00  0.00    +0.000 C 
ATOM     20  C   UNL     1       4.758   3.853  13.220  0.00  0.00    +0.000 C 
ATOM     21  C   UNL     1       5.560   3.474  11.972  0.00  0.00    +0.000 C 
ATOM     22  C   UNL     1       6.864   3.697  12.747  0.00  0.00    +0.000 C 
ENDBRANCH  18  19
ENDBRANCH  12  18
BRANCH  15  23
ATOM     23  C   UNL     1       4.719   3.264  19.067  0.00  0.00    +0.000 C 
BRANCH  23  24
ATOM     24  C   UNL     1       3.298   2.917  19.472  0.00  0.00    +0.000 A 
ATOM     25  C   UNL     1       2.906   2.916  20.819  0.00  0.00    +0.000 A 
ATOM     26  C   UNL     1       1.595   2.583  21.179  0.00  0.00    +0.000 A 
ATOM     27  C   UNL     1       0.665   2.235  20.202  0.00  0.00    +0.000 A 
ATOM     28  C   UNL     1       1.037   2.236  18.861  0.00  0.00    +0.000 A 
ATOM     29  C   UNL     1       2.342   2.581  18.500  0.00  0.00    +0.000 A 
ENDBRANCH  23  24
ENDBRANCH  15  23
TORSDOF 5
ENDMDL
MODEL 8
REMARK VINA RESULT:      -6.9      2.174      6.656
REMARK  Name = 
REMARK  6 active torsions:
REMARK  status: ('A' for Active; 'I' for Inactive)
REMARK    1  A    between atoms: C_1  and  O_2
REMARK    2  A    between atoms: O_2  and  C_3
REMARK    3  A    between atoms: N_14  and  C_15
REMARK    4  A    between atoms: C_15  and  C_16
REMARK    5  A    between atoms: N_22  and  C_23
REMARK    6  A    between atoms: C_23  and  C_24
REMARK                            x       y       z     vdW  Elec       q    Type
REMARK                         _______ _______ _______ _____ _____    ______ ____
ROOT
ATOM      1  C   UNL     1       5.755   5.171  16.054  0.00  0.00    +0.000 A 
ATOM      2  C   UNL     1       5.489   6.518  15.559  0.00  0.00    +0.000 A 
ATOM      3  C   UNL     1       4.565   7.280  16.160  0.00  0.00    +0.000 A 
ATOM      4  N   UNL     1       3.883   6.773  17.264  0.00  0.00    +0.000 N 
ATOM      5  C   UNL     1       4.100   5.493  17.776  0.00  0.00    +0.000 A 
ATOM      6  C   UNL     1       5.072   4.684  17.116  0.00  0.00    +0.000 A 
ATOM      7  N   UNL     1       3.377   5.267  18.858  0.00  0.00    +0.000 NA
ATOM      8  C   UNL     1       2.719   6.441  19.076  0.00  0.00    +0.000 A 
ATOM      9  C   UNL     1       2.966   7.354  18.095  0.00  0.00    +0.000 A 
ATOM     10  C   UNL     1       2.375   8.645  18.069  0.00  0.00    +0.000 A 
ATOM     11  O   UNL     1       2.465   9.396  17.103  0.00  0.00    +0.000 OA
ATOM     12  N   UNL     1       1.684   8.949  19.246  0.00  0.00    +0.000 N 
ATOM     13  C   UNL     1       1.568   8.092  20.357  0.00  0.00    +0.000 A 
ATOM     14  O   UNL     1       1.157   8.513  21.441  0.00  0.00    +0.000 OA
ATOM     15  N   UNL     1       1.949   6.756  20.175  0.00  0.00    +0.000 N 
ENDROOT
BRANCH   1  17
ATOM     16  C   UNL     1       6.362   3.987  14.073  0.00  0.00    +0.000 C 
ATOM     17  O   UNL     1       6.734   4.534  15.333  0.00  0.00    +0.000 OA
ENDBRANCH   1  17
BRANCH  12  18
ATOM     18  C   UNL     1       0.998  10.237  19.306  0.00  0.00    +0.000 C 
BRANCH  18  19
ATOM     19  C   UNL     1      -0.508  10.038  19.158  0.00  0.00    +0.000 C 
ATOM     20  C   UNL     1      -1.468  11.221  19.417  0.00  0.00    +0.000 C 
ATOM     21  C   UNL     1      -2.072  11.042  18.022  0.00  0.00    +0.000 C 
ATOM     22  C   UNL     1      -0.974  10.029  17.680  0.00  0.00    +0.000 C 
ENDBRANCH  18  19
ENDBRANCH  12  18
BRANCH  15  23
ATOM     23  C   UNL     1       1.692   5.780  21.234  0.00  0.00    +0.000 C 
BRANCH  23  24
ATOM     24  C   UNL     1       1.641   4.348  20.730  0.00  0.00    +0.000 A 
ATOM     25  C   UNL     1       0.700   3.949  19.771  0.00  0.00    +0.000 A 
ATOM     26  C   UNL     1       0.656   2.623  19.324  0.00  0.00    +0.000 A 
ATOM     27  C   UNL     1       1.543   1.679  19.839  0.00  0.00    +0.000 A 
ATOM     28  C   UNL     1       2.487   2.061  20.788  0.00  0.00    +0.000 A 
ATOM     29  C   UNL     1       2.538   3.387  21.224  0.00  0.00    +0.000 A 
ENDBRANCH  23  24
ENDBRANCH  15  23
TORSDOF 5
ENDMDL
MODEL 9
REMARK VINA RESULT:      -6.9      2.575      5.664
REMARK  Name = 
REMARK  6 active torsions:
REMARK  status: ('A' for Active; 'I' for Inactive)
REMARK    1  A    between atoms: C_1  and  O_2
REMARK    2  A    between atoms: O_2  and  C_3
REMARK    3  A    between atoms: N_14  and  C_15
REMARK    4  A    between atoms: C_15  and  C_16
REMARK    5  A    between atoms: N_22  and  C_23
REMARK    6  A    between atoms: C_23  and  C_24
REMARK                            x       y       z     vdW  Elec       q    Type
REMARK                         _______ _______ _______ _____ _____    ______ ____
ROOT
ATOM      1  C   UNL     1       1.442   8.970  19.077  0.00  0.00    +0.000 A 
ATOM      2  C   UNL     1       2.168   9.436  17.900  0.00  0.00    +0.000 A 
ATOM      3  C   UNL     1       3.163   8.695  17.394  0.00  0.00    +0.000 A 
ATOM      4  N   UNL     1       3.476   7.478  17.995  0.00  0.00    +0.000 N 
ATOM      5  C   UNL     1       2.811   6.989  19.121  0.00  0.00    +0.000 A 
ATOM      6  C   UNL     1       1.767   7.795  19.663  0.00  0.00    +0.000 A 
ATOM      7  N   UNL     1       3.249   5.791  19.467  0.00  0.00    +0.000 NA
ATOM      8  C   UNL     1       4.177   5.482  18.518  0.00  0.00    +0.000 A 
ATOM      9  C   UNL     1       4.373   6.509  17.644  0.00  0.00    +0.000 A 
ATOM     10  C   UNL     1       5.313   6.455  16.580  0.00  0.00    +0.000 A 
ATOM     11  O   UNL     1       5.607   7.435  15.904  0.00  0.00    +0.000 OA
ATOM     12  N   UNL     1       5.860   5.180  16.405  0.00  0.00    +0.000 N 
ATOM     13  C   UNL     1       5.535   4.050  17.178  0.00  0.00    +0.000 A 
ATOM     14  O   UNL     1       5.868   2.918  16.817  0.00  0.00    +0.000 OA
ATOM     15  N   UNL     1       4.814   4.271  18.359  0.00  0.00    +0.000 N 
ENDROOT
BRANCH   1  17
ATOM     16  C   UNL     1      -0.137   9.640  20.737  0.00  0.00    +0.000 C 
ATOM     17  O   UNL     1       0.451   9.841  19.457  0.00  0.00    +0.000 OA
ENDBRANCH   1  17
BRANCH  12  18
ATOM     18  C   UNL     1       6.874   5.024  15.365  0.00  0.00    +0.000 C 
BRANCH  18  19
ATOM     19  C   UNL     1       6.213   4.959  13.991  0.00  0.00    +0.000 C 
ATOM     20  C   UNL     1       7.087   4.810  12.725  0.00  0.00    +0.000 C 
ATOM     21  C   UNL     1       6.299   3.559  12.325  0.00  0.00    +0.000 C 
ATOM     22  C   UNL     1       5.593   3.572  13.684  0.00  0.00    +0.000 C 
ENDBRANCH  18  19
ENDBRANCH  12  18
BRANCH  15  23
ATOM     23  C   UNL     1       4.596   3.164  19.292  0.00  0.00    +0.000 C 
BRANCH  23  24
ATOM     24  C   UNL     1       3.128   2.901  19.577  0.00  0.00    +0.000 A 
ATOM     25  C   UNL     1       2.238   2.560  18.548  0.00  0.00    +0.000 A 
ATOM     26  C   UNL     1       0.885   2.332  18.823  0.00  0.00    +0.000 A 
ATOM     27  C   UNL     1       0.403   2.453  20.125  0.00  0.00    +0.000 A 
ATOM     28  C   UNL     1       1.275   2.785  21.158  0.00  0.00    +0.000 A 
ATOM     29  C   UNL     1       2.627   3.001  20.885  0.00  0.00    +0.000 A 
ENDBRANCH  23  24
ENDBRANCH  15  23
TORSDOF 5
ENDMDL
