MODEL 1
REMARK VINA RESULT:      -7.2      0.000      0.000
REMARK  Name = 
REMARK  9 active torsions:
REMARK  status: ('A' for Active; 'I' for Inactive)
REMARK    1  A    between atoms: C_1  and  C_2
REMARK    2  A    between atoms: C_5  and  C_6
REMARK    3  A    between atoms: C_6  and  S_7
REMARK    4  A    between atoms: S_7  and  C_8
REMARK    5  A    between atoms: C_13  and  N_14
REMARK    6  A    between atoms: C_15  and  C_17
REMARK    7  A    between atoms: C_17  and  C_18
REMARK    8  A    between atoms: C_18  and  C_19
REMARK    9  A    between atoms: C_18  and  C_20
REMARK                            x       y       z     vdW  Elec       q    Type
REMARK                         _______ _______ _______ _____ _____    ______ ____
ROOT
ATOM      1  C   UNL     1       1.211   9.471  19.124  0.00  0.00    +0.000 A 
ATOM      2  N   UNL     1       0.922   8.861  20.247  0.00  0.00    +0.000 NA
ATOM      3  C   UNL     1       0.257   9.706  21.102  0.00  0.00    +0.000 A 
ATOM      4  C   UNL     1      -0.176   9.348  22.387  0.00  0.00    +0.000 A 
ATOM      5  C   UNL     1      -0.841  10.284  23.174  0.00  0.00    +0.000 A 
ATOM      6  C   UNL     1      -1.103  11.571  22.713  0.00  0.00    +0.000 A 
ATOM      7  C   UNL     1      -0.656  11.959  21.429  0.00  0.00    +0.000 A 
ATOM      8  C   UNL     1       0.021  10.997  20.633  0.00  0.00    +0.000 A 
ATOM      9  S   UNL     1       0.678  11.101  19.026  0.00  0.00    +0.000 S 
ENDROOT
BRANCH   6  10
ATOM     10  N   UNL     1      -1.799  12.509  23.516  0.00  0.00    +0.000 N 
ATOM     11  C   UNL     1      -3.173  12.731  23.479  0.00  0.00    +0.000 C 
ATOM     12  O   UNL     1      -3.987  12.160  22.758  0.00  0.00    +0.000 OA
ATOM     13  H   UNL     1      -1.237  13.135  24.074  0.00  0.00    +0.000 HD
BRANCH  11  14
ATOM     14  C   UNL     1      -3.655  13.832  24.404  0.00  0.00    +0.000 C 
BRANCH  14  15
ATOM     15  C   UNL     1      -3.018  15.187  24.077  0.00  0.00    +0.000 C 
ATOM     16  C   UNL     1      -3.404  15.680  22.681  0.00  0.00    +0.000 C 
ATOM     17  C   UNL     1      -3.397  16.234  25.121  0.00  0.00    +0.000 C 
ENDBRANCH  14  15
ENDBRANCH  11  14
ENDBRANCH   6  10
BRANCH   1  18
ATOM     18  S   UNL     1       1.986   8.506  17.881  0.00  0.00    +0.000 S 
BRANCH  18  19
ATOM     19  C   UNL     1       2.694   7.090  18.742  0.00  0.00    +0.000 C 
BRANCH  19  24
ATOM     20  C   UNL     1       6.046   3.875  15.183  0.00  0.00    +0.000 C 
ATOM     21  C   UNL     1       5.183   4.710  16.082  0.00  0.00    +0.000 A 
ATOM     22  C   UNL     1       5.371   6.091  16.198  0.00  0.00    +0.000 A 
ATOM     23  C   UNL     1       4.562   6.849  17.052  0.00  0.00    +0.000 A 
ATOM     24  C   UNL     1       3.552   6.246  17.818  0.00  0.00    +0.000 A 
ATOM     25  C   UNL     1       3.354   4.863  17.684  0.00  0.00    +0.000 A 
ATOM     26  C   UNL     1       4.163   4.100  16.830  0.00  0.00    +0.000 A 
ENDBRANCH  19  24
ENDBRANCH  18  19
ENDBRANCH   1  18
TORSDOF 6
ENDMDL
MODEL 2
REMARK VINA RESULT:      -7.1      1.868      2.686
REMARK  Name = 
REMARK  9 active torsions:
REMARK  status: ('A' for Active; 'I' for Inactive)
REMARK    1  A    between atoms: C_1  and  C_2
REMARK    2  A    between atoms: C_5  and  C_6
REMARK    3  A    between atoms: C_6  and  S_7
REMARK    4  A    between atoms: S_7  and  C_8
REMARK    5  A    between atoms: C_13  and  N_14
REMARK    6  A    between atoms: C_15  and  C_17
REMARK    7  A    between atoms: C_17  and  C_18
REMARK    8  A    between atoms: C_18  and  C_19
REMARK    9  A    between atoms: C_18  and  C_20
REMARK                            x       y       z     vdW  Elec       q    Type
REMARK                         _______ _______ _______ _____ _____    ______ ____
ROOT
ATOM      1  C   UNL     1       1.045   9.562  19.205  0.00  0.00    +0.000 A 
ATOM      2  N   UNL     1       0.872   9.022  20.386  0.00  0.00    +0.000 NA
ATOM      3  C   UNL     1       0.090   9.829  21.179  0.00  0.00    +0.000 A 
ATOM      4  C   UNL     1      -0.263   9.530  22.502  0.00  0.00    +0.000 A 
ATOM      5  C   UNL     1      -1.060  10.419  23.219  0.00  0.00    +0.000 A 
ATOM      6  C   UNL     1      -1.532  11.598  22.649  0.00  0.00    +0.000 A 
ATOM      7  C   UNL     1      -1.169  11.928  21.324  0.00  0.00    +0.000 A 
ATOM      8  C   UNL     1      -0.356  11.016  20.600  0.00  0.00    +0.000 A 
ATOM      9  S   UNL     1       0.255  11.069  18.972  0.00  0.00    +0.000 S 
ENDROOT
BRANCH   6  10
ATOM     10  N   UNL     1      -2.360  12.485  23.382  0.00  0.00    +0.000 N 
ATOM     11  C   UNL     1      -3.706  12.724  23.122  0.00  0.00    +0.000 C 
ATOM     12  O   UNL     1      -4.380  12.212  22.231  0.00  0.00    +0.000 OA
ATOM     13  H   UNL     1      -1.904  13.065  24.072  0.00  0.00    +0.000 HD
BRANCH  11  14
ATOM     14  C   UNL     1      -4.345  13.763  24.023  0.00  0.00    +0.000 C 
BRANCH  14  15
ATOM     15  C   UNL     1      -5.741  14.171  23.541  0.00  0.00    +0.000 C 
ATOM     16  C   UNL     1      -6.840  13.320  24.183  0.00  0.00    +0.000 C 
ATOM     17  C   UNL     1      -6.003  15.649  23.815  0.00  0.00    +0.000 C 
ENDBRANCH  14  15
ENDBRANCH  11  14
ENDBRANCH   6  10
BRANCH   1  18
ATOM     18  S   UNL     1       1.948   8.618  18.034  0.00  0.00    +0.000 S 
BRANCH  18  19
ATOM     19  C   UNL     1       2.946   7.473  19.005  0.00  0.00    +0.000 C 
BRANCH  19  24
ATOM     20  C   UNL     1       0.620   2.105  19.062  0.00  0.00    +0.000 C 
ATOM     21  C   UNL     1       1.228   3.476  19.060  0.00  0.00    +0.000 A 
ATOM     22  C   UNL     1       1.348   4.222  20.237  0.00  0.00    +0.000 A 
ATOM     23  C   UNL     1       1.907   5.505  20.210  0.00  0.00    +0.000 A 
ATOM     24  C   UNL     1       2.351   6.078  19.008  0.00  0.00    +0.000 A 
ATOM     25  C   UNL     1       2.245   5.317  17.833  0.00  0.00    +0.000 A 
ATOM     26  C   UNL     1       1.685   4.033  17.855  0.00  0.00    +0.000 A 
ENDBRANCH  19  24
ENDBRANCH  18  19
ENDBRANCH   1  18
TORSDOF 6
ENDMDL
MODEL 3
REMARK VINA RESULT:      -7.1      2.597      4.051
REMARK  Name = 
REMARK  9 active torsions:
REMARK  status: ('A' for Active; 'I' for Inactive)
REMARK    1  A    between atoms: C_1  and  C_2
REMARK    2  A    between atoms: C_5  and  C_6
REMARK    3  A    between atoms: C_6  and  S_7
REMARK    4  A    between atoms: S_7  and  C_8
REMARK    5  A    between atoms: C_13  and  N_14
REMARK    6  A    between atoms: C_15  and  C_17
REMARK    7  A    between atoms: C_17  and  C_18
REMARK    8  A    between atoms: C_18  and  C_19
REMARK    9  A    between atoms: C_18  and  C_20
REMARK                            x       y       z     vdW  Elec       q    Type
REMARK                         _______ _______ _______ _____ _____    ______ ____
ROOT
ATOM      1  C   UNL     1       2.804   5.344  19.186  0.00  0.00    +0.000 A 
ATOM      2  N   UNL     1       2.850   6.288  18.279  0.00  0.00    +0.000 NA
ATOM      3  C   UNL     1       2.271   7.443  18.750  0.00  0.00    +0.000 A 
ATOM      4  C   UNL     1       2.156   8.627  18.009  0.00  0.00    +0.000 A 
ATOM      5  C   UNL     1       1.548   9.741  18.581  0.00  0.00    +0.000 A 
ATOM      6  C   UNL     1       1.061   9.716  19.885  0.00  0.00    +0.000 A 
ATOM      7  C   UNL     1       1.146   8.526  20.641  0.00  0.00    +0.000 A 
ATOM      8  C   UNL     1       1.769   7.394  20.049  0.00  0.00    +0.000 A 
ATOM      9  S   UNL     1       2.074   5.800  20.673  0.00  0.00    +0.000 S 
ENDROOT
BRANCH   6  10
ATOM     10  N   UNL     1       0.462  10.864  20.464  0.00  0.00    +0.000 N 
ATOM     11  C   UNL     1      -0.788  11.372  20.123  0.00  0.00    +0.000 C 
ATOM     12  O   UNL     1      -1.560  10.915  19.284  0.00  0.00    +0.000 OA
ATOM     13  H   UNL     1       1.038  11.411  21.087  0.00  0.00    +0.000 HD
BRANCH  11  14
ATOM     14  C   UNL     1      -1.168  12.645  20.855  0.00  0.00    +0.000 C 
BRANCH  14  15
ATOM     15  C   UNL     1      -0.911  12.548  22.363  0.00  0.00    +0.000 C 
ATOM     16  C   UNL     1      -0.863  13.927  23.025  0.00  0.00    +0.000 C 
ATOM     17  C   UNL     1      -1.967  11.682  23.043  0.00  0.00    +0.000 C 
ENDBRANCH  14  15
ENDBRANCH  11  14
ENDBRANCH   6  10
BRANCH   1  18
ATOM     18  S   UNL     1       3.583   3.825  18.780  0.00  0.00    +0.000 S 
BRANCH  18  19
ATOM     19  C   UNL     1       5.346   4.192  18.712  0.00  0.00    +0.000 C 
BRANCH  19  24
ATOM     20  C   UNL     1       7.149   4.851  13.185  0.00  0.00    +0.000 C 
ATOM     21  C   UNL     1       6.681   4.666  14.598  0.00  0.00    +0.000 A 
ATOM     22  C   UNL     1       5.364   4.295  14.888  0.00  0.00    +0.000 A 
ATOM     23  C   UNL     1       4.945   4.140  16.214  0.00  0.00    +0.000 A 
ATOM     24  C   UNL     1       5.828   4.359  17.283  0.00  0.00    +0.000 A 
ATOM     25  C   UNL     1       7.154   4.712  16.987  0.00  0.00    +0.000 A 
ATOM     26  C   UNL     1       7.576   4.870  15.660  0.00  0.00    +0.000 A 
ENDBRANCH  19  24
ENDBRANCH  18  19
ENDBRANCH   1  18
TORSDOF 6
ENDMDL
MODEL 4
REMARK VINA RESULT:      -7.0      2.767      4.662
REMARK  Name = 
REMARK  9 active torsions:
REMARK  status: ('A' for Active; 'I' for Inactive)
REMARK    1  A    between atoms: C_1  and  C_2
REMARK    2  A    between atoms: C_5  and  C_6
REMARK    3  A    between atoms: C_6  and  S_7
REMARK    4  A    between atoms: S_7  and  C_8
REMARK    5  A    between atoms: C_13  and  N_14
REMARK    6  A    between atoms: C_15  and  C_17
REMARK    7  A    between atoms: C_17  and  C_18
REMARK    8  A    between atoms: C_18  and  C_19
REMARK    9  A    between atoms: C_18  and  C_20
REMARK                            x       y       z     vdW  Elec       q    Type
REMARK                         _______ _______ _______ _____ _____    ______ ____
ROOT
ATOM      1  C   UNL     1       3.221   4.592  18.539  0.00  0.00    +0.000 A 
ATOM      2  N   UNL     1       3.022   5.662  17.810  0.00  0.00    +0.000 NA
ATOM      3  C   UNL     1       2.480   6.673  18.569  0.00  0.00    +0.000 A 
ATOM      4  C   UNL     1       2.143   7.939  18.071  0.00  0.00    +0.000 A 
ATOM      5  C   UNL     1       1.597   8.892  18.926  0.00  0.00    +0.000 A 
ATOM      6  C   UNL     1       1.389   8.626  20.277  0.00  0.00    +0.000 A 
ATOM      7  C   UNL     1       1.702   7.348  20.794  0.00  0.00    +0.000 A 
ATOM      8  C   UNL     1       2.259   6.383  19.914  0.00  0.00    +0.000 A 
ATOM      9  S   UNL     1       2.785   4.748  20.193  0.00  0.00    +0.000 S 
ENDROOT
BRANCH   6  10
ATOM     10  N   UNL     1       0.851   9.611  21.142  0.00  0.00    +0.000 N 
ATOM     11  C   UNL     1      -0.234   9.423  21.993  0.00  0.00    +0.000 C 
ATOM     12  O   UNL     1      -0.886   8.391  22.130  0.00  0.00    +0.000 OA
ATOM     13  H   UNL     1       1.217  10.548  21.046  0.00  0.00    +0.000 HD
BRANCH  11  14
ATOM     14  C   UNL     1      -0.643  10.659  22.771  0.00  0.00    +0.000 C 
BRANCH  14  15
ATOM     15  C   UNL     1      -0.610  11.926  21.909  0.00  0.00    +0.000 C 
ATOM     16  C   UNL     1      -1.641  11.875  20.778  0.00  0.00    +0.000 C 
ATOM     17  C   UNL     1      -0.837  13.172  22.761  0.00  0.00    +0.000 C 
ENDBRANCH  14  15
ENDBRANCH  11  14
ENDBRANCH   6  10
BRANCH   1  18
ATOM     18  S   UNL     1       3.993   3.232  17.744  0.00  0.00    +0.000 S 
BRANCH  18  19
ATOM     19  C   UNL     1       5.027   3.952  16.454  0.00  0.00    +0.000 C 
BRANCH  19  24
ATOM     20  C   UNL     1       8.510   8.150  18.570  0.00  0.00    +0.000 C 
ATOM     21  C   UNL     1       7.623   7.077  18.012  0.00  0.00    +0.000 A 
ATOM     22  C   UNL     1       6.712   7.345  16.985  0.00  0.00    +0.000 A 
ATOM     23  C   UNL     1       5.884   6.332  16.487  0.00  0.00    +0.000 A 
ATOM     24  C   UNL     1       5.940   5.030  17.007  0.00  0.00    +0.000 A 
ATOM     25  C   UNL     1       6.870   4.761  18.024  0.00  0.00    +0.000 A 
ATOM     26  C   UNL     1       7.699   5.773  18.526  0.00  0.00    +0.000 A 
ENDBRANCH  19  24
ENDBRANCH  18  19
ENDBRANCH   1  18
TORSDOF 6
ENDMDL
MODEL 5
REMARK VINA RESULT:      -6.9      2.646      4.366
REMARK  Name = 
REMARK  9 active torsions:
REMARK  status: ('A' for Active; 'I' for Inactive)
REMARK    1  A    between atoms: C_1  and  C_2
REMARK    2  A    between atoms: C_5  and  C_6
REMARK    3  A    between atoms: C_6  and  S_7
REMARK    4  A    between atoms: S_7  and  C_8
REMARK    5  A    between atoms: C_13  and  N_14
REMARK    6  A    between atoms: C_15  and  C_17
REMARK    7  A    between atoms: C_17  and  C_18
REMARK    8  A    between atoms: C_18  and  C_19
REMARK    9  A    between atoms: C_18  and  C_20
REMARK                            x       y       z     vdW  Elec       q    Type
REMARK                         _______ _______ _______ _____ _____    ______ ____
ROOT
ATOM      1  C   UNL     1       3.708   5.503  19.056  0.00  0.00    +0.000 A 
ATOM      2  N   UNL     1       3.673   6.457  18.159  0.00  0.00    +0.000 NA
ATOM      3  C   UNL     1       2.762   7.424  18.515  0.00  0.00    +0.000 A 
ATOM      4  C   UNL     1       2.487   8.567  17.751  0.00  0.00    +0.000 A 
ATOM      5  C   UNL     1       1.543   9.485  18.202  0.00  0.00    +0.000 A 
ATOM      6  C   UNL     1       0.869   9.305  19.407  0.00  0.00    +0.000 A 
ATOM      7  C   UNL     1       1.115   8.149  20.180  0.00  0.00    +0.000 A 
ATOM      8  C   UNL     1       2.080   7.218  19.713  0.00  0.00    +0.000 A 
ATOM      9  S   UNL     1       2.657   5.726  20.396  0.00  0.00    +0.000 S 
ENDROOT
BRANCH   6  10
ATOM     10  N   UNL     1      -0.076  10.258  19.865  0.00  0.00    +0.000 N 
ATOM     11  C   UNL     1       0.150  11.186  20.877  0.00  0.00    +0.000 C 
ATOM     12  O   UNL     1       1.185  11.328  21.522  0.00  0.00    +0.000 OA
ATOM     13  H   UNL     1      -1.015  10.176  19.503  0.00  0.00    +0.000 HD
BRANCH  11  14
ATOM     14  C   UNL     1      -1.049  12.053  21.212  0.00  0.00    +0.000 C 
BRANCH  14  15
ATOM     15  C   UNL     1      -1.093  12.435  22.696  0.00  0.00    +0.000 C 
ATOM     16  C   UNL     1      -0.858  13.933  22.908  0.00  0.00    +0.000 C 
ATOM     17  C   UNL     1      -2.421  12.025  23.326  0.00  0.00    +0.000 C 
ENDBRANCH  14  15
ENDBRANCH  11  14
ENDBRANCH   6  10
BRANCH   1  18
ATOM     18  S   UNL     1       4.887   4.228  18.803  0.00  0.00    +0.000 S 
BRANCH  18  19
ATOM     19  C   UNL     1       6.274   5.016  17.962  0.00  0.00    +0.000 C 
BRANCH  19  24
ATOM     20  C   UNL     1       6.312   3.687  12.264  0.00  0.00    +0.000 C 
ATOM     21  C   UNL     1       6.301   4.011  13.729  0.00  0.00    +0.000 A 
ATOM     22  C   UNL     1       5.288   3.543  14.571  0.00  0.00    +0.000 A 
ATOM     23  C   UNL     1       5.290   3.867  15.933  0.00  0.00    +0.000 A 
ATOM     24  C   UNL     1       6.298   4.673  16.485  0.00  0.00    +0.000 A 
ATOM     25  C   UNL     1       7.324   5.124  15.638  0.00  0.00    +0.000 A 
ATOM     26  C   UNL     1       7.324   4.802  14.274  0.00  0.00    +0.000 A 
ENDBRANCH  19  24
ENDBRANCH  18  19
ENDBRANCH   1  18
TORSDOF 6
ENDMDL
MODEL 6
REMARK VINA RESULT:      -6.9      3.230      4.235
REMARK  Name = 
REMARK  9 active torsions:
REMARK  status: ('A' for Active; 'I' for Inactive)
REMARK    1  A    between atoms: C_1  and  C_2
REMARK    2  A    between atoms: C_5  and  C_6
REMARK    3  A    between atoms: C_6  and  S_7
REMARK    4  A    between atoms: S_7  and  C_8
REMARK    5  A    between atoms: C_13  and  N_14
REMARK    6  A    between atoms: C_15  and  C_17
REMARK    7  A    between atoms: C_17  and  C_18
REMARK    8  A    between atoms: C_18  and  C_19
REMARK    9  A    between atoms: C_18  and  C_20
REMARK                            x       y       z     vdW  Elec       q    Type
REMARK                         _______ _______ _______ _____ _____    ______ ____
ROOT
ATOM      1  C   UNL     1       3.011   6.366  19.250  0.00  0.00    +0.000 A 
ATOM      2  N   UNL     1       2.271   6.821  20.230  0.00  0.00    +0.000 NA
ATOM      3  C   UNL     1       1.707   8.029  19.891  0.00  0.00    +0.000 A 
ATOM      4  C   UNL     1       0.873   8.774  20.736  0.00  0.00    +0.000 A 
ATOM      5  C   UNL     1       0.356   9.989  20.295  0.00  0.00    +0.000 A 
ATOM      6  C   UNL     1       0.635  10.482  19.023  0.00  0.00    +0.000 A 
ATOM      7  C   UNL     1       1.492   9.757  18.165  0.00  0.00    +0.000 A 
ATOM      8  C   UNL     1       2.015   8.518  18.623  0.00  0.00    +0.000 A 
ATOM      9  S   UNL     1       3.057   7.360  17.850  0.00  0.00    +0.000 S 
ENDROOT
BRANCH   6  10
ATOM     10  N   UNL     1       0.086  11.711  18.579  0.00  0.00    +0.000 N 
ATOM     11  C   UNL     1       0.683  12.958  18.736  0.00  0.00    +0.000 C 
ATOM     12  O   UNL     1       1.763  13.189  19.273  0.00  0.00    +0.000 OA
ATOM     13  H   UNL     1      -0.859  11.684  18.223  0.00  0.00    +0.000 HD
BRANCH  11  14
ATOM     14  C   UNL     1      -0.144  14.120  18.219  0.00  0.00    +0.000 C 
BRANCH  14  15
ATOM     15  C   UNL     1      -0.084  15.336  19.150  0.00  0.00    +0.000 C 
ATOM     16  C   UNL     1      -0.425  16.635  18.417  0.00  0.00    +0.000 C 
ATOM     17  C   UNL     1      -1.015  15.154  20.346  0.00  0.00    +0.000 C 
ENDBRANCH  14  15
ENDBRANCH  11  14
ENDBRANCH   6  10
BRANCH   1  18
ATOM     18  S   UNL     1       3.735   4.784  19.481  0.00  0.00    +0.000 S 
BRANCH  18  19
ATOM     19  C   UNL     1       5.483   4.993  19.091  0.00  0.00    +0.000 C 
BRANCH  19  24
ATOM     20  C   UNL     1       6.504   3.982  13.419  0.00  0.00    +0.000 C 
ATOM     21  C   UNL     1       6.237   4.224  14.875  0.00  0.00    +0.000 A 
ATOM     22  C   UNL     1       4.987   3.955  15.442  0.00  0.00    +0.000 A 
ATOM     23  C   UNL     1       4.756   4.201  16.800  0.00  0.00    +0.000 A 
ATOM     24  C   UNL     1       5.762   4.729  17.623  0.00  0.00    +0.000 A 
ATOM     25  C   UNL     1       7.021   4.980  17.053  0.00  0.00    +0.000 A 
ATOM     26  C   UNL     1       7.256   4.736  15.694  0.00  0.00    +0.000 A 
ENDBRANCH  19  24
ENDBRANCH  18  19
ENDBRANCH   1  18
TORSDOF 6
ENDMDL
MODEL 7
REMARK VINA RESULT:      -6.9      2.819      4.459
REMARK  Name = 
REMARK  9 active torsions:
REMARK  status: ('A' for Active; 'I' for Inactive)
REMARK    1  A    between atoms: C_1  and  C_2
REMARK    2  A    between atoms: C_5  and  C_6
REMARK    3  A    between atoms: C_6  and  S_7
REMARK    4  A    between atoms: S_7  and  C_8
REMARK    5  A    between atoms: C_13  and  N_14
REMARK    6  A    between atoms: C_15  and  C_17
REMARK    7  A    between atoms: C_17  and  C_18
REMARK    8  A    between atoms: C_18  and  C_19
REMARK    9  A    between atoms: C_18  and  C_20
REMARK                            x       y       z     vdW  Elec       q    Type
REMARK                         _______ _______ _______ _____ _____    ______ ____
ROOT
ATOM      1  C   UNL     1       3.222   4.813  19.527  0.00  0.00    +0.000 A 
ATOM      2  N   UNL     1       3.235   5.911  18.813  0.00  0.00    +0.000 NA
ATOM      3  C   UNL     1       2.409   6.861  19.368  0.00  0.00    +0.000 A 
ATOM      4  C   UNL     1       2.201   8.138  18.828  0.00  0.00    +0.000 A 
ATOM      5  C   UNL     1       1.341   9.024  19.470  0.00  0.00    +0.000 A 
ATOM      6  C   UNL     1       0.688   8.681  20.650  0.00  0.00    +0.000 A 
ATOM      7  C   UNL     1       0.866   7.391  21.199  0.00  0.00    +0.000 A 
ATOM      8  C   UNL     1       1.746   6.493  20.538  0.00  0.00    +0.000 A 
ATOM      9  S   UNL     1       2.226   4.867  20.926  0.00  0.00    +0.000 S 
ENDROOT
BRANCH   6  10
ATOM     10  N   UNL     1      -0.170   9.600  21.305  0.00  0.00    +0.000 N 
ATOM     11  C   UNL     1      -0.048  10.003  22.632  0.00  0.00    +0.000 C 
ATOM     12  O   UNL     1       0.808   9.635  23.432  0.00  0.00    +0.000 OA
ATOM     13  H   UNL     1      -0.993   9.893  20.798  0.00  0.00    +0.000 HD
BRANCH  11  14
ATOM     14  C   UNL     1      -1.133  10.954  23.101  0.00  0.00    +0.000 C 
BRANCH  14  15
ATOM     15  C   UNL     1      -1.457  12.027  22.056  0.00  0.00    +0.000 C 
ATOM     16  C   UNL     1      -2.904  12.514  22.165  0.00  0.00    +0.000 C 
ATOM     17  C   UNL     1      -0.501  13.211  22.176  0.00  0.00    +0.000 C 
ENDBRANCH  14  15
ENDBRANCH  11  14
ENDBRANCH   6  10
BRANCH   1  18
ATOM     18  S   UNL     1       4.294   3.525  19.007  0.00  0.00    +0.000 S 
BRANCH  18  19
ATOM     19  C   UNL     1       4.986   4.078  17.438  0.00  0.00    +0.000 C 
BRANCH  19  24
ATOM     20  C   UNL     1       8.545   8.666  18.163  0.00  0.00    +0.000 C 
ATOM     21  C   UNL     1       7.629   7.489  17.994  0.00  0.00    +0.000 A 
ATOM     22  C   UNL     1       7.805   6.316  18.735  0.00  0.00    +0.000 A 
ATOM     23  C   UNL     1       6.947   5.226  18.552  0.00  0.00    +0.000 A 
ATOM     24  C   UNL     1       5.898   5.277  17.621  0.00  0.00    +0.000 A 
ATOM     25  C   UNL     1       5.714   6.464  16.894  0.00  0.00    +0.000 A 
ATOM     26  C   UNL     1       6.572   7.557  17.073  0.00  0.00    +0.000 A 
ENDBRANCH  19  24
ENDBRANCH  18  19
ENDBRANCH   1  18
TORSDOF 6
ENDMDL
MODEL 8
REMARK VINA RESULT:      -6.8      2.577      4.136
REMARK  Name = 
REMARK  9 active torsions:
REMARK  status: ('A' for Active; 'I' for Inactive)
REMARK    1  A    between atoms: C_1  and  C_2
REMARK    2  A    between atoms: C_5  and  C_6
REMARK    3  A    between atoms: C_6  and  S_7
REMARK    4  A    between atoms: S_7  and  C_8
REMARK    5  A    between atoms: C_13  and  N_14
REMARK    6  A    between atoms: C_15  and  C_17
REMARK    7  A    between atoms: C_17  and  C_18
REMARK    8  A    between atoms: C_18  and  C_19
REMARK    9  A    between atoms: C_18  and  C_20
REMARK                            x       y       z     vdW  Elec       q    Type
REMARK                         _______ _______ _______ _____ _____    ______ ____
ROOT
ATOM      1  C   UNL     1       3.508   5.488  18.976  0.00  0.00    +0.000 A 
ATOM      2  N   UNL     1       3.318   6.602  18.313  0.00  0.00    +0.000 NA
ATOM      3  C   UNL     1       2.437   7.420  18.981  0.00  0.00    +0.000 A 
ATOM      4  C   UNL     1       2.024   8.678  18.518  0.00  0.00    +0.000 A 
ATOM      5  C   UNL     1       1.125   9.426  19.273  0.00  0.00    +0.000 A 
ATOM      6  C   UNL     1       0.632   8.964  20.490  0.00  0.00    +0.000 A 
ATOM      7  C   UNL     1       1.019   7.690  20.963  0.00  0.00    +0.000 A 
ATOM      8  C   UNL     1       1.937   6.933  20.187  0.00  0.00    +0.000 A 
ATOM      9  S   UNL     1       2.648   5.369  20.459  0.00  0.00    +0.000 S 
ENDROOT
BRANCH   6  10
ATOM     10  N   UNL     1      -0.268   9.745  21.258  0.00  0.00    +0.000 N 
ATOM     11  C   UNL     1      -0.131  10.019  22.616  0.00  0.00    +0.000 C 
ATOM     12  O   UNL     1       0.775   9.637  23.352  0.00  0.00    +0.000 OA
ATOM     13  H   UNL     1      -1.126  10.026  20.806  0.00  0.00    +0.000 HD
BRANCH  11  14
ATOM     14  C   UNL     1      -1.265  10.833  23.209  0.00  0.00    +0.000 C 
BRANCH  14  15
ATOM     15  C   UNL     1      -1.617  12.052  22.349  0.00  0.00    +0.000 C 
ATOM     16  C   UNL     1      -2.881  12.758  22.847  0.00  0.00    +0.000 C 
ATOM     17  C   UNL     1      -0.456  13.041  22.302  0.00  0.00    +0.000 C 
ENDBRANCH  14  15
ENDBRANCH  11  14
ENDBRANCH   6  10
BRANCH   1  18
ATOM     18  S   UNL     1       4.677   4.364  18.307  0.00  0.00    +0.000 S 
BRANCH  18  19
ATOM     19  C   UNL     1       5.859   5.381  17.404  0.00  0.00    +0.000 C 
BRANCH  19  24
ATOM     20  C   UNL     1       6.628   3.491  11.920  0.00  0.00    +0.000 C 
ATOM     21  C   UNL     1       6.435   3.992  13.321  0.00  0.00    +0.000 A 
ATOM     22  C   UNL     1       7.420   4.743  13.969  0.00  0.00    +0.000 A 
ATOM     23  C   UNL     1       7.223   5.190  15.280  0.00  0.00    +0.000 A 
ATOM     24  C   UNL     1       6.044   4.890  15.980  0.00  0.00    +0.000 A 
ATOM     25  C   UNL     1       5.050   4.152  15.318  0.00  0.00    +0.000 A 
ATOM     26  C   UNL     1       5.244   3.702  14.005  0.00  0.00    +0.000 A 
ENDBRANCH  19  24
ENDBRANCH  18  19
ENDBRANCH   1  18
TORSDOF 6
ENDMDL
MODEL 9
REMARK VINA RESULT:      -6.8      2.819     10.717
REMARK  Name = 
REMARK  9 active torsions:
REMARK  status: ('A' for Active; 'I' for Inactive)
REMARK    1  A    between atoms: C_1  and  C_2
REMARK    2  A    between atoms: C_5  and  C_6
REMARK    3  A    between atoms: C_6  and  S_7
REMARK    4  A    between atoms: S_7  and  C_8
REMARK    5  A    between atoms: C_13  and  N_14
REMARK    6  A    between atoms: C_15  and  C_17
REMARK    7  A    between atoms: C_17  and  C_18
REMARK    8  A    between atoms: C_18  and  C_19
REMARK    9  A    between atoms: C_18  and  C_20
REMARK                            x       y       z     vdW  Elec       q    Type
REMARK                         _______ _______ _______ _____ _____    ______ ____
ROOT
ATOM      1  C   UNL     1      -0.107  11.100  20.254  0.00  0.00    +0.000 A 
ATOM      2  N   UNL     1       0.186  10.119  21.071  0.00  0.00    +0.000 NA
ATOM      3  C   UNL     1       0.937   9.162  20.431  0.00  0.00    +0.000 A 
ATOM      4  C   UNL     1       1.396   7.984  21.038  0.00  0.00    +0.000 A 
ATOM      5  C   UNL     1       2.149   7.077  20.297  0.00  0.00    +0.000 A 
ATOM      6  C   UNL     1       2.474   7.316  18.965  0.00  0.00    +0.000 A 
ATOM      7  C   UNL     1       2.003   8.487  18.329  0.00  0.00    +0.000 A 
ATOM      8  C   UNL     1       1.236   9.406  19.092  0.00  0.00    +0.000 A 
ATOM      9  S   UNL     1       0.525  10.935  18.665  0.00  0.00    +0.000 S 
ENDROOT
BRANCH   6  10
ATOM     10  N   UNL     1       3.259   6.395  18.227  0.00  0.00    +0.000 N 
ATOM     11  C   UNL     1       2.826   5.148  17.785  0.00  0.00    +0.000 C 
ATOM     12  O   UNL     1       1.714   4.657  17.958  0.00  0.00    +0.000 OA
ATOM     13  H   UNL     1       4.238   6.619  18.116  0.00  0.00    +0.000 HD
BRANCH  11  14
ATOM     14  C   UNL     1       3.885   4.335  17.066  0.00  0.00    +0.000 C 
BRANCH  14  15
ATOM     15  C   UNL     1       5.145   5.154  16.768  0.00  0.00    +0.000 C 
ATOM     16  C   UNL     1       6.370   4.611  17.508  0.00  0.00    +0.000 C 
ATOM     17  C   UNL     1       5.424   5.201  15.268  0.00  0.00    +0.000 C 
ENDBRANCH  14  15
ENDBRANCH  11  14
ENDBRANCH   6  10
BRANCH   1  18
ATOM     18  S   UNL     1      -0.989  12.455  20.936  0.00  0.00    +0.000 S 
BRANCH  18  19
ATOM     19  C   UNL     1      -1.551  11.898  22.555  0.00  0.00    +0.000 C 
BRANCH  19  24
ATOM     20  C   UNL     1      -7.069  13.514  23.638  0.00  0.00    +0.000 C 
ATOM     21  C   UNL     1      -5.657  13.084  23.368  0.00  0.00    +0.000 A 
ATOM     22  C   UNL     1      -4.828  12.619  24.394  0.00  0.00    +0.000 A 
ATOM     23  C   UNL     1      -3.510  12.235  24.121  0.00  0.00    +0.000 A 
ATOM     24  C   UNL     1      -2.985  12.314  22.822  0.00  0.00    +0.000 A 
ATOM     25  C   UNL     1      -3.828  12.763  21.793  0.00  0.00    +0.000 A 
ATOM     26  C   UNL     1      -5.148  13.149  22.062  0.00  0.00    +0.000 A 
ENDBRANCH  19  24
ENDBRANCH  18  19
ENDBRANCH   1  18
TORSDOF 6
ENDMDL
