MODEL 1
REMARK VINA RESULT:      -7.2      0.000      0.000
REMARK  Name = 
REMARK  7 active torsions:
REMARK  status: ('A' for Active; 'I' for Inactive)
REMARK    1  A    between atoms: C_1  and  C_2
REMARK    2  A    between atoms: C_3  and  O_4
REMARK    3  A    between atoms: N_9  and  C_10
REMARK    4  A    between atoms: C_10  and  C_11
REMARK    5  A    between atoms: C_10  and  C_18
REMARK    6  A    between atoms: C_11  and  C_12
REMARK    7  A    between atoms: C_18  and  O_20
REMARK                            x       y       z     vdW  Elec       q    Type
REMARK                         _______ _______ _______ _____ _____    ______ ____
ROOT
ATOM      1  C   UNL     1       5.615   4.610  17.023  0.00  0.00    +0.000 C 
ENDROOT
BRANCH   1   9
ATOM      2  C   UNL     1       3.786   2.338  17.800  0.00  0.00    +0.000 C 
ATOM      3  C   UNL     1       3.577   3.723  18.376  0.00  0.00    +0.000 A 
ATOM      4  C   UNL     1       2.605   3.914  19.310  0.00  0.00    +0.000 A 
ATOM      5  C   UNL     1       2.290   5.311  19.750  0.00  0.00    +0.000 A 
ATOM      6  O   UNL     1       1.518   5.564  20.670  0.00  0.00    +0.000 OA
ATOM      7  C   UNL     1       2.938   6.411  19.014  0.00  0.00    +0.000 A 
ATOM      8  C   UNL     1       3.882   6.104  18.122  0.00  0.00    +0.000 A 
ATOM      9  N   UNL     1       4.338   4.814  17.834  0.00  0.00    +0.000 N 
BRANCH   4  10
ATOM     10  O   UNL     1       1.836   2.919  19.883  0.00  0.00    +0.000 OA
ATOM     11  H   UNL     1       2.397   2.228  20.259  0.00  0.00    +0.000 HD
ENDBRANCH   4  10
ENDBRANCH   1   9
BRANCH   1  12
ATOM     12  C   UNL     1       6.909   4.555  17.870  0.00  0.00    +0.000 C 
ATOM     13  O   UNL     1       7.013   4.884  19.045  0.00  0.00    +0.000 OA
BRANCH  12  14
ATOM     14  O   UNL     1       7.999   4.158  17.161  0.00  0.00    +0.000 OA
ATOM     15  H   UNL     1       8.605   4.899  16.959  0.00  0.00    +0.000 HD
ENDBRANCH  12  14
ENDBRANCH   1  12
BRANCH   1  16
ATOM     16  C   UNL     1       5.831   5.542  15.812  0.00  0.00    +0.000 C 
BRANCH  16  17
ATOM     17  C   UNL     1       6.212   4.920  14.492  0.00  0.00    +0.000 A 
ATOM     18  C   UNL     1       5.357   3.981  13.897  0.00  0.00    +0.000 A 
ATOM     19  C   UNL     1       5.673   3.409  12.664  0.00  0.00    +0.000 A 
ATOM     20  C   UNL     1       6.846   3.773  12.009  0.00  0.00    +0.000 A 
ATOM     21  C   UNL     1       7.693   4.719  12.578  0.00  0.00    +0.000 A 
ATOM     22  C   UNL     1       7.372   5.298  13.806  0.00  0.00    +0.000 A 
ENDBRANCH  16  17
ENDBRANCH   1  16
TORSDOF 6
ENDMDL
MODEL 2
REMARK VINA RESULT:      -7.2      0.059      1.079
REMARK  Name = 
REMARK  7 active torsions:
REMARK  status: ('A' for Active; 'I' for Inactive)
REMARK    1  A    between atoms: C_1  and  C_2
REMARK    2  A    between atoms: C_3  and  O_4
REMARK    3  A    between atoms: N_9  and  C_10
REMARK    4  A    between atoms: C_10  and  C_11
REMARK    5  A    between atoms: C_10  and  C_18
REMARK    6  A    between atoms: C_11  and  C_12
REMARK    7  A    between atoms: C_18  and  O_20
REMARK                            x       y       z     vdW  Elec       q    Type
REMARK                         _______ _______ _______ _____ _____    ______ ____
ROOT
ATOM      1  C   UNL     1       5.668   4.640  17.041  0.00  0.00    +0.000 C 
ENDROOT
BRANCH   1   9
ATOM      2  C   UNL     1       3.821   2.376  17.799  0.00  0.00    +0.000 C 
ATOM      3  C   UNL     1       3.612   3.762  18.373  0.00  0.00    +0.000 A 
ATOM      4  C   UNL     1       2.631   3.958  19.297  0.00  0.00    +0.000 A 
ATOM      5  C   UNL     1       2.319   5.357  19.733  0.00  0.00    +0.000 A 
ATOM      6  O   UNL     1       1.538   5.613  20.645  0.00  0.00    +0.000 OA
ATOM      7  C   UNL     1       2.979   6.453  19.005  0.00  0.00    +0.000 A 
ATOM      8  C   UNL     1       3.931   6.141  18.122  0.00  0.00    +0.000 A 
ATOM      9  N   UNL     1       4.384   4.850  17.839  0.00  0.00    +0.000 N 
BRANCH   4  10
ATOM     10  O   UNL     1       1.851   2.967  19.862  0.00  0.00    +0.000 OA
ATOM     11  H   UNL     1       2.202   2.093  19.647  0.00  0.00    +0.000 HD
ENDBRANCH   4  10
ENDBRANCH   1   9
BRANCH   1  12
ATOM     12  C   UNL     1       6.952   4.562  17.903  0.00  0.00    +0.000 C 
ATOM     13  O   UNL     1       7.049   4.896  19.078  0.00  0.00    +0.000 OA
BRANCH  12  14
ATOM     14  O   UNL     1       8.041   4.139  17.208  0.00  0.00    +0.000 OA
ATOM     15  H   UNL     1       8.827   4.021  17.779  0.00  0.00    +0.000 HD
ENDBRANCH  12  14
ENDBRANCH   1  12
BRANCH   1  16
ATOM     16  C   UNL     1       5.909   5.580  15.842  0.00  0.00    +0.000 C 
BRANCH  16  17
ATOM     17  C   UNL     1       6.221   4.963  14.502  0.00  0.00    +0.000 A 
ATOM     18  C   UNL     1       7.387   5.341  13.820  0.00  0.00    +0.000 A 
ATOM     19  C   UNL     1       7.711   4.768  12.590  0.00  0.00    +0.000 A 
ATOM     20  C   UNL     1       6.875   3.808  12.028  0.00  0.00    +0.000 A 
ATOM     21  C   UNL     1       5.726   3.408  12.703  0.00  0.00    +0.000 A 
ATOM     22  C   UNL     1       5.407   3.974  13.937  0.00  0.00    +0.000 A 
ENDBRANCH  16  17
ENDBRANCH   1  16
TORSDOF 6
ENDMDL
MODEL 3
REMARK VINA RESULT:      -7.1      2.171      6.190
REMARK  Name = 
REMARK  7 active torsions:
REMARK  status: ('A' for Active; 'I' for Inactive)
REMARK    1  A    between atoms: C_1  and  C_2
REMARK    2  A    between atoms: C_3  and  O_4
REMARK    3  A    between atoms: N_9  and  C_10
REMARK    4  A    between atoms: C_10  and  C_11
REMARK    5  A    between atoms: C_10  and  C_18
REMARK    6  A    between atoms: C_11  and  C_12
REMARK    7  A    between atoms: C_18  and  O_20
REMARK                            x       y       z     vdW  Elec       q    Type
REMARK                         _______ _______ _______ _____ _____    ______ ____
ROOT
ATOM      1  C   UNL     1       4.024   3.637  18.788  0.00  0.00    +0.000 C 
ENDROOT
BRANCH   1   9
ATOM      2  C   UNL     1       6.091   5.768  19.335  0.00  0.00    +0.000 C 
ATOM      3  C   UNL     1       5.988   5.133  17.964  0.00  0.00    +0.000 A 
ATOM      4  C   UNL     1       6.890   5.476  17.003  0.00  0.00    +0.000 A 
ATOM      5  C   UNL     1       6.682   4.976  15.606  0.00  0.00    +0.000 A 
ATOM      6  O   UNL     1       7.507   5.136  14.711  0.00  0.00    +0.000 OA
ATOM      7  C   UNL     1       5.415   4.282  15.321  0.00  0.00    +0.000 A 
ATOM      8  C   UNL     1       4.608   3.994  16.344  0.00  0.00    +0.000 A 
ATOM      9  N   UNL     1       4.870   4.273  17.689  0.00  0.00    +0.000 N 
BRANCH   4  10
ATOM     10  O   UNL     1       7.991   6.290  17.190  0.00  0.00    +0.000 OA
ATOM     11  H   UNL     1       8.514   5.988  17.944  0.00  0.00    +0.000 HD
ENDBRANCH   4  10
ENDBRANCH   1   9
BRANCH   1  12
ATOM     12  C   UNL     1       4.098   2.092  18.841  0.00  0.00    +0.000 C 
ATOM     13  O   UNL     1       3.378   1.317  18.224  0.00  0.00    +0.000 OA
BRANCH  12  14
ATOM     14  O   UNL     1       5.025   1.629  19.720  0.00  0.00    +0.000 OA
ATOM     15  H   UNL     1       5.937   1.688  19.369  0.00  0.00    +0.000 HD
ENDBRANCH  12  14
ENDBRANCH   1  12
BRANCH   1  16
ATOM     16  C   UNL     1       2.551   4.086  18.885  0.00  0.00    +0.000 C 
BRANCH  16  17
ATOM     17  C   UNL     1       2.264   5.534  19.194  0.00  0.00    +0.000 A 
ATOM     18  C   UNL     1       1.825   5.894  20.476  0.00  0.00    +0.000 A 
ATOM     19  C   UNL     1       1.576   7.229  20.796  0.00  0.00    +0.000 A 
ATOM     20  C   UNL     1       1.766   8.221  19.838  0.00  0.00    +0.000 A 
ATOM     21  C   UNL     1       2.221   7.880  18.569  0.00  0.00    +0.000 A 
ATOM     22  C   UNL     1       2.480   6.546  18.252  0.00  0.00    +0.000 A 
ENDBRANCH  16  17
ENDBRANCH   1  16
TORSDOF 6
ENDMDL
MODEL 4
REMARK VINA RESULT:      -7.1      2.168      6.240
REMARK  Name = 
REMARK  7 active torsions:
REMARK  status: ('A' for Active; 'I' for Inactive)
REMARK    1  A    between atoms: C_1  and  C_2
REMARK    2  A    between atoms: C_3  and  O_4
REMARK    3  A    between atoms: N_9  and  C_10
REMARK    4  A    between atoms: C_10  and  C_11
REMARK    5  A    between atoms: C_10  and  C_18
REMARK    6  A    between atoms: C_11  and  C_12
REMARK    7  A    between atoms: C_18  and  O_20
REMARK                            x       y       z     vdW  Elec       q    Type
REMARK                         _______ _______ _______ _____ _____    ______ ____
ROOT
ATOM      1  C   UNL     1       4.032   3.637  18.796  0.00  0.00    +0.000 C 
ENDROOT
BRANCH   1   9
ATOM      2  C   UNL     1       6.101   5.767  19.338  0.00  0.00    +0.000 C 
ATOM      3  C   UNL     1       5.995   5.132  17.967  0.00  0.00    +0.000 A 
ATOM      4  C   UNL     1       6.895   5.474  17.005  0.00  0.00    +0.000 A 
ATOM      5  C   UNL     1       6.684   4.974  15.608  0.00  0.00    +0.000 A 
ATOM      6  O   UNL     1       7.507   5.133  14.711  0.00  0.00    +0.000 OA
ATOM      7  C   UNL     1       5.416   4.281  15.325  0.00  0.00    +0.000 A 
ATOM      8  C   UNL     1       4.611   3.993  16.351  0.00  0.00    +0.000 A 
ATOM      9  N   UNL     1       4.876   4.272  17.694  0.00  0.00    +0.000 N 
BRANCH   4  10
ATOM     10  O   UNL     1       7.997   6.288  17.189  0.00  0.00    +0.000 OA
ATOM     11  H   UNL     1       8.263   6.695  16.354  0.00  0.00    +0.000 HD
ENDBRANCH   4  10
ENDBRANCH   1   9
BRANCH   1  12
ATOM     12  C   UNL     1       4.094   2.091  18.839  0.00  0.00    +0.000 C 
ATOM     13  O   UNL     1       3.361   1.326  18.226  0.00  0.00    +0.000 OA
BRANCH  12  14
ATOM     14  O   UNL     1       5.026   1.616  19.707  0.00  0.00    +0.000 OA
ATOM     15  H   UNL     1       5.530   0.862  19.339  0.00  0.00    +0.000 HD
ENDBRANCH  12  14
ENDBRANCH   1  12
BRANCH   1  16
ATOM     16  C   UNL     1       2.564   4.097  18.904  0.00  0.00    +0.000 C 
BRANCH  16  17
ATOM     17  C   UNL     1       2.290   5.538  19.255  0.00  0.00    +0.000 A 
ATOM     18  C   UNL     1       2.484   6.535  18.288  0.00  0.00    +0.000 A 
ATOM     19  C   UNL     1       2.215   7.873  18.579  0.00  0.00    +0.000 A 
ATOM     20  C   UNL     1       1.747   8.230  19.839  0.00  0.00    +0.000 A 
ATOM     21  C   UNL     1       1.531   7.250  20.802  0.00  0.00    +0.000 A 
ATOM     22  C   UNL     1       1.790   5.911  20.508  0.00  0.00    +0.000 A 
ENDBRANCH  16  17
ENDBRANCH   1  16
TORSDOF 6
ENDMDL
MODEL 5
REMARK VINA RESULT:      -7.1      2.624      5.990
REMARK  Name = 
REMARK  7 active torsions:
REMARK  status: ('A' for Active; 'I' for Inactive)
REMARK    1  A    between atoms: C_1  and  C_2
REMARK    2  A    between atoms: C_3  and  O_4
REMARK    3  A    between atoms: N_9  and  C_10
REMARK    4  A    between atoms: C_10  and  C_11
REMARK    5  A    between atoms: C_10  and  C_18
REMARK    6  A    between atoms: C_11  and  C_12
REMARK    7  A    between atoms: C_18  and  O_20
REMARK                            x       y       z     vdW  Elec       q    Type
REMARK                         _______ _______ _______ _____ _____    ______ ____
ROOT
ATOM      1  C   UNL     1       4.149   4.004  19.330  0.00  0.00    +0.000 C 
ENDROOT
BRANCH   1   9
ATOM      2  C   UNL     1       4.418   3.836  16.328  0.00  0.00    +0.000 C 
ATOM      3  C   UNL     1       5.309   4.763  17.128  0.00  0.00    +0.000 A 
ATOM      4  C   UNL     1       6.179   5.579  16.471  0.00  0.00    +0.000 A 
ATOM      5  C   UNL     1       7.173   6.367  17.268  0.00  0.00    +0.000 A 
ATOM      6  O   UNL     1       7.908   7.214  16.768  0.00  0.00    +0.000 OA
ATOM      7  C   UNL     1       7.261   6.078  18.709  0.00  0.00    +0.000 A 
ATOM      8  C   UNL     1       6.351   5.263  19.247  0.00  0.00    +0.000 A 
ATOM      9  N   UNL     1       5.287   4.668  18.561  0.00  0.00    +0.000 N 
BRANCH   4  10
ATOM     10  O   UNL     1       6.257   5.730  15.099  0.00  0.00    +0.000 OA
ATOM     11  H   UNL     1       6.266   4.869  14.661  0.00  0.00    +0.000 HD
ENDBRANCH   4  10
ENDBRANCH   1   9
BRANCH   1  12
ATOM     12  C   UNL     1       4.215   2.457  19.362  0.00  0.00    +0.000 C 
ATOM     13  O   UNL     1       3.417   1.694  18.832  0.00  0.00    +0.000 OA
BRANCH  12  14
ATOM     14  O   UNL     1       5.237   1.979  20.119  0.00  0.00    +0.000 OA
ATOM     15  H   UNL     1       5.476   1.059  19.887  0.00  0.00    +0.000 HD
ENDBRANCH  12  14
ENDBRANCH   1  12
BRANCH   1  16
ATOM     16  C   UNL     1       2.715   4.452  18.981  0.00  0.00    +0.000 C 
BRANCH  16  17
ATOM     17  C   UNL     1       2.346   5.898  19.194  0.00  0.00    +0.000 A 
ATOM     18  C   UNL     1       1.884   6.317  20.451  0.00  0.00    +0.000 A 
ATOM     19  C   UNL     1       1.560   7.655  20.682  0.00  0.00    +0.000 A 
ATOM     20  C   UNL     1       1.696   8.590  19.661  0.00  0.00    +0.000 A 
ATOM     21  C   UNL     1       2.172   8.192  18.416  0.00  0.00    +0.000 A 
ATOM     22  C   UNL     1       2.506   6.857  18.188  0.00  0.00    +0.000 A 
ENDBRANCH  16  17
ENDBRANCH   1  16
TORSDOF 6
ENDMDL
MODEL 6
REMARK VINA RESULT:      -7.1      2.638      6.040
REMARK  Name = 
REMARK  7 active torsions:
REMARK  status: ('A' for Active; 'I' for Inactive)
REMARK    1  A    between atoms: C_1  and  C_2
REMARK    2  A    between atoms: C_3  and  O_4
REMARK    3  A    between atoms: N_9  and  C_10
REMARK    4  A    between atoms: C_10  and  C_11
REMARK    5  A    between atoms: C_10  and  C_18
REMARK    6  A    between atoms: C_11  and  C_12
REMARK    7  A    between atoms: C_18  and  O_20
REMARK                            x       y       z     vdW  Elec       q    Type
REMARK                         _______ _______ _______ _____ _____    ______ ____
ROOT
ATOM      1  C   UNL     1       4.196   3.975  19.358  0.00  0.00    +0.000 C 
ENDROOT
BRANCH   1   9
ATOM      2  C   UNL     1       4.417   3.818  16.352  0.00  0.00    +0.000 C 
ATOM      3  C   UNL     1       5.314   4.751  17.140  0.00  0.00    +0.000 A 
ATOM      4  C   UNL     1       6.165   5.576  16.471  0.00  0.00    +0.000 A 
ATOM      5  C   UNL     1       7.165   6.370  17.255  0.00  0.00    +0.000 A 
ATOM      6  O   UNL     1       7.885   7.225  16.746  0.00  0.00    +0.000 OA
ATOM      7  C   UNL     1       7.280   6.077  18.693  0.00  0.00    +0.000 A 
ATOM      8  C   UNL     1       6.385   5.253  19.244  0.00  0.00    +0.000 A 
ATOM      9  N   UNL     1       5.316   4.651  18.573  0.00  0.00    +0.000 N 
BRANCH   4  10
ATOM     10  O   UNL     1       6.220   5.732  15.099  0.00  0.00    +0.000 OA
ATOM     11  H   UNL     1       6.028   4.897  14.653  0.00  0.00    +0.000 HD
ENDBRANCH   4  10
ENDBRANCH   1   9
BRANCH   1  12
ATOM     12  C   UNL     1       4.258   2.428  19.359  0.00  0.00    +0.000 C 
ATOM     13  O   UNL     1       3.486   1.678  18.774  0.00  0.00    +0.000 OA
BRANCH  12  14
ATOM     14  O   UNL     1       5.242   1.931  20.155  0.00  0.00    +0.000 OA
ATOM     15  H   UNL     1       5.336   0.961  20.072  0.00  0.00    +0.000 HD
ENDBRANCH  12  14
ENDBRANCH   1  12
BRANCH   1  16
ATOM     16  C   UNL     1       2.754   4.432  19.055  0.00  0.00    +0.000 C 
BRANCH  16  17
ATOM     17  C   UNL     1       2.395   5.876  19.304  0.00  0.00    +0.000 A 
ATOM     18  C   UNL     1       2.519   6.810  18.265  0.00  0.00    +0.000 A 
ATOM     19  C   UNL     1       2.170   8.146  18.462  0.00  0.00    +0.000 A 
ATOM     20  C   UNL     1       1.690   8.565  19.700  0.00  0.00    +0.000 A 
ATOM     21  C   UNL     1       1.543   7.645  20.733  0.00  0.00    +0.000 A 
ATOM     22  C   UNL     1       1.882   6.307  20.533  0.00  0.00    +0.000 A 
ENDBRANCH  16  17
ENDBRANCH   1  16
TORSDOF 6
ENDMDL
MODEL 7
REMARK VINA RESULT:      -6.8      1.209      1.718
REMARK  Name = 
REMARK  7 active torsions:
REMARK  status: ('A' for Active; 'I' for Inactive)
REMARK    1  A    between atoms: C_1  and  C_2
REMARK    2  A    between atoms: C_3  and  O_4
REMARK    3  A    between atoms: N_9  and  C_10
REMARK    4  A    between atoms: C_10  and  C_11
REMARK    5  A    between atoms: C_10  and  C_18
REMARK    6  A    between atoms: C_11  and  C_12
REMARK    7  A    between atoms: C_18  and  O_20
REMARK                            x       y       z     vdW  Elec       q    Type
REMARK                         _______ _______ _______ _____ _____    ______ ____
ROOT
ATOM      1  C   UNL     1       6.243   5.186  17.073  0.00  0.00    +0.000 C 
ENDROOT
BRANCH   1   9
ATOM      2  C   UNL     1       4.810   3.622  19.221  0.00  0.00    +0.000 C 
ATOM      3  C   UNL     1       4.369   5.029  18.872  0.00  0.00    +0.000 A 
ATOM      4  C   UNL     1       3.370   5.610  19.593  0.00  0.00    +0.000 A 
ATOM      5  C   UNL     1       2.825   6.929  19.138  0.00  0.00    +0.000 A 
ATOM      6  O   UNL     1       2.014   7.578  19.793  0.00  0.00    +0.000 OA
ATOM      7  C   UNL     1       3.288   7.436  17.835  0.00  0.00    +0.000 A 
ATOM      8  C   UNL     1       4.277   6.785  17.219  0.00  0.00    +0.000 A 
ATOM      9  N   UNL     1       4.943   5.661  17.717  0.00  0.00    +0.000 N 
BRANCH   4  10
ATOM     10  O   UNL     1       2.772   5.071  20.716  0.00  0.00    +0.000 OA
ATOM     11  H   UNL     1       1.907   4.701  20.497  0.00  0.00    +0.000 HD
ENDBRANCH   4  10
ENDBRANCH   1   9
BRANCH   1  12
ATOM     12  C   UNL     1       7.463   5.176  18.026  0.00  0.00    +0.000 C 
ATOM     13  O   UNL     1       7.836   6.110  18.725  0.00  0.00    +0.000 OA
BRANCH  12  14
ATOM     14  O   UNL     1       8.171   4.017  17.979  0.00  0.00    +0.000 OA
ATOM     15  H   UNL     1       9.127   4.168  17.833  0.00  0.00    +0.000 HD
ENDBRANCH  12  14
ENDBRANCH   1  12
BRANCH   1  16
ATOM     16  C   UNL     1       6.640   5.841  15.734  0.00  0.00    +0.000 C 
BRANCH  16  17
ATOM     17  C   UNL     1       6.501   5.027  14.472  0.00  0.00    +0.000 A 
ATOM     18  C   UNL     1       7.504   5.090  13.494  0.00  0.00    +0.000 A 
ATOM     19  C   UNL     1       7.412   4.329  12.328  0.00  0.00    +0.000 A 
ATOM     20  C   UNL     1       6.317   3.493  12.128  0.00  0.00    +0.000 A 
ATOM     21  C   UNL     1       5.325   3.405  13.099  0.00  0.00    +0.000 A 
ATOM     22  C   UNL     1       5.423   4.159  14.269  0.00  0.00    +0.000 A 
ENDBRANCH  16  17
ENDBRANCH   1  16
TORSDOF 6
ENDMDL
MODEL 8
REMARK VINA RESULT:      -6.7      2.161      6.283
REMARK  Name = 
REMARK  7 active torsions:
REMARK  status: ('A' for Active; 'I' for Inactive)
REMARK    1  A    between atoms: C_1  and  C_2
REMARK    2  A    between atoms: C_3  and  O_4
REMARK    3  A    between atoms: N_9  and  C_10
REMARK    4  A    between atoms: C_10  and  C_11
REMARK    5  A    between atoms: C_10  and  C_18
REMARK    6  A    between atoms: C_11  and  C_12
REMARK    7  A    between atoms: C_18  and  O_20
REMARK                            x       y       z     vdW  Elec       q    Type
REMARK                         _______ _______ _______ _____ _____    ______ ____
ROOT
ATOM      1  C   UNL     1       5.060   5.564  18.349  0.00  0.00    +0.000 C 
ENDROOT
BRANCH   1   9
ATOM      2  C   UNL     1       7.314   6.882  16.834  0.00  0.00    +0.000 C 
ATOM      3  C   UNL     1       6.553   5.723  16.223  0.00  0.00    +0.000 A 
ATOM      4  C   UNL     1       6.948   5.230  15.017  0.00  0.00    +0.000 A 
ATOM      5  C   UNL     1       6.094   4.201  14.343  0.00  0.00    +0.000 A 
ATOM      6  O   UNL     1       6.436   3.618  13.318  0.00  0.00    +0.000 OA
ATOM      7  C   UNL     1       4.784   3.911  14.948  0.00  0.00    +0.000 A 
ATOM      8  C   UNL     1       4.505   4.449  16.138  0.00  0.00    +0.000 A 
ATOM      9  N   UNL     1       5.367   5.256  16.886  0.00  0.00    +0.000 N 
BRANCH   4  10
ATOM     10  O   UNL     1       8.076   5.622  14.321  0.00  0.00    +0.000 OA
ATOM     11  H   UNL     1       8.867   5.513  14.864  0.00  0.00    +0.000 HD
ENDBRANCH   4  10
ENDBRANCH   1   9
BRANCH   1  12
ATOM     12  C   UNL     1       5.918   4.771  19.364  0.00  0.00    +0.000 C 
ATOM     13  O   UNL     1       6.873   5.209  19.994  0.00  0.00    +0.000 OA
BRANCH  12  14
ATOM     14  O   UNL     1       5.561   3.463  19.462  0.00  0.00    +0.000 OA
ATOM     15  H   UNL     1       4.812   3.324  20.075  0.00  0.00    +0.000 HD
ENDBRANCH  12  14
ENDBRANCH   1  12
BRANCH   1  16
ATOM     16  C   UNL     1       3.579   5.517  18.778  0.00  0.00    +0.000 C 
BRANCH  16  17
ATOM     17  C   UNL     1       2.823   6.818  18.878  0.00  0.00    +0.000 A 
ATOM     18  C   UNL     1       2.740   7.659  17.758  0.00  0.00    +0.000 A 
ATOM     19  C   UNL     1       2.026   8.856  17.816  0.00  0.00    +0.000 A 
ATOM     20  C   UNL     1       1.383   9.226  18.993  0.00  0.00    +0.000 A 
ATOM     21  C   UNL     1       1.438   8.391  20.105  0.00  0.00    +0.000 A 
ATOM     22  C   UNL     1       2.144   7.190  20.044  0.00  0.00    +0.000 A 
ENDBRANCH  16  17
ENDBRANCH   1  16
TORSDOF 6
ENDMDL
MODEL 9
REMARK VINA RESULT:      -6.6      2.223      6.837
REMARK  Name = 
REMARK  7 active torsions:
REMARK  status: ('A' for Active; 'I' for Inactive)
REMARK    1  A    between atoms: C_1  and  C_2
REMARK    2  A    between atoms: C_3  and  O_4
REMARK    3  A    between atoms: N_9  and  C_10
REMARK    4  A    between atoms: C_10  and  C_11
REMARK    5  A    between atoms: C_10  and  C_18
REMARK    6  A    between atoms: C_11  and  C_12
REMARK    7  A    between atoms: C_18  and  O_20
REMARK                            x       y       z     vdW  Elec       q    Type
REMARK                         _______ _______ _______ _____ _____    ______ ____
ROOT
ATOM      1  C   UNL     1       3.465   6.078  18.259  0.00  0.00    +0.000 C 
ENDROOT
BRANCH   1   9
ATOM      2  C   UNL     1       6.043   5.077  19.470  0.00  0.00    +0.000 C 
ATOM      3  C   UNL     1       5.900   5.206  17.968  0.00  0.00    +0.000 A 
ATOM      4  C   UNL     1       6.919   4.791  17.166  0.00  0.00    +0.000 A 
ATOM      5  C   UNL     1       6.843   5.075  15.697  0.00  0.00    +0.000 A 
ATOM      6  O   UNL     1       7.655   4.632  14.888  0.00  0.00    +0.000 OA
ATOM      7  C   UNL     1       5.747   5.943  15.234  0.00  0.00    +0.000 A 
ATOM      8  C   UNL     1       4.800   6.285  16.110  0.00  0.00    +0.000 A 
ATOM      9  N   UNL     1       4.738   5.869  17.443  0.00  0.00    +0.000 N 
BRANCH   4  10
ATOM     10  O   UNL     1       8.063   4.143  17.592  0.00  0.00    +0.000 OA
ATOM     11  H   UNL     1       8.440   3.613  16.878  0.00  0.00    +0.000 HD
ENDBRANCH   4  10
ENDBRANCH   1   9
BRANCH   1  12
ATOM     12  C   UNL     1       2.580   4.815  18.397  0.00  0.00    +0.000 C 
ATOM     13  O   UNL     1       1.815   4.379  17.546  0.00  0.00    +0.000 OA
BRANCH  12  14
ATOM     14  O   UNL     1       2.663   4.232  19.622  0.00  0.00    +0.000 OA
ATOM     15  H   UNL     1       1.785   4.014  19.993  0.00  0.00    +0.000 HD
ENDBRANCH  12  14
ENDBRANCH   1  12
BRANCH   1  16
ATOM     16  C   UNL     1       2.584   7.287  17.883  0.00  0.00    +0.000 C 
BRANCH  16  17
ATOM     17  C   UNL     1       1.973   8.099  18.998  0.00  0.00    +0.000 A 
ATOM     18  C   UNL     1       1.418   9.356  18.715  0.00  0.00    +0.000 A 
ATOM     19  C   UNL     1       0.825  10.117  19.723  0.00  0.00    +0.000 A 
ATOM     20  C   UNL     1       0.776   9.629  21.025  0.00  0.00    +0.000 A 
ATOM     21  C   UNL     1       1.304   8.375  21.316  0.00  0.00    +0.000 A 
ATOM     22  C   UNL     1       1.889   7.610  20.306  0.00  0.00    +0.000 A 
ENDBRANCH  16  17
ENDBRANCH   1  16
TORSDOF 6
ENDMDL
