MODEL 1
REMARK VINA RESULT:      -8.1      0.000      0.000
REMARK  Name = 
REMARK  8 active torsions:
REMARK  status: ('A' for Active; 'I' for Inactive)
REMARK    1  A    between atoms: N_3  and  C_4
REMARK    2  A    between atoms: C_4  and  C_5
REMARK    3  A    between atoms: C_5  and  C_6
REMARK    4  A    between atoms: C_6  and  N_7
REMARK    5  A    between atoms: C_10  and  C_11
REMARK    6  A    between atoms: C_11  and  C_12
REMARK    7  A    between atoms: N_21  and  C_22
REMARK    8  A    between atoms: C_27  and  N_28
REMARK                            x       y       z     vdW  Elec       q    Type
REMARK                         _______ _______ _______ _____ _____    ______ ____
ROOT
ATOM      1  C   UNL     1       2.121   3.347  21.469  0.00  0.00    +0.000 C 
ENDROOT
BRANCH   1   4
ATOM      2  O   UNL     1       1.162   5.148  19.593  0.00  0.00    +0.000 OA
ATOM      3  C   UNL     1       1.904   5.579  20.466  0.00  0.00    +0.000 C 
ATOM      4  N   UNL     1       2.470   4.759  21.421  0.00  0.00    +0.000 N 
ATOM      5  N   UNL     1       2.298   6.889  20.630  0.00  0.00    +0.000 N 
ATOM      6  H   UNL     1       2.731   5.195  22.293  0.00  0.00    +0.000 HD
ATOM      7  H   UNL     1       3.156   7.018  21.163  0.00  0.00    +0.000 HD
BRANCH   5   8
ATOM      8  C   UNL     1       1.821   8.022  19.913  0.00  0.00    +0.000 A 
ATOM      9  C   UNL     1       2.118   8.176  18.550  0.00  0.00    +0.000 A 
ATOM     10  C   UNL     1       1.639   9.263  17.811  0.00  0.00    +0.000 A 
ATOM     11  C   UNL     1       0.832  10.220  18.413  0.00  0.00    +0.000 A 
ATOM     12  C   UNL     1       0.512  10.096  19.762  0.00  0.00    +0.000 A 
ATOM     13  C   UNL     1       1.003   9.007  20.515  0.00  0.00    +0.000 A 
BRANCH  13  14
ATOM     14  N   UNL     1       0.649   8.964  21.942  0.00  0.00    +0.000 N 
ATOM     15  O   UNL     1      -0.506   8.630  22.251  0.00  0.00    +0.000 OA
ATOM     16  O   UNL     1       1.524   9.265  22.766  0.00  0.00    +0.000 OA
ENDBRANCH  13  14
ENDBRANCH   5   8
ENDBRANCH   1   4
BRANCH   1  17
ATOM     17  C   UNL     1       3.325   2.469  21.132  0.00  0.00    +0.000 C 
BRANCH  17  18
ATOM     18  C   UNL     1       3.546   2.356  19.618  0.00  0.00    +0.000 C 
BRANCH  18  19
ATOM     19  N   UNL     1       3.897   3.646  18.985  0.00  0.00    +0.000 NA
ATOM     20  C   UNL     1       5.261   4.070  19.346  0.00  0.00    +0.000 C 
ATOM     21  C   UNL     1       5.662   5.372  18.656  0.00  0.00    +0.000 C 
ATOM     22  C   UNL     1       5.570   5.263  17.132  0.00  0.00    +0.000 C 
ATOM     23  C   UNL     1       4.134   4.835  16.789  0.00  0.00    +0.000 C 
ATOM     24  C   UNL     1       3.714   3.555  17.525  0.00  0.00    +0.000 C 
BRANCH  22  25
ATOM     25  C   UNL     1       6.598   4.288  16.511  0.00  0.00    +0.000 C 
BRANCH  25  26
ATOM     26  C   UNL     1       6.777   4.399  15.014  0.00  0.00    +0.000 A 
ATOM     27  C   UNL     1       7.697   5.316  14.480  0.00  0.00    +0.000 A 
ATOM     28  C   UNL     1       7.888   5.409  13.101  0.00  0.00    +0.000 A 
ATOM     29  C   UNL     1       7.161   4.583  12.254  0.00  0.00    +0.000 A 
ATOM     30  F   UNL     1       7.346   4.668  10.930  0.00  0.00    +0.000 F 
ATOM     31  C   UNL     1       6.248   3.666  12.761  0.00  0.00    +0.000 A 
ATOM     32  C   UNL     1       6.057   3.571  14.141  0.00  0.00    +0.000 A 
ENDBRANCH  25  26
ENDBRANCH  22  25
ENDBRANCH  18  19
ENDBRANCH  17  18
ENDBRANCH   1  17
TORSDOF 8
ENDMDL
MODEL 2
REMARK VINA RESULT:      -7.6      3.508      6.080
REMARK  Name = 
REMARK  8 active torsions:
REMARK  status: ('A' for Active; 'I' for Inactive)
REMARK    1  A    between atoms: N_3  and  C_4
REMARK    2  A    between atoms: C_4  and  C_5
REMARK    3  A    between atoms: C_5  and  C_6
REMARK    4  A    between atoms: C_6  and  N_7
REMARK    5  A    between atoms: C_10  and  C_11
REMARK    6  A    between atoms: C_11  and  C_12
REMARK    7  A    between atoms: N_21  and  C_22
REMARK    8  A    between atoms: C_27  and  N_28
REMARK                            x       y       z     vdW  Elec       q    Type
REMARK                         _______ _______ _______ _____ _____    ______ ____
ROOT
ATOM      1  C   UNL     1       1.503   9.207  17.775  0.00  0.00    +0.000 C 
ENDROOT
BRANCH   1   4
ATOM      2  O   UNL     1      -0.819  10.134  18.972  0.00  0.00    +0.000 OA
ATOM      3  C   UNL     1       0.249  10.498  19.448  0.00  0.00    +0.000 C 
ATOM      4  N   UNL     1       1.461  10.129  18.899  0.00  0.00    +0.000 N 
ATOM      5  N   UNL     1       0.420  11.312  20.545  0.00  0.00    +0.000 N 
ATOM      6  H   UNL     1       2.256  10.127  19.522  0.00  0.00    +0.000 HD
ATOM      7  H   UNL     1       1.320  11.787  20.595  0.00  0.00    +0.000 HD
BRANCH   5   8
ATOM      8  C   UNL     1      -0.593  11.781  21.429  0.00  0.00    +0.000 A 
ATOM      9  C   UNL     1      -1.240  13.002  21.182  0.00  0.00    +0.000 A 
ATOM     10  C   UNL     1      -2.260  13.474  22.016  0.00  0.00    +0.000 A 
ATOM     11  C   UNL     1      -2.674  12.728  23.112  0.00  0.00    +0.000 A 
ATOM     12  C   UNL     1      -2.057  11.509  23.383  0.00  0.00    +0.000 A 
ATOM     13  C   UNL     1      -1.020  11.034  22.552  0.00  0.00    +0.000 A 
BRANCH  13  14
ATOM     14  N   UNL     1      -0.395   9.755  22.923  0.00  0.00    +0.000 N 
ATOM     15  O   UNL     1       0.371   9.737  23.900  0.00  0.00    +0.000 OA
ATOM     16  O   UNL     1      -0.664   8.758  22.239  0.00  0.00    +0.000 OA
ENDBRANCH  13  14
ENDBRANCH   5   8
ENDBRANCH   1   4
BRANCH   1  17
ATOM     17  C   UNL     1       2.365   7.987  18.093  0.00  0.00    +0.000 C 
BRANCH  17  18
ATOM     18  C   UNL     1       3.549   7.854  17.127  0.00  0.00    +0.000 C 
BRANCH  18  19
ATOM     19  N   UNL     1       4.541   6.845  17.561  0.00  0.00    +0.000 NA
ATOM     20  C   UNL     1       4.133   6.195  18.819  0.00  0.00    +0.000 C 
ATOM     21  C   UNL     1       5.116   5.110  19.254  0.00  0.00    +0.000 C 
ATOM     22  C   UNL     1       5.289   4.033  18.180  0.00  0.00    +0.000 C 
ATOM     23  C   UNL     1       5.729   4.741  16.888  0.00  0.00    +0.000 C 
ATOM     24  C   UNL     1       4.768   5.867  16.482  0.00  0.00    +0.000 C 
BRANCH  22  25
ATOM     25  C   UNL     1       4.021   3.182  17.936  0.00  0.00    +0.000 C 
BRANCH  25  26
ATOM     26  C   UNL     1       3.122   2.997  19.138  0.00  0.00    +0.000 A 
ATOM     27  C   UNL     1       3.641   2.470  20.332  0.00  0.00    +0.000 A 
ATOM     28  C   UNL     1       2.826   2.318  21.455  0.00  0.00    +0.000 A 
ATOM     29  C   UNL     1       1.492   2.695  21.386  0.00  0.00    +0.000 A 
ATOM     30  F   UNL     1       0.709   2.553  22.463  0.00  0.00    +0.000 F 
ATOM     31  C   UNL     1       0.958   3.221  20.215  0.00  0.00    +0.000 A 
ATOM     32  C   UNL     1       1.772   3.375  19.091  0.00  0.00    +0.000 A 
ENDBRANCH  25  26
ENDBRANCH  22  25
ENDBRANCH  18  19
ENDBRANCH  17  18
ENDBRANCH   1  17
TORSDOF 8
ENDMDL
MODEL 3
REMARK VINA RESULT:      -7.5      6.993      8.406
REMARK  Name = 
REMARK  8 active torsions:
REMARK  status: ('A' for Active; 'I' for Inactive)
REMARK    1  A    between atoms: N_3  and  C_4
REMARK    2  A    between atoms: C_4  and  C_5
REMARK    3  A    between atoms: C_5  and  C_6
REMARK    4  A    between atoms: C_6  and  N_7
REMARK    5  A    between atoms: C_10  and  C_11
REMARK    6  A    between atoms: C_11  and  C_12
REMARK    7  A    between atoms: N_21  and  C_22
REMARK    8  A    between atoms: C_27  and  N_28
REMARK                            x       y       z     vdW  Elec       q    Type
REMARK                         _______ _______ _______ _____ _____    ______ ____
ROOT
ATOM      1  C   UNL     1       9.198   9.446  18.861  0.00  0.00    +0.000 C 
ENDROOT
BRANCH   1   4
ATOM      2  O   UNL     1      10.341  11.794  17.932  0.00  0.00    +0.000 OA
ATOM      3  C   UNL     1       9.523  11.881  18.840  0.00  0.00    +0.000 C 
ATOM      4  N   UNL     1       8.930  10.769  19.403  0.00  0.00    +0.000 N 
ATOM      5  N   UNL     1       9.087  13.042  19.439  0.00  0.00    +0.000 N 
ATOM      6  H   UNL     1       8.030  10.911  19.839  0.00  0.00    +0.000 HD
ATOM      7  H   UNL     1       8.693  12.925  20.371  0.00  0.00    +0.000 HD
BRANCH   5   8
ATOM      8  C   UNL     1       9.388  14.375  19.041  0.00  0.00    +0.000 A 
ATOM      9  C   UNL     1      10.621  14.954  19.376  0.00  0.00    +0.000 A 
ATOM     10  C   UNL     1      10.957  16.252  18.973  0.00  0.00    +0.000 A 
ATOM     11  C   UNL     1      10.073  17.001  18.208  0.00  0.00    +0.000 A 
ATOM     12  C   UNL     1       8.843  16.455  17.853  0.00  0.00    +0.000 A 
ATOM     13  C   UNL     1       8.494  15.151  18.267  0.00  0.00    +0.000 A 
BRANCH  13  14
ATOM     14  N   UNL     1       7.163  14.658  17.881  0.00  0.00    +0.000 N 
ATOM     15  O   UNL     1       7.090  13.571  17.283  0.00  0.00    +0.000 OA
ATOM     16  O   UNL     1       6.180  15.353  18.171  0.00  0.00    +0.000 OA
ENDBRANCH  13  14
ENDBRANCH   5   8
ENDBRANCH   1   4
BRANCH   1  17
ATOM     17  C   UNL     1       8.068   8.985  17.942  0.00  0.00    +0.000 C 
BRANCH  17  18
ATOM     18  C   UNL     1       7.863   7.466  18.001  0.00  0.00    +0.000 C 
BRANCH  18  19
ATOM     19  N   UNL     1       6.937   6.965  16.962  0.00  0.00    +0.000 NA
ATOM     20  C   UNL     1       7.389   5.673  16.416  0.00  0.00    +0.000 C 
ATOM     21  C   UNL     1       6.415   5.112  15.382  0.00  0.00    +0.000 C 
ATOM     22  C   UNL     1       5.008   4.935  15.959  0.00  0.00    +0.000 C 
ATOM     23  C   UNL     1       4.562   6.300  16.505  0.00  0.00    +0.000 C 
ATOM     24  C   UNL     1       5.569   6.888  17.504  0.00  0.00    +0.000 C 
BRANCH  22  25
ATOM     25  C   UNL     1       4.914   3.846  17.054  0.00  0.00    +0.000 C 
BRANCH  25  26
ATOM     26  C   UNL     1       3.694   3.924  17.944  0.00  0.00    +0.000 A 
ATOM     27  C   UNL     1       2.417   3.681  17.411  0.00  0.00    +0.000 A 
ATOM     28  C   UNL     1       1.286   3.725  18.229  0.00  0.00    +0.000 A 
ATOM     29  C   UNL     1       1.432   4.011  19.580  0.00  0.00    +0.000 A 
ATOM     30  F   UNL     1       0.349   4.050  20.366  0.00  0.00    +0.000 F 
ATOM     31  C   UNL     1       2.687   4.252  20.128  0.00  0.00    +0.000 A 
ATOM     32  C   UNL     1       3.818   4.206  19.312  0.00  0.00    +0.000 A 
ENDBRANCH  25  26
ENDBRANCH  22  25
ENDBRANCH  18  19
ENDBRANCH  17  18
ENDBRANCH   1  17
TORSDOF 8
ENDMDL
MODEL 4
REMARK VINA RESULT:      -7.5      3.810      7.656
REMARK  Name = 
REMARK  8 active torsions:
REMARK  status: ('A' for Active; 'I' for Inactive)
REMARK    1  A    between atoms: N_3  and  C_4
REMARK    2  A    between atoms: C_4  and  C_5
REMARK    3  A    between atoms: C_5  and  C_6
REMARK    4  A    between atoms: C_6  and  N_7
REMARK    5  A    between atoms: C_10  and  C_11
REMARK    6  A    between atoms: C_11  and  C_12
REMARK    7  A    between atoms: N_21  and  C_22
REMARK    8  A    between atoms: C_27  and  N_28
REMARK                            x       y       z     vdW  Elec       q    Type
REMARK                         _______ _______ _______ _____ _____    ______ ____
ROOT
ATOM      1  C   UNL     1       2.780   2.386  20.634  0.00  0.00    +0.000 C 
ENDROOT
BRANCH   1   4
ATOM      2  O   UNL     1       3.763   2.299  18.043  0.00  0.00    +0.000 OA
ATOM      3  C   UNL     1       4.279   3.094  18.820  0.00  0.00    +0.000 C 
ATOM      4  N   UNL     1       3.893   3.185  20.142  0.00  0.00    +0.000 N 
ATOM      5  N   UNL     1       5.294   3.978  18.529  0.00  0.00    +0.000 N 
ATOM      6  H   UNL     1       4.059   4.069  20.600  0.00  0.00    +0.000 HD
ATOM      7  H   UNL     1       5.826   4.303  19.334  0.00  0.00    +0.000 HD
BRANCH   5   8
ATOM      8  C   UNL     1       5.853   4.248  17.249  0.00  0.00    +0.000 A 
ATOM      9  C   UNL     1       5.274   3.702  16.093  0.00  0.00    +0.000 A 
ATOM     10  C   UNL     1       5.783   3.973  14.818  0.00  0.00    +0.000 A 
ATOM     11  C   UNL     1       6.878   4.814  14.663  0.00  0.00    +0.000 A 
ATOM     12  C   UNL     1       7.473   5.377  15.788  0.00  0.00    +0.000 A 
ATOM     13  C   UNL     1       6.971   5.098  17.077  0.00  0.00    +0.000 A 
BRANCH  13  14
ATOM     14  N   UNL     1       7.675   5.703  18.218  0.00  0.00    +0.000 N 
ATOM     15  O   UNL     1       7.818   6.937  18.232  0.00  0.00    +0.000 OA
ATOM     16  O   UNL     1       8.091   4.950  19.108  0.00  0.00    +0.000 OA
ENDBRANCH  13  14
ENDBRANCH   5   8
ENDBRANCH   1   4
BRANCH   1  17
ATOM     17  C   UNL     1       1.642   3.274  21.132  0.00  0.00    +0.000 C 
BRANCH  17  18
ATOM     18  C   UNL     1       1.095   4.183  20.024  0.00  0.00    +0.000 C 
BRANCH  18  19
ATOM     19  N   UNL     1       1.908   5.402  19.821  0.00  0.00    +0.000 NA
ATOM     20  C   UNL     1       2.111   5.683  18.389  0.00  0.00    +0.000 C 
ATOM     21  C   UNL     1       2.899   6.970  18.159  0.00  0.00    +0.000 C 
ATOM     22  C   UNL     1       2.219   8.181  18.804  0.00  0.00    +0.000 C 
ATOM     23  C   UNL     1       2.036   7.862  20.297  0.00  0.00    +0.000 C 
ATOM     24  C   UNL     1       1.290   6.540  20.526  0.00  0.00    +0.000 C 
BRANCH  22  25
ATOM     25  C   UNL     1       0.867   8.558  18.153  0.00  0.00    +0.000 C 
BRANCH  25  26
ATOM     26  C   UNL     1       0.449  10.002  18.315  0.00  0.00    +0.000 A 
ATOM     27  C   UNL     1       1.406  10.983  18.623  0.00  0.00    +0.000 A 
ATOM     28  C   UNL     1       1.035  12.322  18.751  0.00  0.00    +0.000 A 
ATOM     29  C   UNL     1      -0.294  12.683  18.568  0.00  0.00    +0.000 A 
ATOM     30  F   UNL     1      -0.651  13.968  18.687  0.00  0.00    +0.000 F 
ATOM     31  C   UNL     1      -1.257  11.729  18.260  0.00  0.00    +0.000 A 
ATOM     32  C   UNL     1      -0.887  10.389  18.131  0.00  0.00    +0.000 A 
ENDBRANCH  25  26
ENDBRANCH  22  25
ENDBRANCH  18  19
ENDBRANCH  17  18
ENDBRANCH   1  17
TORSDOF 8
ENDMDL
MODEL 5
REMARK VINA RESULT:      -7.4      6.931      8.712
REMARK  Name = 
REMARK  8 active torsions:
REMARK  status: ('A' for Active; 'I' for Inactive)
REMARK    1  A    between atoms: N_3  and  C_4
REMARK    2  A    between atoms: C_4  and  C_5
REMARK    3  A    between atoms: C_5  and  C_6
REMARK    4  A    between atoms: C_6  and  N_7
REMARK    5  A    between atoms: C_10  and  C_11
REMARK    6  A    between atoms: C_11  and  C_12
REMARK    7  A    between atoms: N_21  and  C_22
REMARK    8  A    between atoms: C_27  and  N_28
REMARK                            x       y       z     vdW  Elec       q    Type
REMARK                         _______ _______ _______ _____ _____    ______ ____
ROOT
ATOM      1  C   UNL     1       8.566   8.800  18.610  0.00  0.00    +0.000 C 
ENDROOT
BRANCH   1   4
ATOM      2  O   UNL     1      10.503  10.733  19.057  0.00  0.00    +0.000 OA
ATOM      3  C   UNL     1       9.525  11.052  18.392  0.00  0.00    +0.000 C 
ATOM      4  N   UNL     1       8.485  10.178  18.149  0.00  0.00    +0.000 N 
ATOM      5  N   UNL     1       9.295  12.281  17.814  0.00  0.00    +0.000 N 
ATOM      6  H   UNL     1       7.935  10.351  17.319  0.00  0.00    +0.000 HD
ATOM      7  H   UNL     1       8.319  12.484  17.605  0.00  0.00    +0.000 HD
BRANCH   5   8
ATOM      8  C   UNL     1      10.198  13.379  17.752  0.00  0.00    +0.000 A 
ATOM      9  C   UNL     1      11.435  13.246  17.102  0.00  0.00    +0.000 A 
ATOM     10  C   UNL     1      12.331  14.316  16.999  0.00  0.00    +0.000 A 
ATOM     11  C   UNL     1      12.005  15.558  17.530  0.00  0.00    +0.000 A 
ATOM     12  C   UNL     1      10.784  15.727  18.177  0.00  0.00    +0.000 A 
ATOM     13  C   UNL     1       9.882  14.647  18.294  0.00  0.00    +0.000 A 
BRANCH  13  14
ATOM     14  N   UNL     1       8.628  14.896  19.021  0.00  0.00    +0.000 N 
ATOM     15  O   UNL     1       7.714  14.061  18.919  0.00  0.00    +0.000 OA
ATOM     16  O   UNL     1       8.545  15.930  19.697  0.00  0.00    +0.000 OA
ENDBRANCH  13  14
ENDBRANCH   5   8
ENDBRANCH   1   4
BRANCH   1  17
ATOM     17  C   UNL     1       8.064   7.830  17.542  0.00  0.00    +0.000 C 
BRANCH  17  18
ATOM     18  C   UNL     1       7.301   6.648  18.154  0.00  0.00    +0.000 C 
BRANCH  18  19
ATOM     19  N   UNL     1       6.136   6.228  17.344  0.00  0.00    +0.000 NA
ATOM     20  C   UNL     1       6.440   5.029  16.544  0.00  0.00    +0.000 C 
ATOM     21  C   UNL     1       5.232   4.547  15.744  0.00  0.00    +0.000 C 
ATOM     22  C   UNL     1       4.034   4.242  16.647  0.00  0.00    +0.000 C 
ATOM     23  C   UNL     1       3.734   5.515  17.456  0.00  0.00    +0.000 C 
ATOM     24  C   UNL     1       4.964   6.029  18.216  0.00  0.00    +0.000 C 
BRANCH  22  25
ATOM     25  C   UNL     1       4.250   3.033  17.586  0.00  0.00    +0.000 C 
BRANCH  25  26
ATOM     26  C   UNL     1       3.302   2.944  18.761  0.00  0.00    +0.000 A 
ATOM     27  C   UNL     1       1.917   2.853  18.543  0.00  0.00    +0.000 A 
ATOM     28  C   UNL     1       1.035   2.745  19.619  0.00  0.00    +0.000 A 
ATOM     29  C   UNL     1       1.536   2.726  20.914  0.00  0.00    +0.000 A 
ATOM     30  F   UNL     1       0.691   2.619  21.947  0.00  0.00    +0.000 F 
ATOM     31  C   UNL     1       2.903   2.812  21.152  0.00  0.00    +0.000 A 
ATOM     32  C   UNL     1       3.787   2.918  20.077  0.00  0.00    +0.000 A 
ENDBRANCH  25  26
ENDBRANCH  22  25
ENDBRANCH  18  19
ENDBRANCH  17  18
ENDBRANCH   1  17
TORSDOF 8
ENDMDL
MODEL 6
REMARK VINA RESULT:      -7.4      3.715      5.394
REMARK  Name = 
REMARK  8 active torsions:
REMARK  status: ('A' for Active; 'I' for Inactive)
REMARK    1  A    between atoms: N_3  and  C_4
REMARK    2  A    between atoms: C_4  and  C_5
REMARK    3  A    between atoms: C_5  and  C_6
REMARK    4  A    between atoms: C_6  and  N_7
REMARK    5  A    between atoms: C_10  and  C_11
REMARK    6  A    between atoms: C_11  and  C_12
REMARK    7  A    between atoms: N_21  and  C_22
REMARK    8  A    between atoms: C_27  and  N_28
REMARK                            x       y       z     vdW  Elec       q    Type
REMARK                         _______ _______ _______ _____ _____    ______ ____
ROOT
ATOM      1  C   UNL     1       2.303   9.371  18.151  0.00  0.00    +0.000 C 
ENDROOT
BRANCH   1   4
ATOM      2  O   UNL     1       0.140   9.923  19.795  0.00  0.00    +0.000 OA
ATOM      3  C   UNL     1       0.106  10.352  18.648  0.00  0.00    +0.000 C 
ATOM      4  N   UNL     1       1.111  10.096  17.737  0.00  0.00    +0.000 N 
ATOM      5  N   UNL     1      -0.899  11.111  18.090  0.00  0.00    +0.000 N 
ATOM      6  H   UNL     1       1.218  10.761  16.985  0.00  0.00    +0.000 HD
ATOM      7  H   UNL     1      -0.943  11.087  17.073  0.00  0.00    +0.000 HD
BRANCH   5   8
ATOM      8  C   UNL     1      -2.025  11.665  18.760  0.00  0.00    +0.000 A 
ATOM      9  C   UNL     1      -1.848  12.497  19.877  0.00  0.00    +0.000 A 
ATOM     10  C   UNL     1      -2.934  13.081  20.538  0.00  0.00    +0.000 A 
ATOM     11  C   UNL     1      -4.230  12.863  20.088  0.00  0.00    +0.000 A 
ATOM     12  C   UNL     1      -4.442  12.049  18.980  0.00  0.00    +0.000 A 
ATOM     13  C   UNL     1      -3.350  11.447  18.316  0.00  0.00    +0.000 A 
BRANCH  13  14
ATOM     14  N   UNL     1      -3.658  10.573  17.174  0.00  0.00    +0.000 N 
ATOM     15  O   UNL     1      -3.147   9.441  17.146  0.00  0.00    +0.000 OA
ATOM     16  O   UNL     1      -4.411  11.012  16.294  0.00  0.00    +0.000 OA
ENDBRANCH  13  14
ENDBRANCH   5   8
ENDBRANCH   1   4
BRANCH   1  17
ATOM     17  C   UNL     1       2.111   7.863  18.004  0.00  0.00    +0.000 C 
BRANCH  17  18
ATOM     18  C   UNL     1       2.260   7.133  19.345  0.00  0.00    +0.000 C 
BRANCH  18  19
ATOM     19  N   UNL     1       2.514   5.683  19.191  0.00  0.00    +0.000 NA
ATOM     20  C   UNL     1       2.099   5.202  17.862  0.00  0.00    +0.000 C 
ATOM     21  C   UNL     1       2.405   3.719  17.663  0.00  0.00    +0.000 C 
ATOM     22  C   UNL     1       3.893   3.413  17.852  0.00  0.00    +0.000 C 
ATOM     23  C   UNL     1       4.290   3.913  19.251  0.00  0.00    +0.000 C 
ATOM     24  C   UNL     1       3.932   5.390  19.468  0.00  0.00    +0.000 C 
BRANCH  22  25
ATOM     25  C   UNL     1       4.802   4.036  16.767  0.00  0.00    +0.000 C 
BRANCH  25  26
ATOM     26  C   UNL     1       5.808   5.049  17.266  0.00  0.00    +0.000 A 
ATOM     27  C   UNL     1       6.904   4.632  18.040  0.00  0.00    +0.000 A 
ATOM     28  C   UNL     1       7.852   5.555  18.485  0.00  0.00    +0.000 A 
ATOM     29  C   UNL     1       7.707   6.895  18.154  0.00  0.00    +0.000 A 
ATOM     30  F   UNL     1       8.617   7.782  18.576  0.00  0.00    +0.000 F 
ATOM     31  C   UNL     1       6.632   7.330  17.386  0.00  0.00    +0.000 A 
ATOM     32  C   UNL     1       5.684   6.407  16.939  0.00  0.00    +0.000 A 
ENDBRANCH  25  26
ENDBRANCH  22  25
ENDBRANCH  18  19
ENDBRANCH  17  18
ENDBRANCH   1  17
TORSDOF 8
ENDMDL
MODEL 7
REMARK VINA RESULT:      -7.4      7.608      9.230
REMARK  Name = 
REMARK  8 active torsions:
REMARK  status: ('A' for Active; 'I' for Inactive)
REMARK    1  A    between atoms: N_3  and  C_4
REMARK    2  A    between atoms: C_4  and  C_5
REMARK    3  A    between atoms: C_5  and  C_6
REMARK    4  A    between atoms: C_6  and  N_7
REMARK    5  A    between atoms: C_10  and  C_11
REMARK    6  A    between atoms: C_11  and  C_12
REMARK    7  A    between atoms: N_21  and  C_22
REMARK    8  A    between atoms: C_27  and  N_28
REMARK                            x       y       z     vdW  Elec       q    Type
REMARK                         _______ _______ _______ _____ _____    ______ ____
ROOT
ATOM      1  C   UNL     1       7.819   7.220  18.268  0.00  0.00    +0.000 C 
ENDROOT
BRANCH   1   4
ATOM      2  O   UNL     1       6.252   5.117  19.167  0.00  0.00    +0.000 OA
ATOM      3  C   UNL     1       5.869   5.728  18.177  0.00  0.00    +0.000 C 
ATOM      4  N   UNL     1       6.597   6.761  17.624  0.00  0.00    +0.000 N 
ATOM      5  N   UNL     1       4.712   5.491  17.468  0.00  0.00    +0.000 N 
ATOM      6  H   UNL     1       6.078   7.443  17.090  0.00  0.00    +0.000 HD
ATOM      7  H   UNL     1       4.715   5.835  16.509  0.00  0.00    +0.000 HD
BRANCH   5   8
ATOM      8  C   UNL     1       3.665   4.591  17.815  0.00  0.00    +0.000 A 
ATOM      9  C   UNL     1       3.728   3.245  17.423  0.00  0.00    +0.000 A 
ATOM     10  C   UNL     1       2.729   2.330  17.774  0.00  0.00    +0.000 A 
ATOM     11  C   UNL     1       1.646   2.734  18.544  0.00  0.00    +0.000 A 
ATOM     12  C   UNL     1       1.554   4.061  18.954  0.00  0.00    +0.000 A 
ATOM     13  C   UNL     1       2.553   4.990  18.593  0.00  0.00    +0.000 A 
BRANCH  13  14
ATOM     14  N   UNL     1       2.368   6.381  19.036  0.00  0.00    +0.000 N 
ATOM     15  O   UNL     1       2.514   7.288  18.200  0.00  0.00    +0.000 OA
ATOM     16  O   UNL     1       2.078   6.577  20.224  0.00  0.00    +0.000 OA
ENDBRANCH  13  14
ENDBRANCH   5   8
ENDBRANCH   1   4
BRANCH   1  17
ATOM     17  C   UNL     1       8.379   8.458  17.571  0.00  0.00    +0.000 C 
BRANCH  17  18
ATOM     18  C   UNL     1       8.204   9.723  18.420  0.00  0.00    +0.000 C 
BRANCH  18  19
ATOM     19  N   UNL     1       9.490  10.330  18.829  0.00  0.00    +0.000 NA
ATOM     20  C   UNL     1       9.964  11.308  17.835  0.00  0.00    +0.000 C 
ATOM     21  C   UNL     1      11.263  11.987  18.266  0.00  0.00    +0.000 C 
ATOM     22  C   UNL     1      11.117  12.693  19.617  0.00  0.00    +0.000 C 
ATOM     23  C   UNL     1      10.636  11.644  20.633  0.00  0.00    +0.000 C 
ATOM     24  C   UNL     1       9.361  10.924  20.172  0.00  0.00    +0.000 C 
BRANCH  22  25
ATOM     25  C   UNL     1      10.160  13.908  19.587  0.00  0.00    +0.000 C 
BRANCH  25  26
ATOM     26  C   UNL     1      10.710  15.152  18.927  0.00  0.00    +0.000 A 
ATOM     27  C   UNL     1      11.753  15.871  19.535  0.00  0.00    +0.000 A 
ATOM     28  C   UNL     1      12.284  17.006  18.922  0.00  0.00    +0.000 A 
ATOM     29  C   UNL     1      11.776  17.424  17.700  0.00  0.00    +0.000 A 
ATOM     30  F   UNL     1      12.287  18.511  17.108  0.00  0.00    +0.000 F 
ATOM     31  C   UNL     1      10.746  16.726  17.079  0.00  0.00    +0.000 A 
ATOM     32  C   UNL     1      10.214  15.589  17.690  0.00  0.00    +0.000 A 
ENDBRANCH  25  26
ENDBRANCH  22  25
ENDBRANCH  18  19
ENDBRANCH  17  18
ENDBRANCH   1  17
TORSDOF 8
ENDMDL
MODEL 8
REMARK VINA RESULT:      -7.3      7.291      8.695
REMARK  Name = 
REMARK  8 active torsions:
REMARK  status: ('A' for Active; 'I' for Inactive)
REMARK    1  A    between atoms: N_3  and  C_4
REMARK    2  A    between atoms: C_4  and  C_5
REMARK    3  A    between atoms: C_5  and  C_6
REMARK    4  A    between atoms: C_6  and  N_7
REMARK    5  A    between atoms: C_10  and  C_11
REMARK    6  A    between atoms: C_11  and  C_12
REMARK    7  A    between atoms: N_21  and  C_22
REMARK    8  A    between atoms: C_27  and  N_28
REMARK                            x       y       z     vdW  Elec       q    Type
REMARK                         _______ _______ _______ _____ _____    ______ ____
ROOT
ATOM      1  C   UNL     1       8.895   9.705  19.061  0.00  0.00    +0.000 C 
ENDROOT
BRANCH   1   4
ATOM      2  O   UNL     1       8.500  12.232  17.993  0.00  0.00    +0.000 OA
ATOM      3  C   UNL     1       9.601  11.982  18.467  0.00  0.00    +0.000 C 
ATOM      4  N   UNL     1       9.914  10.741  18.983  0.00  0.00    +0.000 N 
ATOM      5  N   UNL     1      10.671  12.846  18.548  0.00  0.00    +0.000 N 
ATOM      6  H   UNL     1      10.649  10.713  19.676  0.00  0.00    +0.000 HD
ATOM      7  H   UNL     1      11.581  12.398  18.640  0.00  0.00    +0.000 HD
BRANCH   5   8
ATOM      8  C   UNL     1      10.677  14.232  18.229  0.00  0.00    +0.000 A 
ATOM      9  C   UNL     1      11.169  14.674  16.991  0.00  0.00    +0.000 A 
ATOM     10  C   UNL     1      11.160  16.027  16.636  0.00  0.00    +0.000 A 
ATOM     11  C   UNL     1      10.642  16.978  17.507  0.00  0.00    +0.000 A 
ATOM     12  C   UNL     1      10.141  16.575  18.741  0.00  0.00    +0.000 A 
ATOM     13  C   UNL     1      10.158  15.211  19.108  0.00  0.00    +0.000 A 
BRANCH  13  14
ATOM     14  N   UNL     1       9.642  14.869  20.442  0.00  0.00    +0.000 N 
ATOM     15  O   UNL     1       8.416  14.933  20.632  0.00  0.00    +0.000 OA
ATOM     16  O   UNL     1      10.459  14.535  21.312  0.00  0.00    +0.000 OA
ENDBRANCH  13  14
ENDBRANCH   5   8
ENDBRANCH   1   4
BRANCH   1  17
ATOM     17  C   UNL     1       8.542   9.173  17.674  0.00  0.00    +0.000 C 
BRANCH  17  18
ATOM     18  C   UNL     1       7.104   8.640  17.613  0.00  0.00    +0.000 C 
BRANCH  18  19
ATOM     19  N   UNL     1       7.028   7.228  17.177  0.00  0.00    +0.000 NA
ATOM     20  C   UNL     1       7.666   6.328  18.154  0.00  0.00    +0.000 C 
ATOM     21  C   UNL     1       7.547   4.860  17.750  0.00  0.00    +0.000 C 
ATOM     22  C   UNL     1       6.088   4.433  17.571  0.00  0.00    +0.000 C 
ATOM     23  C   UNL     1       5.456   5.380  16.538  0.00  0.00    +0.000 C 
ATOM     24  C   UNL     1       5.624   6.858  16.919  0.00  0.00    +0.000 C 
BRANCH  22  25
ATOM     25  C   UNL     1       5.272   4.430  18.886  0.00  0.00    +0.000 C 
BRANCH  25  26
ATOM     26  C   UNL     1       3.901   3.798  18.798  0.00  0.00    +0.000 A 
ATOM     27  C   UNL     1       2.751   4.579  19.000  0.00  0.00    +0.000 A 
ATOM     28  C   UNL     1       1.480   4.011  18.898  0.00  0.00    +0.000 A 
ATOM     29  C   UNL     1       1.358   2.662  18.591  0.00  0.00    +0.000 A 
ATOM     30  F   UNL     1       0.139   2.116  18.489  0.00  0.00    +0.000 F 
ATOM     31  C   UNL     1       2.483   1.872  18.385  0.00  0.00    +0.000 A 
ATOM     32  C   UNL     1       3.754   2.439  18.485  0.00  0.00    +0.000 A 
ENDBRANCH  25  26
ENDBRANCH  22  25
ENDBRANCH  18  19
ENDBRANCH  17  18
ENDBRANCH   1  17
TORSDOF 8
ENDMDL
MODEL 9
REMARK VINA RESULT:      -7.3      7.112      8.595
REMARK  Name = 
REMARK  8 active torsions:
REMARK  status: ('A' for Active; 'I' for Inactive)
REMARK    1  A    between atoms: N_3  and  C_4
REMARK    2  A    between atoms: C_4  and  C_5
REMARK    3  A    between atoms: C_5  and  C_6
REMARK    4  A    between atoms: C_6  and  N_7
REMARK    5  A    between atoms: C_10  and  C_11
REMARK    6  A    between atoms: C_11  and  C_12
REMARK    7  A    between atoms: N_21  and  C_22
REMARK    8  A    between atoms: C_27  and  N_28
REMARK                            x       y       z     vdW  Elec       q    Type
REMARK                         _______ _______ _______ _____ _____    ______ ____
ROOT
ATOM      1  C   UNL     1       9.599  10.694  18.282  0.00  0.00    +0.000 C 
ENDROOT
BRANCH   1   4
ATOM      2  O   UNL     1       9.001  13.070  19.579  0.00  0.00    +0.000 OA
ATOM      3  C   UNL     1       9.167  13.111  18.366  0.00  0.00    +0.000 C 
ATOM      4  N   UNL     1       9.425  11.979  17.621  0.00  0.00    +0.000 N 
ATOM      5  N   UNL     1       9.110  14.235  17.572  0.00  0.00    +0.000 N 
ATOM      6  H   UNL     1       9.916  12.115  16.749  0.00  0.00    +0.000 HD
ATOM      7  H   UNL     1       8.927  14.058  16.586  0.00  0.00    +0.000 HD
BRANCH   5   8
ATOM      8  C   UNL     1       8.987  15.584  18.006  0.00  0.00    +0.000 A 
ATOM      9  C   UNL     1      10.084  16.457  17.931  0.00  0.00    +0.000 A 
ATOM     10  C   UNL     1       9.986  17.797  18.322  0.00  0.00    +0.000 A 
ATOM     11  C   UNL     1       8.779  18.307  18.784  0.00  0.00    +0.000 A 
ATOM     12  C   UNL     1       7.670  17.471  18.867  0.00  0.00    +0.000 A 
ATOM     13  C   UNL     1       7.767  16.115  18.484  0.00  0.00    +0.000 A 
BRANCH  13  14
ATOM     14  N   UNL     1       6.559  15.288  18.632  0.00  0.00    +0.000 N 
ATOM     15  O   UNL     1       6.044  15.197  19.759  0.00  0.00    +0.000 OA
ATOM     16  O   UNL     1       6.118  14.721  17.623  0.00  0.00    +0.000 OA
ENDBRANCH  13  14
ENDBRANCH   5   8
ENDBRANCH   1   4
BRANCH   1  17
ATOM     17  C   UNL     1       8.451   9.743  17.951  0.00  0.00    +0.000 C 
BRANCH  17  18
ATOM     18  C   UNL     1       8.530   8.444  18.764  0.00  0.00    +0.000 C 
BRANCH  18  19
ATOM     19  N   UNL     1       7.973   7.276  18.046  0.00  0.00    +0.000 NA
ATOM     20  C   UNL     1       7.920   6.086  18.914  0.00  0.00    +0.000 C 
ATOM     21  C   UNL     1       7.296   4.884  18.208  0.00  0.00    +0.000 C 
ATOM     22  C   UNL     1       5.881   5.188  17.707  0.00  0.00    +0.000 C 
ATOM     23  C   UNL     1       5.973   6.423  16.795  0.00  0.00    +0.000 C 
ATOM     24  C   UNL     1       6.651   7.613  17.489  0.00  0.00    +0.000 C 
BRANCH  22  25
ATOM     25  C   UNL     1       4.852   5.416  18.839  0.00  0.00    +0.000 C 
BRANCH  25  26
ATOM     26  C   UNL     1       3.616   4.548  18.777  0.00  0.00    +0.000 A 
ATOM     27  C   UNL     1       2.573   4.868  17.892  0.00  0.00    +0.000 A 
ATOM     28  C   UNL     1       1.438   4.060  17.809  0.00  0.00    +0.000 A 
ATOM     29  C   UNL     1       1.345   2.930  18.610  0.00  0.00    +0.000 A 
ATOM     30  F   UNL     1       0.258   2.151  18.530  0.00  0.00    +0.000 F 
ATOM     31  C   UNL     1       2.366   2.593  19.492  0.00  0.00    +0.000 A 
ATOM     32  C   UNL     1       3.502   3.399  19.574  0.00  0.00    +0.000 A 
ENDBRANCH  25  26
ENDBRANCH  22  25
ENDBRANCH  18  19
ENDBRANCH  17  18
ENDBRANCH   1  17
TORSDOF 8
ENDMDL
