MODEL 1
REMARK VINA RESULT:      -7.6      0.000      0.000
REMARK  Name = 
REMARK  12 active torsions:
REMARK  status: ('A' for Active; 'I' for Inactive)
REMARK    1  A    between atoms: C_1  and  C_2
REMARK    2  A    between atoms: C_2  and  N_3
REMARK    3  A    between atoms: N_3  and  S_4
REMARK    4  A    between atoms: S_4  and  N_7
REMARK    5  A    between atoms: N_7  and  C_8
REMARK    6  A    between atoms: C_12  and  C_13
REMARK    7  A    between atoms: C_13  and  C_14
REMARK    8  A    between atoms: C_15  and  C_16
REMARK    9  A    between atoms: C_20  and  O_21
REMARK   10  A    between atoms: O_21  and  C_22
REMARK   11  A    between atoms: C_22  and  C_23
REMARK   12  A    between atoms: C_23  and  O_24
REMARK                            x       y       z     vdW  Elec       q    Type
REMARK                         _______ _______ _______ _____ _____    ______ ____
ROOT
ATOM      1  C   UNL     1       3.077   4.983  18.841  0.00  0.00    +0.000 C 
ENDROOT
BRANCH   1   2
ATOM      2  C   UNL     1       2.528   6.325  19.294  0.00  0.00    +0.000 A 
ATOM      3  C   UNL     1       2.520   7.454  18.548  0.00  0.00    +0.000 A 
ATOM      4  C   UNL     1       3.183   7.567  17.197  0.00  0.00    +0.000 C 
ATOM      5  C   UNL     1       1.790   8.644  19.039  0.00  0.00    +0.000 A 
ATOM      6  C   UNL     1       1.706   9.862  18.350  0.00  0.00    +0.000 A 
ATOM      7  C   UNL     1       0.939  10.928  18.850  0.00  0.00    +0.000 A 
ATOM      8  C   UNL     1       0.247  10.808  20.056  0.00  0.00    +0.000 A 
ATOM      9  C   UNL     1       0.313   9.605  20.748  0.00  0.00    +0.000 A 
ATOM     10  C   UNL     1       1.087   8.554  20.235  0.00  0.00    +0.000 A 
ATOM     11  O   UNL     1       1.115   7.385  21.008  0.00  0.00    +0.000 OA
ATOM     12  C   UNL     1       1.851   6.280  20.623  0.00  0.00    +0.000 A 
ATOM     13  O   UNL     1       1.917   5.297  21.354  0.00  0.00    +0.000 OA
BRANCH   8  14
ATOM     14  O   UNL     1      -0.481  11.904  20.436  0.00  0.00    +0.000 OA
BRANCH  14  15
ATOM     15  C   UNL     1       0.246  13.141  20.488  0.00  0.00    +0.000 C 
BRANCH  15  16
ATOM     16  C   UNL     1       0.156  13.701  21.907  0.00  0.00    +0.000 C 
BRANCH  16  17
ATOM     17  O   UNL     1       1.338  14.428  22.235  0.00  0.00    +0.000 OA
ATOM     18  H   UNL     1       1.042  15.310  22.528  0.00  0.00    +0.000 HD
ENDBRANCH  16  17
ENDBRANCH  15  16
ENDBRANCH  14  15
ENDBRANCH   8  14
ENDBRANCH   1   2
BRANCH   1  23
ATOM     19  C   UNL     1       6.224   4.185  16.792  0.00  0.00    +0.000 A 
ATOM     20  C   UNL     1       7.235   4.664  17.620  0.00  0.00    +0.000 A 
ATOM     21  C   UNL     1       6.901   5.261  18.835  0.00  0.00    +0.000 A 
ATOM     22  C   UNL     1       5.559   5.395  19.221  0.00  0.00    +0.000 A 
ATOM     23  C   UNL     1       4.524   4.951  18.387  0.00  0.00    +0.000 A 
ATOM     24  C   UNL     1       4.881   4.352  17.170  0.00  0.00    +0.000 A 
ATOM     25  F   UNL     1       3.923   3.866  16.362  0.00  0.00    +0.000 F 
BRANCH  19  26
ATOM     26  N   UNL     1       6.556   3.513  15.554  0.00  0.00    +0.000 N 
ATOM     27  H   UNL     1       5.816   2.840  15.352  0.00  0.00    +0.000 HD
BRANCH  26  28
ATOM     28  S   UNL     1       6.623   4.538  14.209  0.00  0.00    +0.000 S 
ATOM     29  O   UNL     1       7.854   5.284  14.220  0.00  0.00    +0.000 OA
ATOM     30  O   UNL     1       5.326   5.149  14.093  0.00  0.00    +0.000 OA
BRANCH  28  31
ATOM     31  N   UNL     1       6.714   3.363  13.010  0.00  0.00    +0.000 NA
ATOM     32  H   UNL     1       7.623   3.324  12.557  0.00  0.00    +0.000 HD
BRANCH  31  34
ATOM     33  C   UNL     1       5.696   1.875  11.348  0.00  0.00    +0.000 C 
ATOM     34  C   UNL     1       5.529   3.142  12.173  0.00  0.00    +0.000 C 
ENDBRANCH  31  34
ENDBRANCH  28  31
ENDBRANCH  26  28
ENDBRANCH  19  26
ENDBRANCH   1  23
TORSDOF 10
ENDMDL
MODEL 2
REMARK VINA RESULT:      -7.5      1.281      1.715
REMARK  Name = 
REMARK  12 active torsions:
REMARK  status: ('A' for Active; 'I' for Inactive)
REMARK    1  A    between atoms: C_1  and  C_2
REMARK    2  A    between atoms: C_2  and  N_3
REMARK    3  A    between atoms: N_3  and  S_4
REMARK    4  A    between atoms: S_4  and  N_7
REMARK    5  A    between atoms: N_7  and  C_8
REMARK    6  A    between atoms: C_12  and  C_13
REMARK    7  A    between atoms: C_13  and  C_14
REMARK    8  A    between atoms: C_15  and  C_16
REMARK    9  A    between atoms: C_20  and  O_21
REMARK   10  A    between atoms: O_21  and  C_22
REMARK   11  A    between atoms: C_22  and  C_23
REMARK   12  A    between atoms: C_23  and  O_24
REMARK                            x       y       z     vdW  Elec       q    Type
REMARK                         _______ _______ _______ _____ _____    ______ ____
ROOT
ATOM      1  C   UNL     1       3.606   4.792  19.189  0.00  0.00    +0.000 C 
ENDROOT
BRANCH   1   2
ATOM      2  C   UNL     1       2.912   6.116  19.465  0.00  0.00    +0.000 A 
ATOM      3  C   UNL     1       2.889   7.172  18.619  0.00  0.00    +0.000 A 
ATOM      4  C   UNL     1       3.668   7.226  17.329  0.00  0.00    +0.000 C 
ATOM      5  C   UNL     1       2.024   8.332  18.930  0.00  0.00    +0.000 A 
ATOM      6  C   UNL     1       1.913   9.475  18.127  0.00  0.00    +0.000 A 
ATOM      7  C   UNL     1       1.021  10.510  18.454  0.00  0.00    +0.000 A 
ATOM      8  C   UNL     1       0.227  10.434  19.600  0.00  0.00    +0.000 A 
ATOM      9  C   UNL     1       0.319   9.304  20.404  0.00  0.00    +0.000 A 
ATOM     10  C   UNL     1       1.218   8.284  20.062  0.00  0.00    +0.000 A 
ATOM     11  O   UNL     1       1.262   7.192  20.940  0.00  0.00    +0.000 OA
ATOM     12  C   UNL     1       2.116   6.125  20.727  0.00  0.00    +0.000 A 
ATOM     13  O   UNL     1       2.187   5.218  21.548  0.00  0.00    +0.000 OA
BRANCH   8  14
ATOM     14  O   UNL     1      -0.618  11.491  19.810  0.00  0.00    +0.000 OA
BRANCH  14  15
ATOM     15  C   UNL     1      -1.268  12.006  18.638  0.00  0.00    +0.000 C 
BRANCH  15  16
ATOM     16  C   UNL     1      -2.674  11.413  18.559  0.00  0.00    +0.000 C 
BRANCH  16  17
ATOM     17  O   UNL     1      -3.466  12.124  17.611  0.00  0.00    +0.000 OA
ATOM     18  H   UNL     1      -2.868  12.353  16.875  0.00  0.00    +0.000 HD
ENDBRANCH  16  17
ENDBRANCH  15  16
ENDBRANCH  14  15
ENDBRANCH   8  14
ENDBRANCH   1   2
BRANCH   1  23
ATOM     19  C   UNL     1       6.600   4.215  16.857  0.00  0.00    +0.000 A 
ATOM     20  C   UNL     1       7.648   4.753  17.597  0.00  0.00    +0.000 A 
ATOM     21  C   UNL     1       7.388   5.320  18.845  0.00  0.00    +0.000 A 
ATOM     22  C   UNL     1       6.080   5.362  19.350  0.00  0.00    +0.000 A 
ATOM     23  C   UNL     1       5.004   4.858  18.608  0.00  0.00    +0.000 A 
ATOM     24  C   UNL     1       5.288   4.292  17.356  0.00  0.00    +0.000 A 
ATOM     25  F   UNL     1       4.295   3.749  16.631  0.00  0.00    +0.000 F 
BRANCH  19  26
ATOM     26  N   UNL     1       6.861   3.575  15.586  0.00  0.00    +0.000 N 
ATOM     27  H   UNL     1       6.200   2.805  15.478  0.00  0.00    +0.000 HD
BRANCH  26  28
ATOM     28  S   UNL     1       6.618   4.578  14.245  0.00  0.00    +0.000 S 
ATOM     29  O   UNL     1       7.850   5.237  13.893  0.00  0.00    +0.000 OA
ATOM     30  O   UNL     1       5.382   5.277  14.473  0.00  0.00    +0.000 OA
BRANCH  28  31
ATOM     31  N   UNL     1       6.297   3.387  13.103  0.00  0.00    +0.000 NA
ATOM     32  H   UNL     1       6.164   2.466  13.512  0.00  0.00    +0.000 HD
BRANCH  31  34
ATOM     33  C   UNL     1       7.025   2.094  11.150  0.00  0.00    +0.000 C 
ATOM     34  C   UNL     1       6.999   3.462  11.816  0.00  0.00    +0.000 C 
ENDBRANCH  31  34
ENDBRANCH  28  31
ENDBRANCH  26  28
ENDBRANCH  19  26
ENDBRANCH   1  23
TORSDOF 10
ENDMDL
MODEL 3
REMARK VINA RESULT:      -7.5      1.206      1.398
REMARK  Name = 
REMARK  12 active torsions:
REMARK  status: ('A' for Active; 'I' for Inactive)
REMARK    1  A    between atoms: C_1  and  C_2
REMARK    2  A    between atoms: C_2  and  N_3
REMARK    3  A    between atoms: N_3  and  S_4
REMARK    4  A    between atoms: S_4  and  N_7
REMARK    5  A    between atoms: N_7  and  C_8
REMARK    6  A    between atoms: C_12  and  C_13
REMARK    7  A    between atoms: C_13  and  C_14
REMARK    8  A    between atoms: C_15  and  C_16
REMARK    9  A    between atoms: C_20  and  O_21
REMARK   10  A    between atoms: O_21  and  C_22
REMARK   11  A    between atoms: C_22  and  C_23
REMARK   12  A    between atoms: C_23  and  O_24
REMARK                            x       y       z     vdW  Elec       q    Type
REMARK                         _______ _______ _______ _____ _____    ______ ____
ROOT
ATOM      1  C   UNL     1       2.635   5.405  18.613  0.00  0.00    +0.000 C 
ENDROOT
BRANCH   1   2
ATOM      2  C   UNL     1       2.176   6.602  19.428  0.00  0.00    +0.000 A 
ATOM      3  C   UNL     1       2.078   7.868  18.962  0.00  0.00    +0.000 A 
ATOM      4  C   UNL     1       2.541   8.292  17.590  0.00  0.00    +0.000 C 
ATOM      5  C   UNL     1       1.443   8.906  19.805  0.00  0.00    +0.000 A 
ATOM      6  C   UNL     1       1.279  10.245  19.425  0.00  0.00    +0.000 A 
ATOM      7  C   UNL     1       0.608  11.159  20.254  0.00  0.00    +0.000 A 
ATOM      8  C   UNL     1       0.095  10.761  21.490  0.00  0.00    +0.000 A 
ATOM      9  C   UNL     1       0.242   9.435  21.879  0.00  0.00    +0.000 A 
ATOM     10  C   UNL     1       0.918   8.540  21.040  0.00  0.00    +0.000 A 
ATOM     11  O   UNL     1       1.041   7.228  21.520  0.00  0.00    +0.000 OA
ATOM     12  C   UNL     1       1.697   6.250  20.797  0.00  0.00    +0.000 A 
ATOM     13  O   UNL     1       1.854   5.130  21.272  0.00  0.00    +0.000 OA
BRANCH   8  14
ATOM     14  O   UNL     1      -0.555  11.731  22.205  0.00  0.00    +0.000 OA
BRANCH  14  15
ATOM     15  C   UNL     1      -1.528  12.492  21.474  0.00  0.00    +0.000 C 
BRANCH  15  16
ATOM     16  C   UNL     1      -2.886  12.332  22.156  0.00  0.00    +0.000 C 
BRANCH  16  17
ATOM     17  O   UNL     1      -2.725  11.842  23.485  0.00  0.00    +0.000 OA
ATOM     18  H   UNL     1      -1.901  12.239  23.823  0.00  0.00    +0.000 HD
ENDBRANCH  16  17
ENDBRANCH  15  16
ENDBRANCH  14  15
ENDBRANCH   8  14
ENDBRANCH   1   2
BRANCH   1  23
ATOM     19  C   UNL     1       5.977   4.336  17.056  0.00  0.00    +0.000 A 
ATOM     20  C   UNL     1       6.893   4.806  17.991  0.00  0.00    +0.000 A 
ATOM     21  C   UNL     1       6.435   5.485  19.120  0.00  0.00    +0.000 A 
ATOM     22  C   UNL     1       5.063   5.708  19.311  0.00  0.00    +0.000 A 
ATOM     23  C   UNL     1       4.125   5.274  18.365  0.00  0.00    +0.000 A 
ATOM     24  C   UNL     1       4.608   4.592  17.238  0.00  0.00    +0.000 A 
ATOM     25  F   UNL     1       3.740   4.113  16.329  0.00  0.00    +0.000 F 
BRANCH  19  26
ATOM     26  N   UNL     1       6.433   3.581  15.908  0.00  0.00    +0.000 N 
ATOM     27  H   UNL     1       5.757   2.838  15.730  0.00  0.00    +0.000 HD
BRANCH  26  28
ATOM     28  S   UNL     1       6.511   4.482  14.477  0.00  0.00    +0.000 S 
ATOM     29  O   UNL     1       7.783   5.150  14.385  0.00  0.00    +0.000 OA
ATOM     30  O   UNL     1       5.248   5.159  14.348  0.00  0.00    +0.000 OA
BRANCH  28  31
ATOM     31  N   UNL     1       6.489   3.206  13.383  0.00  0.00    +0.000 NA
ATOM     32  H   UNL     1       7.220   2.520  13.554  0.00  0.00    +0.000 HD
BRANCH  31  34
ATOM     33  C   UNL     1       4.678   3.230  11.730  0.00  0.00    +0.000 C 
ATOM     34  C   UNL     1       6.153   3.504  11.986  0.00  0.00    +0.000 C 
ENDBRANCH  31  34
ENDBRANCH  28  31
ENDBRANCH  26  28
ENDBRANCH  19  26
ENDBRANCH   1  23
TORSDOF 10
ENDMDL
MODEL 4
REMARK VINA RESULT:      -7.4      6.153     11.059
REMARK  Name = 
REMARK  12 active torsions:
REMARK  status: ('A' for Active; 'I' for Inactive)
REMARK    1  A    between atoms: C_1  and  C_2
REMARK    2  A    between atoms: C_2  and  N_3
REMARK    3  A    between atoms: N_3  and  S_4
REMARK    4  A    between atoms: S_4  and  N_7
REMARK    5  A    between atoms: N_7  and  C_8
REMARK    6  A    between atoms: C_12  and  C_13
REMARK    7  A    between atoms: C_13  and  C_14
REMARK    8  A    between atoms: C_15  and  C_16
REMARK    9  A    between atoms: C_20  and  O_21
REMARK   10  A    between atoms: O_21  and  C_22
REMARK   11  A    between atoms: C_22  and  C_23
REMARK   12  A    between atoms: C_23  and  O_24
REMARK                            x       y       z     vdW  Elec       q    Type
REMARK                         _______ _______ _______ _____ _____    ______ ____
ROOT
ATOM      1  C   UNL     1       0.316  10.873  20.135  0.00  0.00    +0.000 C 
ENDROOT
BRANCH   1   2
ATOM      2  C   UNL     1       0.835   9.452  19.983  0.00  0.00    +0.000 A 
ATOM      3  C   UNL     1       1.630   9.019  18.978  0.00  0.00    +0.000 A 
ATOM      4  C   UNL     1       2.007   9.864  17.787  0.00  0.00    +0.000 C 
ATOM      5  C   UNL     1       2.213   7.660  19.048  0.00  0.00    +0.000 A 
ATOM      6  C   UNL     1       3.055   7.108  18.072  0.00  0.00    +0.000 A 
ATOM      7  C   UNL     1       3.623   5.834  18.240  0.00  0.00    +0.000 A 
ATOM      8  C   UNL     1       3.355   5.075  19.380  0.00  0.00    +0.000 A 
ATOM      9  C   UNL     1       2.528   5.610  20.361  0.00  0.00    +0.000 A 
ATOM     10  C   UNL     1       1.968   6.881  20.174  0.00  0.00    +0.000 A 
ATOM     11  O   UNL     1       1.129   7.335  21.202  0.00  0.00    +0.000 OA
ATOM     12  C   UNL     1       0.502   8.565  21.136  0.00  0.00    +0.000 A 
ATOM     13  O   UNL     1      -0.284   8.906  22.013  0.00  0.00    +0.000 OA
BRANCH   8  14
ATOM     14  O   UNL     1       3.976   3.856  19.444  0.00  0.00    +0.000 OA
BRANCH  14  15
ATOM     15  C   UNL     1       3.110   2.730  19.651  0.00  0.00    +0.000 C 
BRANCH  15  16
ATOM     16  C   UNL     1       3.329   1.730  18.517  0.00  0.00    +0.000 C 
BRANCH  16  17
ATOM     17  O   UNL     1       4.310   2.216  17.602  0.00  0.00    +0.000 OA
ATOM     18  H   UNL     1       4.203   1.692  16.786  0.00  0.00    +0.000 HD
ENDBRANCH  16  17
ENDBRANCH  15  16
ENDBRANCH  14  15
ENDBRANCH   8  14
ENDBRANCH   1   2
BRANCH   1  23
ATOM     19  C   UNL     1      -3.188  12.360  19.641  0.00  0.00    +0.000 A 
ATOM     20  C   UNL     1      -3.673  11.604  18.577  0.00  0.00    +0.000 A 
ATOM     21  C   UNL     1      -2.862  10.623  18.006  0.00  0.00    +0.000 A 
ATOM     22  C   UNL     1      -1.562  10.404  18.485  0.00  0.00    +0.000 A 
ATOM     23  C   UNL     1      -1.041  11.176  19.531  0.00  0.00    +0.000 A 
ATOM     24  C   UNL     1      -1.873  12.156  20.093  0.00  0.00    +0.000 A 
ATOM     25  F   UNL     1      -1.433  12.886  21.132  0.00  0.00    +0.000 F 
BRANCH  19  26
ATOM     26  N   UNL     1      -4.036  13.343  20.280  0.00  0.00    +0.000 N 
ATOM     27  H   UNL     1      -4.713  13.671  19.591  0.00  0.00    +0.000 HD
BRANCH  26  28
ATOM     28  S   UNL     1      -4.951  12.733  21.566  0.00  0.00    +0.000 S 
ATOM     29  O   UNL     1      -4.080  12.318  22.636  0.00  0.00    +0.000 OA
ATOM     30  O   UNL     1      -5.958  11.884  20.989  0.00  0.00    +0.000 OA
BRANCH  28  31
ATOM     31  N   UNL     1      -5.720  14.158  22.018  0.00  0.00    +0.000 NA
ATOM     32  H   UNL     1      -5.902  14.780  21.235  0.00  0.00    +0.000 HD
BRANCH  31  34
ATOM     33  C   UNL     1      -6.129  16.049  23.525  0.00  0.00    +0.000 C 
ATOM     34  C   UNL     1      -5.335  14.771  23.294  0.00  0.00    +0.000 C 
ENDBRANCH  31  34
ENDBRANCH  28  31
ENDBRANCH  26  28
ENDBRANCH  19  26
ENDBRANCH   1  23
TORSDOF 10
ENDMDL
MODEL 5
REMARK VINA RESULT:      -7.3      5.845     10.296
REMARK  Name = 
REMARK  12 active torsions:
REMARK  status: ('A' for Active; 'I' for Inactive)
REMARK    1  A    between atoms: C_1  and  C_2
REMARK    2  A    between atoms: C_2  and  N_3
REMARK    3  A    between atoms: N_3  and  S_4
REMARK    4  A    between atoms: S_4  and  N_7
REMARK    5  A    between atoms: N_7  and  C_8
REMARK    6  A    between atoms: C_12  and  C_13
REMARK    7  A    between atoms: C_13  and  C_14
REMARK    8  A    between atoms: C_15  and  C_16
REMARK    9  A    between atoms: C_20  and  O_21
REMARK   10  A    between atoms: O_21  and  C_22
REMARK   11  A    between atoms: C_22  and  C_23
REMARK   12  A    between atoms: C_23  and  O_24
REMARK                            x       y       z     vdW  Elec       q    Type
REMARK                         _______ _______ _______ _____ _____    ______ ____
ROOT
ATOM      1  C   UNL     1      -0.121  12.113  21.761  0.00  0.00    +0.000 C 
ENDROOT
BRANCH   1   2
ATOM      2  C   UNL     1       0.336  10.777  21.199  0.00  0.00    +0.000 A 
ATOM      3  C   UNL     1       0.676  10.552  19.909  0.00  0.00    +0.000 A 
ATOM      4  C   UNL     1       0.518  11.575  18.813  0.00  0.00    +0.000 C 
ATOM      5  C   UNL     1       1.279   9.253  19.533  0.00  0.00    +0.000 A 
ATOM      6  C   UNL     1       1.677   8.911  18.233  0.00  0.00    +0.000 A 
ATOM      7  C   UNL     1       2.303   7.683  17.965  0.00  0.00    +0.000 A 
ATOM      8  C   UNL     1       2.536   6.760  18.986  0.00  0.00    +0.000 A 
ATOM      9  C   UNL     1       2.155   7.086  20.282  0.00  0.00    +0.000 A 
ATOM     10  C   UNL     1       1.528   8.315  20.529  0.00  0.00    +0.000 A 
ATOM     11  O   UNL     1       1.158   8.553  21.860  0.00  0.00    +0.000 OA
ATOM     12  C   UNL     1       0.519   9.720  22.237  0.00  0.00    +0.000 A 
ATOM     13  O   UNL     1       0.140   9.872  23.393  0.00  0.00    +0.000 OA
BRANCH   8  14
ATOM     14  O   UNL     1       3.169   5.604  18.612  0.00  0.00    +0.000 OA
BRANCH  14  15
ATOM     15  C   UNL     1       4.460   5.387  19.201  0.00  0.00    +0.000 C 
BRANCH  15  16
ATOM     16  C   UNL     1       4.777   3.894  19.146  0.00  0.00    +0.000 C 
BRANCH  16  17
ATOM     17  O   UNL     1       3.852   3.154  19.940  0.00  0.00    +0.000 OA
ATOM     18  H   UNL     1       3.002   3.629  19.880  0.00  0.00    +0.000 HD
ENDBRANCH  16  17
ENDBRANCH  15  16
ENDBRANCH  14  15
ENDBRANCH   8  14
ENDBRANCH   1   2
BRANCH   1  23
ATOM     19  C   UNL     1      -3.746  13.167  21.060  0.00  0.00    +0.000 A 
ATOM     20  C   UNL     1      -4.359  12.916  22.284  0.00  0.00    +0.000 A 
ATOM     21  C   UNL     1      -3.607  12.390  23.334  0.00  0.00    +0.000 A 
ATOM     22  C   UNL     1      -2.245  12.100  23.161  0.00  0.00    +0.000 A 
ATOM     23  C   UNL     1      -1.615  12.311  21.928  0.00  0.00    +0.000 A 
ATOM     24  C   UNL     1      -2.390  12.843  20.886  0.00  0.00    +0.000 A 
ATOM     25  F   UNL     1      -1.815  13.110  19.700  0.00  0.00    +0.000 F 
BRANCH  19  26
ATOM     26  N   UNL     1      -4.499  13.764  19.978  0.00  0.00    +0.000 N 
ATOM     27  H   UNL     1      -3.835  14.153  19.308  0.00  0.00    +0.000 HD
BRANCH  26  28
ATOM     28  S   UNL     1      -5.441  12.663  19.104  0.00  0.00    +0.000 S 
ATOM     29  O   UNL     1      -6.457  13.365  18.363  0.00  0.00    +0.000 OA
ATOM     30  O   UNL     1      -5.721  11.566  19.991  0.00  0.00    +0.000 OA
BRANCH  28  31
ATOM     31  N   UNL     1      -4.262  12.130  18.031  0.00  0.00    +0.000 NA
ATOM     32  H   UNL     1      -4.089  12.781  17.270  0.00  0.00    +0.000 HD
BRANCH  31  34
ATOM     33  C   UNL     1      -2.779  10.193  17.781  0.00  0.00    +0.000 C 
ATOM     34  C   UNL     1      -4.214  10.696  17.721  0.00  0.00    +0.000 C 
ENDBRANCH  31  34
ENDBRANCH  28  31
ENDBRANCH  26  28
ENDBRANCH  19  26
ENDBRANCH   1  23
TORSDOF 10
ENDMDL
MODEL 6
REMARK VINA RESULT:      -7.3      5.264      9.264
REMARK  Name = 
REMARK  12 active torsions:
REMARK  status: ('A' for Active; 'I' for Inactive)
REMARK    1  A    between atoms: C_1  and  C_2
REMARK    2  A    between atoms: C_2  and  N_3
REMARK    3  A    between atoms: N_3  and  S_4
REMARK    4  A    between atoms: S_4  and  N_7
REMARK    5  A    between atoms: N_7  and  C_8
REMARK    6  A    between atoms: C_12  and  C_13
REMARK    7  A    between atoms: C_13  and  C_14
REMARK    8  A    between atoms: C_15  and  C_16
REMARK    9  A    between atoms: C_20  and  O_21
REMARK   10  A    between atoms: O_21  and  C_22
REMARK   11  A    between atoms: C_22  and  C_23
REMARK   12  A    between atoms: C_23  and  O_24
REMARK                            x       y       z     vdW  Elec       q    Type
REMARK                         _______ _______ _______ _____ _____    ______ ____
ROOT
ATOM      1  C   UNL     1       1.029  10.679  20.401  0.00  0.00    +0.000 C 
ENDROOT
BRANCH   1   2
ATOM      2  C   UNL     1       1.223   9.178  20.272  0.00  0.00    +0.000 A 
ATOM      3  C   UNL     1       1.733   8.551  19.187  0.00  0.00    +0.000 A 
ATOM      4  C   UNL     1       2.059   9.253  17.892  0.00  0.00    +0.000 C 
ATOM      5  C   UNL     1       2.039   7.104  19.261  0.00  0.00    +0.000 A 
ATOM      6  C   UNL     1       2.575   6.353  18.206  0.00  0.00    +0.000 A 
ATOM      7  C   UNL     1       2.901   4.996  18.373  0.00  0.00    +0.000 A 
ATOM      8  C   UNL     1       2.687   4.354  19.593  0.00  0.00    +0.000 A 
ATOM      9  C   UNL     1       2.163   5.086  20.652  0.00  0.00    +0.000 A 
ATOM     10  C   UNL     1       1.841   6.437  20.465  0.00  0.00    +0.000 A 
ATOM     11  O   UNL     1       1.298   7.093  21.578  0.00  0.00    +0.000 OA
ATOM     12  C   UNL     1       0.923   8.423  21.524  0.00  0.00    +0.000 A 
ATOM     13  O   UNL     1       0.383   8.953  22.489  0.00  0.00    +0.000 OA
BRANCH   8  14
ATOM     14  O   UNL     1       3.057   3.036  19.646  0.00  0.00    +0.000 OA
BRANCH  14  15
ATOM     15  C   UNL     1       2.471   2.189  18.645  0.00  0.00    +0.000 C 
BRANCH  15  16
ATOM     16  C   UNL     1       3.593   1.558  17.822  0.00  0.00    +0.000 C 
BRANCH  16  17
ATOM     17  O   UNL     1       4.357   0.658  18.621  0.00  0.00    +0.000 OA
ATOM     18  H   UNL     1       4.900   0.137  18.000  0.00  0.00    +0.000 HD
ENDBRANCH  16  17
ENDBRANCH  15  16
ENDBRANCH  14  15
ENDBRANCH   8  14
ENDBRANCH   1   2
BRANCH   1  23
ATOM     19  C   UNL     1      -2.186  12.013  18.782  0.00  0.00    +0.000 A 
ATOM     20  C   UNL     1      -2.926  12.405  19.893  0.00  0.00    +0.000 A 
ATOM     21  C   UNL     1      -2.394  12.224  21.170  0.00  0.00    +0.000 A 
ATOM     22  C   UNL     1      -1.131  11.640  21.341  0.00  0.00    +0.000 A 
ATOM     23  C   UNL     1      -0.384  11.205  20.239  0.00  0.00    +0.000 A 
ATOM     24  C   UNL     1      -0.936  11.398  18.963  0.00  0.00    +0.000 A 
ATOM     25  F   UNL     1      -0.232  11.043  17.874  0.00  0.00    +0.000 F 
BRANCH  19  26
ATOM     26  N   UNL     1      -2.699  12.244  17.448  0.00  0.00    +0.000 N 
ATOM     27  H   UNL     1      -1.904  12.344  16.817  0.00  0.00    +0.000 HD
BRANCH  26  28
ATOM     28  S   UNL     1      -3.616  10.963  16.830  0.00  0.00    +0.000 S 
ATOM     29  O   UNL     1      -5.018  11.213  17.047  0.00  0.00    +0.000 OA
ATOM     30  O   UNL     1      -2.955   9.752  17.234  0.00  0.00    +0.000 OA
BRANCH  28  31
ATOM     31  N   UNL     1      -3.274  11.182  15.199  0.00  0.00    +0.000 NA
ATOM     32  H   UNL     1      -3.790  11.951  14.781  0.00  0.00    +0.000 HD
BRANCH  31  34
ATOM     33  C   UNL     1      -4.243   9.764  13.448  0.00  0.00    +0.000 C 
ATOM     34  C   UNL     1      -3.058   9.986  14.376  0.00  0.00    +0.000 C 
ENDBRANCH  31  34
ENDBRANCH  28  31
ENDBRANCH  26  28
ENDBRANCH  19  26
ENDBRANCH   1  23
TORSDOF 10
ENDMDL
MODEL 7
REMARK VINA RESULT:      -7.3      1.842      2.231
REMARK  Name = 
REMARK  12 active torsions:
REMARK  status: ('A' for Active; 'I' for Inactive)
REMARK    1  A    between atoms: C_1  and  C_2
REMARK    2  A    between atoms: C_2  and  N_3
REMARK    3  A    between atoms: N_3  and  S_4
REMARK    4  A    between atoms: S_4  and  N_7
REMARK    5  A    between atoms: N_7  and  C_8
REMARK    6  A    between atoms: C_12  and  C_13
REMARK    7  A    between atoms: C_13  and  C_14
REMARK    8  A    between atoms: C_15  and  C_16
REMARK    9  A    between atoms: C_20  and  O_21
REMARK   10  A    between atoms: O_21  and  C_22
REMARK   11  A    between atoms: C_22  and  C_23
REMARK   12  A    between atoms: C_23  and  O_24
REMARK                            x       y       z     vdW  Elec       q    Type
REMARK                         _______ _______ _______ _____ _____    ______ ____
ROOT
ATOM      1  C   UNL     1       2.494   6.310  18.394  0.00  0.00    +0.000 C 
ENDROOT
BRANCH   1   2
ATOM      2  C   UNL     1       1.933   7.331  19.369  0.00  0.00    +0.000 A 
ATOM      3  C   UNL     1       1.716   8.636  19.088  0.00  0.00    +0.000 A 
ATOM      4  C   UNL     1       2.129   9.293  17.794  0.00  0.00    +0.000 C 
ATOM      5  C   UNL     1       0.994   9.480  20.067  0.00  0.00    +0.000 A 
ATOM      6  C   UNL     1       0.706  10.839  19.882  0.00  0.00    +0.000 A 
ATOM      7  C   UNL     1      -0.041  11.559  20.830  0.00  0.00    +0.000 A 
ATOM      8  C   UNL     1      -0.507  10.942  21.992  0.00  0.00    +0.000 A 
ATOM      9  C   UNL     1      -0.237   9.593  22.187  0.00  0.00    +0.000 A 
ATOM     10  C   UNL     1       0.513   8.893  21.233  0.00  0.00    +0.000 A 
ATOM     11  O   UNL     1       0.758   7.543  21.521  0.00  0.00    +0.000 OA
ATOM     12  C   UNL     1       1.497   6.743  20.669  0.00  0.00    +0.000 A 
ATOM     13  O   UNL     1       1.758   5.585  20.980  0.00  0.00    +0.000 OA
BRANCH   8  14
ATOM     14  O   UNL     1      -1.239  11.736  22.835  0.00  0.00    +0.000 OA
BRANCH  14  15
ATOM     15  C   UNL     1      -2.069  12.718  22.195  0.00  0.00    +0.000 C 
BRANCH  15  16
ATOM     16  C   UNL     1      -3.298  12.962  23.069  0.00  0.00    +0.000 C 
BRANCH  16  17
ATOM     17  O   UNL     1      -3.558  11.831  23.897  0.00  0.00    +0.000 OA
ATOM     18  H   UNL     1      -3.889  12.185  24.744  0.00  0.00    +0.000 HD
ENDBRANCH  16  17
ENDBRANCH  15  16
ENDBRANCH  14  15
ENDBRANCH   8  14
ENDBRANCH   1   2
BRANCH   1  23
ATOM     19  C   UNL     1       6.155   6.159  17.249  0.00  0.00    +0.000 A 
ATOM     20  C   UNL     1       6.762   5.498  18.313  0.00  0.00    +0.000 A 
ATOM     21  C   UNL     1       5.992   5.115  19.411  0.00  0.00    +0.000 A 
ATOM     22  C   UNL     1       4.620   5.402  19.456  0.00  0.00    +0.000 A 
ATOM     23  C   UNL     1       3.995   6.096  18.412  0.00  0.00    +0.000 A 
ATOM     24  C   UNL     1       4.787   6.471  17.316  0.00  0.00    +0.000 A 
ATOM     25  F   UNL     1       4.220   7.094  16.268  0.00  0.00    +0.000 F 
BRANCH  19  26
ATOM     26  N   UNL     1       6.929   6.514  16.078  0.00  0.00    +0.000 N 
ATOM     27  H   UNL     1       7.817   6.905  16.393  0.00  0.00    +0.000 HD
BRANCH  26  28
ATOM     28  S   UNL     1       7.332   5.198  15.093  0.00  0.00    +0.000 S 
ATOM     29  O   UNL     1       7.610   4.042  15.906  0.00  0.00    +0.000 OA
ATOM     30  O   UNL     1       8.233   5.696  14.089  0.00  0.00    +0.000 OA
BRANCH  28  31
ATOM     31  N   UNL     1       5.842   4.987  14.344  0.00  0.00    +0.000 NA
ATOM     32  H   UNL     1       5.101   5.543  14.763  0.00  0.00    +0.000 HD
BRANCH  31  34
ATOM     33  C   UNL     1       5.979   3.443  12.444  0.00  0.00    +0.000 C 
ATOM     34  C   UNL     1       5.494   3.641  13.873  0.00  0.00    +0.000 C 
ENDBRANCH  31  34
ENDBRANCH  28  31
ENDBRANCH  26  28
ENDBRANCH  19  26
ENDBRANCH   1  23
TORSDOF 10
ENDMDL
MODEL 8
REMARK VINA RESULT:      -7.2      2.125      2.986
REMARK  Name = 
REMARK  12 active torsions:
REMARK  status: ('A' for Active; 'I' for Inactive)
REMARK    1  A    between atoms: C_1  and  C_2
REMARK    2  A    between atoms: C_2  and  N_3
REMARK    3  A    between atoms: N_3  and  S_4
REMARK    4  A    between atoms: S_4  and  N_7
REMARK    5  A    between atoms: N_7  and  C_8
REMARK    6  A    between atoms: C_12  and  C_13
REMARK    7  A    between atoms: C_13  and  C_14
REMARK    8  A    between atoms: C_15  and  C_16
REMARK    9  A    between atoms: C_20  and  O_21
REMARK   10  A    between atoms: O_21  and  C_22
REMARK   11  A    between atoms: C_22  and  C_23
REMARK   12  A    between atoms: C_23  and  O_24
REMARK                            x       y       z     vdW  Elec       q    Type
REMARK                         _______ _______ _______ _____ _____    ______ ____
ROOT
ATOM      1  C   UNL     1       3.018   6.560  19.929  0.00  0.00    +0.000 C 
ENDROOT
BRANCH   1   2
ATOM      2  C   UNL     1       2.153   7.760  19.580  0.00  0.00    +0.000 A 
ATOM      3  C   UNL     1       1.209   8.297  20.386  0.00  0.00    +0.000 A 
ATOM      4  C   UNL     1       0.791   7.691  21.703  0.00  0.00    +0.000 C 
ATOM      5  C   UNL     1       0.567   9.574  20.002  0.00  0.00    +0.000 A 
ATOM      6  C   UNL     1      -0.415  10.227  20.759  0.00  0.00    +0.000 A 
ATOM      7  C   UNL     1      -0.932  11.471  20.361  0.00  0.00    +0.000 A 
ATOM      8  C   UNL     1      -0.490  12.088  19.190  0.00  0.00    +0.000 A 
ATOM      9  C   UNL     1       0.488  11.458  18.431  0.00  0.00    +0.000 A 
ATOM     10  C   UNL     1       0.989  10.215  18.842  0.00  0.00    +0.000 A 
ATOM     11  O   UNL     1       1.957   9.641  18.006  0.00  0.00    +0.000 OA
ATOM     12  C   UNL     1       2.522   8.411  18.289  0.00  0.00    +0.000 A 
ATOM     13  O   UNL     1       3.312   7.898  17.504  0.00  0.00    +0.000 OA
BRANCH   8  14
ATOM     14  O   UNL     1      -1.051  13.306  18.910  0.00  0.00    +0.000 OA
BRANCH  14  15
ATOM     15  C   UNL     1      -0.125  14.349  18.569  0.00  0.00    +0.000 C 
BRANCH  15  16
ATOM     16  C   UNL     1      -0.500  15.609  19.347  0.00  0.00    +0.000 C 
BRANCH  16  17
ATOM     17  O   UNL     1      -0.986  16.618  18.465  0.00  0.00    +0.000 OA
ATOM     18  H   UNL     1      -1.960  16.571  18.510  0.00  0.00    +0.000 HD
ENDBRANCH  16  17
ENDBRANCH  15  16
ENDBRANCH  14  15
ENDBRANCH   8  14
ENDBRANCH   1   2
BRANCH   1  23
ATOM     19  C   UNL     1       4.156   3.844  17.466  0.00  0.00    +0.000 A 
ATOM     20  C   UNL     1       2.941   3.349  17.003  0.00  0.00    +0.000 A 
ATOM     21  C   UNL     1       1.750   3.881  17.497  0.00  0.00    +0.000 A 
ATOM     22  C   UNL     1       1.769   4.897  18.464  0.00  0.00    +0.000 A 
ATOM     23  C   UNL     1       2.980   5.385  18.971  0.00  0.00    +0.000 A 
ATOM     24  C   UNL     1       4.166   4.838  18.459  0.00  0.00    +0.000 A 
ATOM     25  F   UNL     1       5.353   5.311  18.879  0.00  0.00    +0.000 F 
BRANCH  19  26
ATOM     26  N   UNL     1       5.400   3.341  16.923  0.00  0.00    +0.000 N 
ATOM     27  H   UNL     1       5.188   2.522  16.353  0.00  0.00    +0.000 HD
BRANCH  26  28
ATOM     28  S   UNL     1       6.189   4.425  15.890  0.00  0.00    +0.000 S 
ATOM     29  O   UNL     1       7.507   4.714  16.394  0.00  0.00    +0.000 OA
ATOM     30  O   UNL     1       5.230   5.440  15.549  0.00  0.00    +0.000 OA
BRANCH  28  31
ATOM     31  N   UNL     1       6.332   3.423  14.547  0.00  0.00    +0.000 NA
ATOM     32  H   UNL     1       7.249   2.993  14.465  0.00  0.00    +0.000 HD
BRANCH  31  34
ATOM     33  C   UNL     1       6.549   3.540  12.108  0.00  0.00    +0.000 C 
ATOM     34  C   UNL     1       5.663   3.836  13.308  0.00  0.00    +0.000 C 
ENDBRANCH  31  34
ENDBRANCH  28  31
ENDBRANCH  26  28
ENDBRANCH  19  26
ENDBRANCH   1  23
TORSDOF 10
ENDMDL
MODEL 9
REMARK VINA RESULT:      -7.2      2.646      3.746
REMARK  Name = 
REMARK  12 active torsions:
REMARK  status: ('A' for Active; 'I' for Inactive)
REMARK    1  A    between atoms: C_1  and  C_2
REMARK    2  A    between atoms: C_2  and  N_3
REMARK    3  A    between atoms: N_3  and  S_4
REMARK    4  A    between atoms: S_4  and  N_7
REMARK    5  A    between atoms: N_7  and  C_8
REMARK    6  A    between atoms: C_12  and  C_13
REMARK    7  A    between atoms: C_13  and  C_14
REMARK    8  A    between atoms: C_15  and  C_16
REMARK    9  A    between atoms: C_20  and  O_21
REMARK   10  A    between atoms: O_21  and  C_22
REMARK   11  A    between atoms: C_22  and  C_23
REMARK   12  A    between atoms: C_23  and  O_24
REMARK                            x       y       z     vdW  Elec       q    Type
REMARK                         _______ _______ _______ _____ _____    ______ ____
ROOT
ATOM      1  C   UNL     1       2.524   6.636  20.250  0.00  0.00    +0.000 C 
ENDROOT
BRANCH   1   2
ATOM      2  C   UNL     1       1.845   7.908  19.768  0.00  0.00    +0.000 A 
ATOM      3  C   UNL     1       0.890   8.584  20.447  0.00  0.00    +0.000 A 
ATOM      4  C   UNL     1       0.268   8.090  21.729  0.00  0.00    +0.000 C 
ATOM      5  C   UNL     1       0.444   9.906  19.951  0.00  0.00    +0.000 A 
ATOM      6  C   UNL     1      -0.530  10.698  20.573  0.00  0.00    +0.000 A 
ATOM      7  C   UNL     1      -0.854  11.973  20.079  0.00  0.00    +0.000 A 
ATOM      8  C   UNL     1      -0.222  12.481  18.943  0.00  0.00    +0.000 A 
ATOM      9  C   UNL     1       0.751  11.712  18.318  0.00  0.00    +0.000 A 
ATOM     10  C   UNL     1       1.058  10.441  18.823  0.00  0.00    +0.000 A 
ATOM     11  O   UNL     1       2.035   9.724  18.119  0.00  0.00    +0.000 OA
ATOM     12  C   UNL     1       2.420   8.453  18.504  0.00  0.00    +0.000 A 
ATOM     13  O   UNL     1       3.224   7.820  17.828  0.00  0.00    +0.000 OA
BRANCH   8  14
ATOM     14  O   UNL     1      -0.605  13.740  18.562  0.00  0.00    +0.000 OA
BRANCH  14  15
ATOM     15  C   UNL     1      -0.591  14.731  19.600  0.00  0.00    +0.000 C 
BRANCH  15  16
ATOM     16  C   UNL     1      -0.058  16.040  19.019  0.00  0.00    +0.000 C 
BRANCH  16  17
ATOM     17  O   UNL     1      -1.114  16.794  18.429  0.00  0.00    +0.000 OA
ATOM     18  H   UNL     1      -1.816  16.852  19.104  0.00  0.00    +0.000 HD
ENDBRANCH  16  17
ENDBRANCH  15  16
ENDBRANCH  14  15
ENDBRANCH   8  14
ENDBRANCH   1   2
BRANCH   1  23
ATOM     19  C   UNL     1       4.021   4.043  17.849  0.00  0.00    +0.000 A 
ATOM     20  C   UNL     1       2.884   3.536  17.228  0.00  0.00    +0.000 A 
ATOM     21  C   UNL     1       1.628   4.018  17.596  0.00  0.00    +0.000 A 
ATOM     22  C   UNL     1       1.504   4.997  18.593  0.00  0.00    +0.000 A 
ATOM     23  C   UNL     1       2.632   5.497  19.255  0.00  0.00    +0.000 A 
ATOM     24  C   UNL     1       3.886   4.999  18.869  0.00  0.00    +0.000 A 
ATOM     25  F   UNL     1       5.000   5.486  19.442  0.00  0.00    +0.000 F 
BRANCH  19  26
ATOM     26  N   UNL     1       5.335   3.592  17.439  0.00  0.00    +0.000 N 
ATOM     27  H   UNL     1       5.251   2.627  17.118  0.00  0.00    +0.000 HD
BRANCH  26  28
ATOM     28  S   UNL     1       5.984   4.454  16.136  0.00  0.00    +0.000 S 
ATOM     29  O   UNL     1       5.359   5.748  16.041  0.00  0.00    +0.000 OA
ATOM     30  O   UNL     1       6.072   3.533  15.036  0.00  0.00    +0.000 OA
BRANCH  28  31
ATOM     31  N   UNL     1       7.546   4.652  16.728  0.00  0.00    +0.000 NA
ATOM     32  H   UNL     1       8.203   3.970  16.359  0.00  0.00    +0.000 HD
BRANCH  31  34
ATOM     33  C   UNL     1       7.769   6.570  18.238  0.00  0.00    +0.000 C 
ATOM     34  C   UNL     1       7.703   5.054  18.130  0.00  0.00    +0.000 C 
ENDBRANCH  31  34
ENDBRANCH  28  31
ENDBRANCH  26  28
ENDBRANCH  19  26
ENDBRANCH   1  23
TORSDOF 10
ENDMDL
