MODEL 1
REMARK VINA RESULT:      -7.8      0.000      0.000
REMARK  Name = 
REMARK  10 active torsions:
REMARK  status: ('A' for Active; 'I' for Inactive)
REMARK    1  A    between atoms: C_1  and  C_2
REMARK    2  A    between atoms: C_2  and  C_3
REMARK    3  A    between atoms: C_2  and  C_4
REMARK    4  A    between atoms: C_2  and  C_5
REMARK    5  A    between atoms: N_7  and  C_8
REMARK    6  A    between atoms: C_11  and  N_12
REMARK    7  A    between atoms: C_16  and  C_17
REMARK    8  A    between atoms: N_19  and  C_20
REMARK    9  A    between atoms: C_20  and  C_21
REMARK   10  A    between atoms: C_21  and  N_22
REMARK                            x       y       z     vdW  Elec       q    Type
REMARK                         _______ _______ _______ _____ _____    ______ ____
ROOT
ATOM      1  N   UNL     1       0.321  10.744  19.692  0.00  0.00    +0.000 N 
ATOM      2  C   UNL     1       0.908  11.782  20.405  0.00  0.00    +0.000 A 
ATOM      3  C   UNL     1       0.236  12.898  20.692  0.00  0.00    +0.000 A 
ATOM      4  C   UNL     1      -1.148  13.013  20.320  0.00  0.00    +0.000 A 
ATOM      5  C   UNL     1      -1.771  12.036  19.639  0.00  0.00    +0.000 A 
ATOM      6  C   UNL     1      -0.990  10.843  19.193  0.00  0.00    +0.000 A 
ATOM      7  O   UNL     1      -1.496  10.043  18.403  0.00  0.00    +0.000 OA
ENDROOT
BRANCH   1  11
ATOM      8  C   UNL     1       2.621   7.345  18.686  0.00  0.00    +0.000 A 
ATOM      9  C   UNL     1       2.086   7.508  19.968  0.00  0.00    +0.000 A 
ATOM     10  C   UNL     1       1.306   8.609  20.295  0.00  0.00    +0.000 A 
ATOM     11  C   UNL     1       1.072   9.592  19.341  0.00  0.00    +0.000 A 
ATOM     12  C   UNL     1       1.606   9.449  18.053  0.00  0.00    +0.000 A 
ATOM     13  C   UNL     1       2.379   8.333  17.724  0.00  0.00    +0.000 A 
BRANCH   8  16
ATOM     14  C   UNL     1       2.878   4.971  18.041  0.00  0.00    +0.000 C 
ATOM     15  O   UNL     1       1.677   4.727  17.941  0.00  0.00    +0.000 OA
ATOM     16  N   UNL     1       3.405   6.216  18.345  0.00  0.00    +0.000 N 
ATOM     17  H   UNL     1       4.395   6.375  18.210  0.00  0.00    +0.000 HD
BRANCH  14  19
ATOM     18  C   UNL     1       4.867   3.836  19.002  0.00  0.00    +0.000 C 
ATOM     19  C   UNL     1       3.899   3.851  17.796  0.00  0.00    +0.000 C 
ATOM     20  C   UNL     1       4.695   4.128  16.520  0.00  0.00    +0.000 C 
ATOM     21  C   UNL     1       3.196   2.495  17.721  0.00  0.00    +0.000 C 
ENDBRANCH  14  19
ENDBRANCH   8  16
ENDBRANCH   1  11
BRANCH   5  22
ATOM     22  C   UNL     1      -3.234  12.164  19.416  0.00  0.00    +0.000 C 
ATOM     23  O   UNL     1      -3.737  11.905  18.323  0.00  0.00    +0.000 OA
ATOM     24  N   UNL     1      -3.963  12.599  20.490  0.00  0.00    +0.000 N 
ATOM     25  H   UNL     1      -3.494  12.681  21.393  0.00  0.00    +0.000 HD
BRANCH  24  26
ATOM     26  C   UNL     1      -5.389  12.821  20.401  0.00  0.00    +0.000 C 
BRANCH  26  27
ATOM     27  C   UNL     1      -5.893  13.840  21.439  0.00  0.00    +0.000 C 
BRANCH  27  28
ATOM     28  N   UNL     1      -7.361  13.853  21.606  0.00  0.00    +0.000 NA
ATOM     29  C   UNL     1      -7.778  14.894  22.577  0.00  0.00    +0.000 C 
ATOM     30  C   UNL     1      -7.430  14.556  24.042  0.00  0.00    +0.000 C 
ATOM     31  O   UNL     1      -7.915  13.264  24.433  0.00  0.00    +0.000 OA
ATOM     32  C   UNL     1      -7.469  12.243  23.530  0.00  0.00    +0.000 C 
ATOM     33  C   UNL     1      -7.907  12.566  22.095  0.00  0.00    +0.000 C 
ENDBRANCH  27  28
ENDBRANCH  26  27
ENDBRANCH  24  26
ENDBRANCH   5  22
TORSDOF 7
ENDMDL
MODEL 2
REMARK VINA RESULT:      -7.7      3.905      6.766
REMARK  Name = 
REMARK  10 active torsions:
REMARK  status: ('A' for Active; 'I' for Inactive)
REMARK    1  A    between atoms: C_1  and  C_2
REMARK    2  A    between atoms: C_2  and  C_3
REMARK    3  A    between atoms: C_2  and  C_4
REMARK    4  A    between atoms: C_2  and  C_5
REMARK    5  A    between atoms: N_7  and  C_8
REMARK    6  A    between atoms: C_11  and  N_12
REMARK    7  A    between atoms: C_16  and  C_17
REMARK    8  A    between atoms: N_19  and  C_20
REMARK    9  A    between atoms: C_20  and  C_21
REMARK   10  A    between atoms: C_21  and  N_22
REMARK                            x       y       z     vdW  Elec       q    Type
REMARK                         _______ _______ _______ _____ _____    ______ ____
ROOT
ATOM      1  N   UNL     1       0.173  10.980  19.356  0.00  0.00    +0.000 N 
ATOM      2  C   UNL     1      -1.195  10.855  19.563  0.00  0.00    +0.000 A 
ATOM      3  C   UNL     1      -1.959  11.915  19.828  0.00  0.00    +0.000 A 
ATOM      4  C   UNL     1      -1.378  13.231  19.834  0.00  0.00    +0.000 A 
ATOM      5  C   UNL     1      -0.062  13.413  19.629  0.00  0.00    +0.000 A 
ATOM      6  C   UNL     1       0.824  12.221  19.469  0.00  0.00    +0.000 A 
ATOM      7  O   UNL     1       2.049  12.365  19.481  0.00  0.00    +0.000 OA
ENDROOT
BRANCH   1  11
ATOM      8  C   UNL     1       2.514   7.528  18.672  0.00  0.00    +0.000 A 
ATOM      9  C   UNL     1       2.279   8.461  17.658  0.00  0.00    +0.000 A 
ATOM     10  C   UNL     1       1.534   9.611  17.885  0.00  0.00    +0.000 A 
ATOM     11  C   UNL     1       0.980   9.832  19.140  0.00  0.00    +0.000 A 
ATOM     12  C   UNL     1       1.199   8.905  20.168  0.00  0.00    +0.000 A 
ATOM     13  C   UNL     1       1.960   7.756  19.938  0.00  0.00    +0.000 A 
BRANCH   8  16
ATOM     14  C   UNL     1       2.756   5.155  18.019  0.00  0.00    +0.000 C 
ATOM     15  O   UNL     1       1.582   4.982  17.697  0.00  0.00    +0.000 OA
ATOM     16  N   UNL     1       3.285   6.363  18.448  0.00  0.00    +0.000 N 
ATOM     17  H   UNL     1       4.290   6.467  18.498  0.00  0.00    +0.000 HD
BRANCH  14  19
ATOM     18  C   UNL     1       4.536   3.945  19.259  0.00  0.00    +0.000 C 
ATOM     19  C   UNL     1       3.744   3.983  17.932  0.00  0.00    +0.000 C 
ATOM     20  C   UNL     1       4.719   4.196  16.773  0.00  0.00    +0.000 C 
ATOM     21  C   UNL     1       2.990   2.661  17.778  0.00  0.00    +0.000 C 
ENDBRANCH  14  19
ENDBRANCH   8  16
ENDBRANCH   1  11
BRANCH   5  22
ATOM     22  C   UNL     1       0.439  14.806  19.509  0.00  0.00    +0.000 C 
ATOM     23  O   UNL     1       0.092  15.529  18.575  0.00  0.00    +0.000 OA
ATOM     24  N   UNL     1       1.308  15.211  20.485  0.00  0.00    +0.000 N 
ATOM     25  H   UNL     1       1.457  14.598  21.288  0.00  0.00    +0.000 HD
BRANCH  24  26
ATOM     26  C   UNL     1       1.916  16.523  20.465  0.00  0.00    +0.000 C 
BRANCH  26  27
ATOM     27  C   UNL     1       3.452  16.460  20.387  0.00  0.00    +0.000 C 
BRANCH  27  28
ATOM     28  N   UNL     1       4.021  17.103  19.183  0.00  0.00    +0.000 NA
ATOM     29  C   UNL     1       3.412  16.552  17.948  0.00  0.00    +0.000 C 
ATOM     30  C   UNL     1       3.862  15.114  17.617  0.00  0.00    +0.000 C 
ATOM     31  O   UNL     1       5.290  14.983  17.590  0.00  0.00    +0.000 OA
ATOM     32  C   UNL     1       5.882  15.462  18.805  0.00  0.00    +0.000 C 
ATOM     33  C   UNL     1       5.485  16.922  19.058  0.00  0.00    +0.000 C 
ENDBRANCH  27  28
ENDBRANCH  26  27
ENDBRANCH  24  26
ENDBRANCH   5  22
TORSDOF 7
ENDMDL
MODEL 3
REMARK VINA RESULT:      -7.6      1.303      1.747
REMARK  Name = 
REMARK  10 active torsions:
REMARK  status: ('A' for Active; 'I' for Inactive)
REMARK    1  A    between atoms: C_1  and  C_2
REMARK    2  A    between atoms: C_2  and  C_3
REMARK    3  A    between atoms: C_2  and  C_4
REMARK    4  A    between atoms: C_2  and  C_5
REMARK    5  A    between atoms: N_7  and  C_8
REMARK    6  A    between atoms: C_11  and  N_12
REMARK    7  A    between atoms: C_16  and  C_17
REMARK    8  A    between atoms: N_19  and  C_20
REMARK    9  A    between atoms: C_20  and  C_21
REMARK   10  A    between atoms: C_21  and  N_22
REMARK                            x       y       z     vdW  Elec       q    Type
REMARK                         _______ _______ _______ _____ _____    ______ ____
ROOT
ATOM      1  N   UNL     1       0.511  10.677  18.796  0.00  0.00    +0.000 N 
ATOM      2  C   UNL     1       1.176  11.892  18.901  0.00  0.00    +0.000 A 
ATOM      3  C   UNL     1       0.537  13.052  18.738  0.00  0.00    +0.000 A 
ATOM      4  C   UNL     1      -0.884  13.060  18.517  0.00  0.00    +0.000 A 
ATOM      5  C   UNL     1      -1.580  11.913  18.417  0.00  0.00    +0.000 A 
ATOM      6  C   UNL     1      -0.852  10.610  18.460  0.00  0.00    +0.000 A 
ATOM      7  O   UNL     1      -1.447   9.569  18.171  0.00  0.00    +0.000 OA
ENDROOT
BRANCH   1  11
ATOM      8  C   UNL     1       2.566   6.995  19.087  0.00  0.00    +0.000 A 
ATOM      9  C   UNL     1       2.544   7.724  17.894  0.00  0.00    +0.000 A 
ATOM     10  C   UNL     1       1.894   8.948  17.801  0.00  0.00    +0.000 A 
ATOM     11  C   UNL     1       1.221   9.453  18.907  0.00  0.00    +0.000 A 
ATOM     12  C   UNL     1       1.227   8.733  20.110  0.00  0.00    +0.000 A 
ATOM     13  C   UNL     1       1.893   7.508  20.202  0.00  0.00    +0.000 A 
BRANCH   8  16
ATOM     14  C   UNL     1       2.668   4.534  18.864  0.00  0.00    +0.000 C 
ATOM     15  O   UNL     1       1.552   4.396  18.368  0.00  0.00    +0.000 OA
ATOM     16  N   UNL     1       3.239   5.754  19.188  0.00  0.00    +0.000 N 
ATOM     17  H   UNL     1       4.229   5.791  19.401  0.00  0.00    +0.000 HD
BRANCH  14  19
ATOM     18  C   UNL     1       3.093   2.720  20.507  0.00  0.00    +0.000 C 
ATOM     19  C   UNL     1       3.531   3.294  19.139  0.00  0.00    +0.000 C 
ATOM     20  C   UNL     1       5.009   3.681  19.210  0.00  0.00    +0.000 C 
ATOM     21  C   UNL     1       3.294   2.230  18.066  0.00  0.00    +0.000 C 
ENDBRANCH  14  19
ENDBRANCH   8  16
ENDBRANCH   1  11
BRANCH   5  22
ATOM     22  C   UNL     1      -3.060  12.002  18.331  0.00  0.00    +0.000 C 
ATOM     23  O   UNL     1      -3.659  11.683  17.304  0.00  0.00    +0.000 OA
ATOM     24  N   UNL     1      -3.693  12.471  19.450  0.00  0.00    +0.000 N 
ATOM     25  H   UNL     1      -3.142  12.604  20.299  0.00  0.00    +0.000 HD
BRANCH  24  26
ATOM     26  C   UNL     1      -5.126  12.661  19.489  0.00  0.00    +0.000 C 
BRANCH  26  27
ATOM     27  C   UNL     1      -5.725  12.343  20.871  0.00  0.00    +0.000 C 
BRANCH  27  28
ATOM     28  N   UNL     1      -6.436  13.480  21.494  0.00  0.00    +0.000 NA
ATOM     29  C   UNL     1      -5.546  14.659  21.623  0.00  0.00    +0.000 C 
ATOM     30  C   UNL     1      -4.460  14.506  22.708  0.00  0.00    +0.000 C 
ATOM     31  O   UNL     1      -5.009  14.135  23.980  0.00  0.00    +0.000 OA
ATOM     32  C   UNL     1      -5.827  12.961  23.873  0.00  0.00    +0.000 C 
ATOM     33  C   UNL     1      -6.950  13.179  22.850  0.00  0.00    +0.000 C 
ENDBRANCH  27  28
ENDBRANCH  26  27
ENDBRANCH  24  26
ENDBRANCH   5  22
TORSDOF 7
ENDMDL
MODEL 4
REMARK VINA RESULT:      -7.5      1.225      1.605
REMARK  Name = 
REMARK  10 active torsions:
REMARK  status: ('A' for Active; 'I' for Inactive)
REMARK    1  A    between atoms: C_1  and  C_2
REMARK    2  A    between atoms: C_2  and  C_3
REMARK    3  A    between atoms: C_2  and  C_4
REMARK    4  A    between atoms: C_2  and  C_5
REMARK    5  A    between atoms: N_7  and  C_8
REMARK    6  A    between atoms: C_11  and  N_12
REMARK    7  A    between atoms: C_16  and  C_17
REMARK    8  A    between atoms: N_19  and  C_20
REMARK    9  A    between atoms: C_20  and  C_21
REMARK   10  A    between atoms: C_21  and  N_22
REMARK                            x       y       z     vdW  Elec       q    Type
REMARK                         _______ _______ _______ _____ _____    ______ ____
ROOT
ATOM      1  N   UNL     1       0.629  10.815  18.960  0.00  0.00    +0.000 N 
ATOM      2  C   UNL     1       1.395  11.962  18.793  0.00  0.00    +0.000 A 
ATOM      3  C   UNL     1       0.831  13.166  18.685  0.00  0.00    +0.000 A 
ATOM      4  C   UNL     1      -0.595  13.301  18.811  0.00  0.00    +0.000 A 
ATOM      5  C   UNL     1      -1.385  12.226  18.984  0.00  0.00    +0.000 A 
ATOM      6  C   UNL     1      -0.776  10.862  18.968  0.00  0.00    +0.000 A 
ATOM      7  O   UNL     1      -1.506   9.869  18.925  0.00  0.00    +0.000 OA
ENDROOT
BRANCH   1  11
ATOM      8  C   UNL     1       2.521   7.040  19.142  0.00  0.00    +0.000 A 
ATOM      9  C   UNL     1       1.886   7.591  20.259  0.00  0.00    +0.000 A 
ATOM     10  C   UNL     1       1.239   8.818  20.197  0.00  0.00    +0.000 A 
ATOM     11  C   UNL     1       1.243   9.536  19.007  0.00  0.00    +0.000 A 
ATOM     12  C   UNL     1       1.880   9.003  17.878  0.00  0.00    +0.000 A 
ATOM     13  C   UNL     1       2.519   7.762  17.942  0.00  0.00    +0.000 A 
BRANCH   8  16
ATOM     14  C   UNL     1       2.610   4.602  18.737  0.00  0.00    +0.000 C 
ATOM     15  O   UNL     1       1.534   4.523  18.146  0.00  0.00    +0.000 OA
ATOM     16  N   UNL     1       3.169   5.783  19.198  0.00  0.00    +0.000 N 
ATOM     17  H   UNL     1       4.138   5.785  19.490  0.00  0.00    +0.000 HD
BRANCH  14  19
ATOM     18  C   UNL     1       4.925   3.729  18.949  0.00  0.00    +0.000 C 
ATOM     19  C   UNL     1       3.432   3.329  18.981  0.00  0.00    +0.000 C 
ATOM     20  C   UNL     1       3.166   2.305  17.876  0.00  0.00    +0.000 C 
ATOM     21  C   UNL     1       3.115   2.744  20.359  0.00  0.00    +0.000 C 
ENDBRANCH  14  19
ENDBRANCH   8  16
ENDBRANCH   1  11
BRANCH   5  22
ATOM     22  C   UNL     1      -2.828  12.457  19.248  0.00  0.00    +0.000 C 
ATOM     23  O   UNL     1      -3.695  11.853  18.617  0.00  0.00    +0.000 OA
ATOM     24  N   UNL     1      -3.115  13.382  20.215  0.00  0.00    +0.000 N 
ATOM     25  H   UNL     1      -2.346  13.753  20.774  0.00  0.00    +0.000 HD
BRANCH  24  26
ATOM     26  C   UNL     1      -4.476  13.746  20.539  0.00  0.00    +0.000 C 
BRANCH  26  27
ATOM     27  C   UNL     1      -5.043  12.925  21.711  0.00  0.00    +0.000 C 
BRANCH  27  28
ATOM     28  N   UNL     1      -4.917  13.588  23.026  0.00  0.00    +0.000 NA
ATOM     29  C   UNL     1      -5.558  12.781  24.093  0.00  0.00    +0.000 C 
ATOM     30  C   UNL     1      -7.100  12.782  24.035  0.00  0.00    +0.000 C 
ATOM     31  O   UNL     1      -7.643  14.110  23.997  0.00  0.00    +0.000 OA
ATOM     32  C   UNL     1      -7.068  14.879  22.932  0.00  0.00    +0.000 C 
ATOM     33  C   UNL     1      -5.540  14.930  23.070  0.00  0.00    +0.000 C 
ENDBRANCH  27  28
ENDBRANCH  26  27
ENDBRANCH  24  26
ENDBRANCH   5  22
TORSDOF 7
ENDMDL
MODEL 5
REMARK VINA RESULT:      -7.4      1.277      1.868
REMARK  Name = 
REMARK  10 active torsions:
REMARK  status: ('A' for Active; 'I' for Inactive)
REMARK    1  A    between atoms: C_1  and  C_2
REMARK    2  A    between atoms: C_2  and  C_3
REMARK    3  A    between atoms: C_2  and  C_4
REMARK    4  A    between atoms: C_2  and  C_5
REMARK    5  A    between atoms: N_7  and  C_8
REMARK    6  A    between atoms: C_11  and  N_12
REMARK    7  A    between atoms: C_16  and  C_17
REMARK    8  A    between atoms: N_19  and  C_20
REMARK    9  A    between atoms: C_20  and  C_21
REMARK   10  A    between atoms: C_21  and  N_22
REMARK                            x       y       z     vdW  Elec       q    Type
REMARK                         _______ _______ _______ _____ _____    ______ ____
ROOT
ATOM      1  N   UNL     1       0.608  10.932  19.261  0.00  0.00    +0.000 N 
ATOM      2  C   UNL     1       1.313  12.123  19.385  0.00  0.00    +0.000 A 
ATOM      3  C   UNL     1       0.687  13.297  19.485  0.00  0.00    +0.000 A 
ATOM      4  C   UNL     1      -0.749  13.337  19.535  0.00  0.00    +0.000 A 
ATOM      5  C   UNL     1      -1.483  12.215  19.430  0.00  0.00    +0.000 A 
ATOM      6  C   UNL     1      -0.795  10.913  19.180  0.00  0.00    +0.000 A 
ATOM      7  O   UNL     1      -1.461   9.918  18.884  0.00  0.00    +0.000 OA
ENDROOT
BRANCH   1  11
ATOM      8  C   UNL     1       2.583   7.237  18.711  0.00  0.00    +0.000 A 
ATOM      9  C   UNL     1       2.488   8.173  17.676  0.00  0.00    +0.000 A 
ATOM     10  C   UNL     1       1.865   9.400  17.860  0.00  0.00    +0.000 A 
ATOM     11  C   UNL     1       1.293   9.701  19.090  0.00  0.00    +0.000 A 
ATOM     12  C   UNL     1       1.372   8.773  20.137  0.00  0.00    +0.000 A 
ATOM     13  C   UNL     1       2.012   7.544  19.951  0.00  0.00    +0.000 A 
BRANCH   8  16
ATOM     14  C   UNL     1       2.603   4.855  18.045  0.00  0.00    +0.000 C 
ATOM     15  O   UNL     1       1.445   4.820  17.632  0.00  0.00    +0.000 OA
ATOM     16  N   UNL     1       3.231   5.991  18.530  0.00  0.00    +0.000 N 
ATOM     17  H   UNL     1       4.235   5.979  18.659  0.00  0.00    +0.000 HD
BRANCH  14  19
ATOM     18  C   UNL     1       2.503   2.395  17.717  0.00  0.00    +0.000 C 
ATOM     19  C   UNL     1       3.453   3.577  18.018  0.00  0.00    +0.000 C 
ATOM     20  C   UNL     1       4.115   3.352  19.379  0.00  0.00    +0.000 C 
ATOM     21  C   UNL     1       4.500   3.655  16.905  0.00  0.00    +0.000 C 
ENDBRANCH  14  19
ENDBRANCH   8  16
ENDBRANCH   1  11
BRANCH   5  22
ATOM     22  C   UNL     1      -2.951  12.321  19.633  0.00  0.00    +0.000 C 
ATOM     23  O   UNL     1      -3.427  12.505  20.753  0.00  0.00    +0.000 OA
ATOM     24  N   UNL     1      -3.718  12.185  18.507  0.00  0.00    +0.000 N 
ATOM     25  H   UNL     1      -3.248  12.152  17.602  0.00  0.00    +0.000 HD
BRANCH  24  26
ATOM     26  C   UNL     1      -5.162  12.212  18.564  0.00  0.00    +0.000 C 
BRANCH  26  27
ATOM     27  C   UNL     1      -5.694  13.281  19.536  0.00  0.00    +0.000 C 
BRANCH  27  28
ATOM     28  N   UNL     1      -7.154  13.217  19.760  0.00  0.00    +0.000 NA
ATOM     29  C   UNL     1      -7.509  13.727  21.106  0.00  0.00    +0.000 C 
ATOM     30  C   UNL     1      -7.105  12.782  22.258  0.00  0.00    +0.000 C 
ATOM     31  O   UNL     1      -7.597  11.449  22.067  0.00  0.00    +0.000 OA
ATOM     32  C   UNL     1      -7.210  10.928  20.788  0.00  0.00    +0.000 C 
ATOM     33  C   UNL     1      -7.703  11.845  19.661  0.00  0.00    +0.000 C 
ENDBRANCH  27  28
ENDBRANCH  26  27
ENDBRANCH  24  26
ENDBRANCH   5  22
TORSDOF 7
ENDMDL
MODEL 6
REMARK VINA RESULT:      -7.3      2.026      2.753
REMARK  Name = 
REMARK  10 active torsions:
REMARK  status: ('A' for Active; 'I' for Inactive)
REMARK    1  A    between atoms: C_1  and  C_2
REMARK    2  A    between atoms: C_2  and  C_3
REMARK    3  A    between atoms: C_2  and  C_4
REMARK    4  A    between atoms: C_2  and  C_5
REMARK    5  A    between atoms: N_7  and  C_8
REMARK    6  A    between atoms: C_11  and  N_12
REMARK    7  A    between atoms: C_16  and  C_17
REMARK    8  A    between atoms: N_19  and  C_20
REMARK    9  A    between atoms: C_20  and  C_21
REMARK   10  A    between atoms: C_21  and  N_22
REMARK                            x       y       z     vdW  Elec       q    Type
REMARK                         _______ _______ _______ _____ _____    ______ ____
ROOT
ATOM      1  N   UNL     1       0.371  10.832  19.624  0.00  0.00    +0.000 N 
ATOM      2  C   UNL     1       1.043  11.948  20.106  0.00  0.00    +0.000 A 
ATOM      3  C   UNL     1       0.408  13.098  20.337  0.00  0.00    +0.000 A 
ATOM      4  C   UNL     1      -1.016  13.177  20.153  0.00  0.00    +0.000 A 
ATOM      5  C   UNL     1      -1.720  12.125  19.699  0.00  0.00    +0.000 A 
ATOM      6  C   UNL     1      -0.998  10.877  19.307  0.00  0.00    +0.000 A 
ATOM      7  O   UNL     1      -1.602   9.986  18.706  0.00  0.00    +0.000 OA
ENDROOT
BRANCH   1  11
ATOM      8  C   UNL     1       2.533   7.303  18.770  0.00  0.00    +0.000 A 
ATOM      9  C   UNL     1       1.947   7.513  20.022  0.00  0.00    +0.000 A 
ATOM     10  C   UNL     1       1.213   8.658  20.299  0.00  0.00    +0.000 A 
ATOM     11  C   UNL     1       1.076   9.638  19.323  0.00  0.00    +0.000 A 
ATOM     12  C   UNL     1       1.661   9.448  18.064  0.00  0.00    +0.000 A 
ATOM     13  C   UNL     1       2.389   8.288  17.786  0.00  0.00    +0.000 A 
BRANCH   8  16
ATOM     14  C   UNL     1       2.704   4.953  18.017  0.00  0.00    +0.000 C 
ATOM     15  O   UNL     1       1.519   4.820  17.718  0.00  0.00    +0.000 OA
ATOM     16  N   UNL     1       3.271   6.130  18.481  0.00  0.00    +0.000 N 
ATOM     17  H   UNL     1       4.280   6.209  18.510  0.00  0.00    +0.000 HD
BRANCH  14  19
ATOM     18  C   UNL     1       4.584   4.067  16.657  0.00  0.00    +0.000 C 
ATOM     19  C   UNL     1       3.661   3.763  17.860  0.00  0.00    +0.000 C 
ATOM     20  C   UNL     1       2.874   2.483  17.575  0.00  0.00    +0.000 C 
ATOM     21  C   UNL     1       4.528   3.606  19.110  0.00  0.00    +0.000 C 
ENDBRANCH  14  19
ENDBRANCH   8  16
ENDBRANCH   1  11
BRANCH   5  22
ATOM     22  C   UNL     1      -3.200  12.237  19.670  0.00  0.00    +0.000 C 
ATOM     23  O   UNL     1      -3.832  12.584  20.668  0.00  0.00    +0.000 OA
ATOM     24  N   UNL     1      -3.797  11.918  18.480  0.00  0.00    +0.000 N 
ATOM     25  H   UNL     1      -3.202  11.753  17.668  0.00  0.00    +0.000 HD
BRANCH  24  26
ATOM     26  C   UNL     1      -5.234  11.930  18.324  0.00  0.00    +0.000 C 
BRANCH  26  27
ATOM     27  C   UNL     1      -5.897  13.113  19.053  0.00  0.00    +0.000 C 
BRANCH  27  28
ATOM     28  N   UNL     1      -7.305  13.344  18.668  0.00  0.00    +0.000 NA
ATOM     29  C   UNL     1      -7.426  13.588  17.210  0.00  0.00    +0.000 C 
ATOM     30  C   UNL     1      -6.885  14.961  16.759  0.00  0.00    +0.000 C 
ATOM     31  O   UNL     1      -7.452  16.043  17.510  0.00  0.00    +0.000 OA
ATOM     32  C   UNL     1      -7.290  15.842  18.921  0.00  0.00    +0.000 C 
ATOM     33  C   UNL     1      -7.916  14.509  19.350  0.00  0.00    +0.000 C 
ENDBRANCH  27  28
ENDBRANCH  26  27
ENDBRANCH  24  26
ENDBRANCH   5  22
TORSDOF 7
ENDMDL
MODEL 7
REMARK VINA RESULT:      -7.3      3.816      6.828
REMARK  Name = 
REMARK  10 active torsions:
REMARK  status: ('A' for Active; 'I' for Inactive)
REMARK    1  A    between atoms: C_1  and  C_2
REMARK    2  A    between atoms: C_2  and  C_3
REMARK    3  A    between atoms: C_2  and  C_4
REMARK    4  A    between atoms: C_2  and  C_5
REMARK    5  A    between atoms: N_7  and  C_8
REMARK    6  A    between atoms: C_11  and  N_12
REMARK    7  A    between atoms: C_16  and  C_17
REMARK    8  A    between atoms: N_19  and  C_20
REMARK    9  A    between atoms: C_20  and  C_21
REMARK   10  A    between atoms: C_21  and  N_22
REMARK                            x       y       z     vdW  Elec       q    Type
REMARK                         _______ _______ _______ _____ _____    ______ ____
ROOT
ATOM      1  N   UNL     1       0.013  10.975  19.334  0.00  0.00    +0.000 N 
ATOM      2  C   UNL     1      -1.372  10.867  19.335  0.00  0.00    +0.000 A 
ATOM      3  C   UNL     1      -2.154  11.923  19.566  0.00  0.00    +0.000 A 
ATOM      4  C   UNL     1      -1.563  13.221  19.751  0.00  0.00    +0.000 A 
ATOM      5  C   UNL     1      -0.229  13.387  19.749  0.00  0.00    +0.000 A 
ATOM      6  C   UNL     1       0.656  12.190  19.629  0.00  0.00    +0.000 A 
ATOM      7  O   UNL     1       1.868  12.306  19.826  0.00  0.00    +0.000 OA
ENDROOT
BRANCH   1  11
ATOM      8  C   UNL     1       2.500   7.596  18.832  0.00  0.00    +0.000 A 
ATOM      9  C   UNL     1       1.882   7.869  20.056  0.00  0.00    +0.000 A 
ATOM     10  C   UNL     1       1.042   8.963  20.218  0.00  0.00    +0.000 A 
ATOM     11  C   UNL     1       0.828   9.828  19.152  0.00  0.00    +0.000 A 
ATOM     12  C   UNL     1       1.444   9.574  17.919  0.00  0.00    +0.000 A 
ATOM     13  C   UNL     1       2.279   8.465  17.757  0.00  0.00    +0.000 A 
BRANCH   8  16
ATOM     14  C   UNL     1       2.915   5.246  18.183  0.00  0.00    +0.000 C 
ATOM     15  O   UNL     1       1.780   5.015  17.772  0.00  0.00    +0.000 OA
ATOM     16  N   UNL     1       3.345   6.474  18.660  0.00  0.00    +0.000 N 
ATOM     17  H   UNL     1       4.338   6.629  18.787  0.00  0.00    +0.000 HD
BRANCH  14  19
ATOM     18  C   UNL     1       5.135   4.574  19.072  0.00  0.00    +0.000 C 
ATOM     19  C   UNL     1       3.966   4.126  18.165  0.00  0.00    +0.000 C 
ATOM     20  C   UNL     1       4.489   3.913  16.744  0.00  0.00    +0.000 C 
ATOM     21  C   UNL     1       3.378   2.833  18.733  0.00  0.00    +0.000 C 
ENDBRANCH  14  19
ENDBRANCH   8  16
ENDBRANCH   1  11
BRANCH   5  22
ATOM     22  C   UNL     1       0.301  14.774  19.804  0.00  0.00    +0.000 C 
ATOM     23  O   UNL     1       0.113  15.489  20.788  0.00  0.00    +0.000 OA
ATOM     24  N   UNL     1       0.985  15.192  18.694  0.00  0.00    +0.000 N 
ATOM     25  H   UNL     1       1.199  14.506  17.970  0.00  0.00    +0.000 HD
BRANCH  24  26
ATOM     26  C   UNL     1       1.509  16.535  18.587  0.00  0.00    +0.000 C 
BRANCH  26  27
ATOM     27  C   UNL     1       3.028  16.557  18.334  0.00  0.00    +0.000 C 
BRANCH  27  28
ATOM     28  N   UNL     1       3.828  15.957  19.422  0.00  0.00    +0.000 NA
ATOM     29  C   UNL     1       4.891  16.886  19.876  0.00  0.00    +0.000 C 
ATOM     30  C   UNL     1       6.048  17.053  18.868  0.00  0.00    +0.000 C 
ATOM     31  O   UNL     1       6.603  15.793  18.464  0.00  0.00    +0.000 OA
ATOM     32  C   UNL     1       5.588  14.909  17.971  0.00  0.00    +0.000 C 
ATOM     33  C   UNL     1       4.498  14.696  19.030  0.00  0.00    +0.000 C 
ENDBRANCH  27  28
ENDBRANCH  26  27
ENDBRANCH  24  26
ENDBRANCH   5  22
TORSDOF 7
ENDMDL
MODEL 8
REMARK VINA RESULT:      -7.3      3.922      6.844
REMARK  Name = 
REMARK  10 active torsions:
REMARK  status: ('A' for Active; 'I' for Inactive)
REMARK    1  A    between atoms: C_1  and  C_2
REMARK    2  A    between atoms: C_2  and  C_3
REMARK    3  A    between atoms: C_2  and  C_4
REMARK    4  A    between atoms: C_2  and  C_5
REMARK    5  A    between atoms: N_7  and  C_8
REMARK    6  A    between atoms: C_11  and  N_12
REMARK    7  A    between atoms: C_16  and  C_17
REMARK    8  A    between atoms: N_19  and  C_20
REMARK    9  A    between atoms: C_20  and  C_21
REMARK   10  A    between atoms: C_21  and  N_22
REMARK                            x       y       z     vdW  Elec       q    Type
REMARK                         _______ _______ _______ _____ _____    ______ ____
ROOT
ATOM      1  N   UNL     1       0.152  10.841  19.261  0.00  0.00    +0.000 N 
ATOM      2  C   UNL     1      -1.226  10.716  19.392  0.00  0.00    +0.000 A 
ATOM      3  C   UNL     1      -2.002  11.775  19.628  0.00  0.00    +0.000 A 
ATOM      4  C   UNL     1      -1.421  13.089  19.681  0.00  0.00    +0.000 A 
ATOM      5  C   UNL     1      -0.095  13.271  19.551  0.00  0.00    +0.000 A 
ATOM      6  C   UNL     1       0.797  12.080  19.424  0.00  0.00    +0.000 A 
ATOM      7  O   UNL     1       2.020  12.221  19.505  0.00  0.00    +0.000 OA
ENDROOT
BRANCH   1  11
ATOM      8  C   UNL     1       2.519   7.391  18.670  0.00  0.00    +0.000 A 
ATOM      9  C   UNL     1       2.266   8.287  17.628  0.00  0.00    +0.000 A 
ATOM     10  C   UNL     1       1.512   9.437  17.823  0.00  0.00    +0.000 A 
ATOM     11  C   UNL     1       0.967   9.695  19.076  0.00  0.00    +0.000 A 
ATOM     12  C   UNL     1       1.205   8.805  20.132  0.00  0.00    +0.000 A 
ATOM     13  C   UNL     1       1.975   7.655  19.933  0.00  0.00    +0.000 A 
BRANCH   8  16
ATOM     14  C   UNL     1       2.788   5.016  18.033  0.00  0.00    +0.000 C 
ATOM     15  O   UNL     1       1.627   4.840  17.670  0.00  0.00    +0.000 OA
ATOM     16  N   UNL     1       3.299   6.226  18.477  0.00  0.00    +0.000 N 
ATOM     17  H   UNL     1       4.302   6.331  18.563  0.00  0.00    +0.000 HD
BRANCH  14  19
ATOM     18  C   UNL     1       4.589   3.870  19.302  0.00  0.00    +0.000 C 
ATOM     19  C   UNL     1       3.779   3.845  17.985  0.00  0.00    +0.000 C 
ATOM     20  C   UNL     1       4.739   4.009  16.805  0.00  0.00    +0.000 C 
ATOM     21  C   UNL     1       3.030   2.514  17.901  0.00  0.00    +0.000 C 
ENDBRANCH  14  19
ENDBRANCH   8  16
ENDBRANCH   1  11
BRANCH   5  22
ATOM     22  C   UNL     1       0.414  14.665  19.474  0.00  0.00    +0.000 C 
ATOM     23  O   UNL     1       0.028  15.436  18.596  0.00  0.00    +0.000 OA
ATOM     24  N   UNL     1       1.335  15.014  20.424  0.00  0.00    +0.000 N 
ATOM     25  H   UNL     1       1.517  14.360  21.187  0.00  0.00    +0.000 HD
BRANCH  24  26
ATOM     26  C   UNL     1       1.955  16.320  20.438  0.00  0.00    +0.000 C 
BRANCH  26  27
ATOM     27  C   UNL     1       3.389  16.299  19.879  0.00  0.00    +0.000 C 
BRANCH  27  28
ATOM     28  N   UNL     1       4.003  14.955  19.849  0.00  0.00    +0.000 NA
ATOM     29  C   UNL     1       5.164  14.879  20.769  0.00  0.00    +0.000 C 
ATOM     30  C   UNL     1       6.402  15.657  20.277  0.00  0.00    +0.000 C 
ATOM     31  O   UNL     1       6.779  15.293  18.942  0.00  0.00    +0.000 OA
ATOM     32  C   UNL     1       5.675  15.418  18.035  0.00  0.00    +0.000 C 
ATOM     33  C   UNL     1       4.492  14.563  18.507  0.00  0.00    +0.000 C 
ENDBRANCH  27  28
ENDBRANCH  26  27
ENDBRANCH  24  26
ENDBRANCH   5  22
TORSDOF 7
ENDMDL
MODEL 9
REMARK VINA RESULT:      -7.2      3.808      6.356
REMARK  Name = 
REMARK  10 active torsions:
REMARK  status: ('A' for Active; 'I' for Inactive)
REMARK    1  A    between atoms: C_1  and  C_2
REMARK    2  A    between atoms: C_2  and  C_3
REMARK    3  A    between atoms: C_2  and  C_4
REMARK    4  A    between atoms: C_2  and  C_5
REMARK    5  A    between atoms: N_7  and  C_8
REMARK    6  A    between atoms: C_11  and  N_12
REMARK    7  A    between atoms: C_16  and  C_17
REMARK    8  A    between atoms: N_19  and  C_20
REMARK    9  A    between atoms: C_20  and  C_21
REMARK   10  A    between atoms: C_21  and  N_22
REMARK                            x       y       z     vdW  Elec       q    Type
REMARK                         _______ _______ _______ _____ _____    ______ ____
ROOT
ATOM      1  N   UNL     1       0.043  10.733  19.335  0.00  0.00    +0.000 N 
ATOM      2  C   UNL     1      -1.309  10.638  19.030  0.00  0.00    +0.000 A 
ATOM      3  C   UNL     1      -2.150  11.644  19.275  0.00  0.00    +0.000 A 
ATOM      4  C   UNL     1      -1.647  12.884  19.802  0.00  0.00    +0.000 A 
ATOM      5  C   UNL     1      -0.346  13.036  20.106  0.00  0.00    +0.000 A 
ATOM      6  C   UNL     1       0.578  11.871  19.964  0.00  0.00    +0.000 A 
ATOM      7  O   UNL     1       1.720  11.938  20.424  0.00  0.00    +0.000 OA
ENDROOT
BRANCH   1  11
ATOM      8  C   UNL     1       2.566   7.407  18.674  0.00  0.00    +0.000 A 
ATOM      9  C   UNL     1       2.308   8.338  17.662  0.00  0.00    +0.000 A 
ATOM     10  C   UNL     1       1.502   9.447  17.882  0.00  0.00    +0.000 A 
ATOM     11  C   UNL     1       0.910   9.628  19.127  0.00  0.00    +0.000 A 
ATOM     12  C   UNL     1       1.152   8.703  20.151  0.00  0.00    +0.000 A 
ATOM     13  C   UNL     1       1.974   7.595  19.928  0.00  0.00    +0.000 A 
BRANCH   8  16
ATOM     14  C   UNL     1       2.937   5.051  18.021  0.00  0.00    +0.000 C 
ATOM     15  O   UNL     1       1.777   4.818  17.687  0.00  0.00    +0.000 OA
ATOM     16  N   UNL     1       3.398   6.283  18.456  0.00  0.00    +0.000 N 
ATOM     17  H   UNL     1       4.397   6.439  18.516  0.00  0.00    +0.000 HD
BRANCH  14  19
ATOM     18  C   UNL     1       4.809   4.157  16.654  0.00  0.00    +0.000 C 
ATOM     19  C   UNL     1       3.985   3.931  17.943  0.00  0.00    +0.000 C 
ATOM     20  C   UNL     1       3.298   2.567  17.864  0.00  0.00    +0.000 C 
ATOM     21  C   UNL     1       4.930   4.000  19.143  0.00  0.00    +0.000 C 
ENDBRANCH  14  19
ENDBRANCH   8  16
ENDBRANCH   1  11
BRANCH   5  22
ATOM     22  C   UNL     1       0.123  14.386  20.510  0.00  0.00    +0.000 C 
ATOM     23  O   UNL     1      -0.285  15.398  19.941  0.00  0.00    +0.000 OA
ATOM     24  N   UNL     1       1.035  14.418  21.530  0.00  0.00    +0.000 N 
ATOM     25  H   UNL     1       1.235  13.549  22.028  0.00  0.00    +0.000 HD
BRANCH  24  26
ATOM     26  C   UNL     1       1.617  15.658  21.991  0.00  0.00    +0.000 C 
BRANCH  26  27
ATOM     27  C   UNL     1       3.037  15.883  21.442  0.00  0.00    +0.000 C 
BRANCH  27  28
ATOM     28  N   UNL     1       3.290  17.261  20.973  0.00  0.00    +0.000 NA
ATOM     29  C   UNL     1       2.330  17.646  19.909  0.00  0.00    +0.000 C 
ATOM     30  C   UNL     1       2.581  16.944  18.558  0.00  0.00    +0.000 C 
ATOM     31  O   UNL     1       3.935  17.095  18.109  0.00  0.00    +0.000 OA
ATOM     32  C   UNL     1       4.868  16.672  19.112  0.00  0.00    +0.000 C 
ATOM     33  C   UNL     1       4.649  17.452  20.415  0.00  0.00    +0.000 C 
ENDBRANCH  27  28
ENDBRANCH  26  27
ENDBRANCH  24  26
ENDBRANCH   5  22
TORSDOF 7
ENDMDL
