MODEL 1
REMARK VINA RESULT:      -7.6      0.000      0.000
REMARK  Name = 
REMARK  8 active torsions:
REMARK  status: ('A' for Active; 'I' for Inactive)
REMARK    1  A    between atoms: C_1  and  C_2
REMARK    2  A    between atoms: C_5  and  O_6
REMARK    3  A    between atoms: O_6  and  C_7
REMARK    4  A    between atoms: C_7  and  C_8
REMARK    5  A    between atoms: N_10  and  C_11
REMARK    6  A    between atoms: C_11  and  C_12
REMARK    7  A    between atoms: C_16  and  C_17
REMARK    8  A    between atoms: C_19  and  C_20
REMARK                            x       y       z     vdW  Elec       q    Type
REMARK                         _______ _______ _______ _____ _____    ______ ____
ROOT
ATOM      1  C   UNL     1       4.707   6.092  17.682  0.00  0.00    +0.000 C 
ATOM      2  O   UNL     1       5.457   5.868  18.632  0.00  0.00    +0.000 OA
ATOM      3  N   UNL     1       4.848   5.449  16.470  0.00  0.00    +0.000 N 
ATOM      4  H   UNL     1       4.269   5.724  15.680  0.00  0.00    +0.000 HD
ENDROOT
BRANCH   1   5
ATOM      5  C   UNL     1       3.539   7.086  17.766  0.00  0.00    +0.000 C 
BRANCH   5   6
ATOM      6  O   UNL     1       2.304   6.380  17.727  0.00  0.00    +0.000 OA
BRANCH   6  11
ATOM      7  C   UNL     1       1.424   2.466  21.765  0.00  0.00    +0.000 C 
ATOM      8  C   UNL     1       1.634   3.521  20.718  0.00  0.00    +0.000 A 
ATOM      9  C   UNL     1       1.494   3.227  19.358  0.00  0.00    +0.000 A 
ATOM     10  C   UNL     1       1.713   4.218  18.394  0.00  0.00    +0.000 A 
ATOM     11  C   UNL     1       2.057   5.518  18.766  0.00  0.00    +0.000 A 
ATOM     12  C   UNL     1       2.198   5.818  20.120  0.00  0.00    +0.000 A 
ATOM     13  C   UNL     1       1.989   4.824  21.091  0.00  0.00    +0.000 A 
ENDBRANCH   6  11
ENDBRANCH   5   6
ENDBRANCH   1   5
BRANCH   3  14
ATOM     14  C   UNL     1       5.925   4.485  16.219  0.00  0.00    +0.000 C 
BRANCH  14  15
ATOM     15  C   UNL     1       6.902   5.080  15.225  0.00  0.00    +0.000 C 
ATOM     16  O   UNL     1       7.721   5.957  15.498  0.00  0.00    +0.000 OA
ATOM     17  N   UNL     1       6.815   4.566  13.911  0.00  0.00    +0.000 N 
ATOM     18  N   UNL     1       5.886   3.617  13.590  0.00  0.00    +0.000 NA
ATOM     19  C   UNL     1       6.041   3.408  12.275  0.00  0.00    +0.000 A 
ATOM     20  C   UNL     1       5.179   2.457  11.528  0.00  0.00    +0.000 C 
ATOM     21  C   UNL     1       7.080   4.190  11.737  0.00  0.00    +0.000 A 
ATOM     22  C   UNL     1       7.577   4.911  12.801  0.00  0.00    +0.000 A 
ATOM     23  C   UNL     1       8.694   5.890  12.836  0.00  0.00    +0.000 C 
ENDBRANCH  14  15
ENDBRANCH   3  14
TORSDOF 5
ENDMDL
MODEL 2
REMARK VINA RESULT:      -7.6      2.270      7.535
REMARK  Name = 
REMARK  8 active torsions:
REMARK  status: ('A' for Active; 'I' for Inactive)
REMARK    1  A    between atoms: C_1  and  C_2
REMARK    2  A    between atoms: C_5  and  O_6
REMARK    3  A    between atoms: O_6  and  C_7
REMARK    4  A    between atoms: C_7  and  C_8
REMARK    5  A    between atoms: N_10  and  C_11
REMARK    6  A    between atoms: C_11  and  C_12
REMARK    7  A    between atoms: C_16  and  C_17
REMARK    8  A    between atoms: C_19  and  C_20
REMARK                            x       y       z     vdW  Elec       q    Type
REMARK                         _______ _______ _______ _____ _____    ______ ____
ROOT
ATOM      1  C   UNL     1       6.874   5.032  17.611  0.00  0.00    +0.000 C 
ATOM      2  O   UNL     1       7.893   4.476  18.016  0.00  0.00    +0.000 OA
ATOM      3  N   UNL     1       5.630   4.759  18.141  0.00  0.00    +0.000 N 
ATOM      4  H   UNL     1       4.799   5.169  17.722  0.00  0.00    +0.000 HD
ENDROOT
BRANCH   1   5
ATOM      5  C   UNL     1       6.894   6.091  16.498  0.00  0.00    +0.000 C 
BRANCH   5   6
ATOM      6  O   UNL     1       7.622   5.597  15.379  0.00  0.00    +0.000 OA
BRANCH   6  11
ATOM      7  C   UNL     1       5.028   2.644  11.263  0.00  0.00    +0.000 C 
ATOM      8  C   UNL     1       5.682   3.442  12.353  0.00  0.00    +0.000 A 
ATOM      9  C   UNL     1       6.958   3.991  12.179  0.00  0.00    +0.000 A 
ATOM     10  C   UNL     1       7.560   4.717  13.213  0.00  0.00    +0.000 A 
ATOM     11  C   UNL     1       6.902   4.923  14.426  0.00  0.00    +0.000 A 
ATOM     12  C   UNL     1       5.631   4.379  14.605  0.00  0.00    +0.000 A 
ATOM     13  C   UNL     1       5.025   3.641  13.573  0.00  0.00    +0.000 A 
ENDBRANCH   6  11
ENDBRANCH   5   6
ENDBRANCH   1   5
BRANCH   3  14
ATOM     14  C   UNL     1       5.434   3.758  19.196  0.00  0.00    +0.000 C 
BRANCH  14  15
ATOM     15  C   UNL     1       4.070   3.121  19.029  0.00  0.00    +0.000 C 
ATOM     16  O   UNL     1       3.878   2.020  18.513  0.00  0.00    +0.000 OA
ATOM     17  N   UNL     1       2.982   3.889  19.503  0.00  0.00    +0.000 N 
ATOM     18  N   UNL     1       3.182   5.127  20.046  0.00  0.00    +0.000 NA
ATOM     19  C   UNL     1       1.955   5.587  20.327  0.00  0.00    +0.000 A 
ATOM     20  C   UNL     1       1.740   6.938  20.906  0.00  0.00    +0.000 C 
ATOM     21  C   UNL     1       0.955   4.653  19.999  0.00  0.00    +0.000 A 
ATOM     22  C   UNL     1       1.630   3.565  19.491  0.00  0.00    +0.000 A 
ATOM     23  C   UNL     1       1.096   2.270  18.996  0.00  0.00    +0.000 C 
ENDBRANCH  14  15
ENDBRANCH   3  14
TORSDOF 5
ENDMDL
MODEL 3
REMARK VINA RESULT:      -7.6      2.289      7.596
REMARK  Name = 
REMARK  8 active torsions:
REMARK  status: ('A' for Active; 'I' for Inactive)
REMARK    1  A    between atoms: C_1  and  C_2
REMARK    2  A    between atoms: C_5  and  O_6
REMARK    3  A    between atoms: O_6  and  C_7
REMARK    4  A    between atoms: C_7  and  C_8
REMARK    5  A    between atoms: N_10  and  C_11
REMARK    6  A    between atoms: C_11  and  C_12
REMARK    7  A    between atoms: C_16  and  C_17
REMARK    8  A    between atoms: C_19  and  C_20
REMARK                            x       y       z     vdW  Elec       q    Type
REMARK                         _______ _______ _______ _____ _____    ______ ____
ROOT
ATOM      1  C   UNL     1       6.764   4.993  17.681  0.00  0.00    +0.000 C 
ATOM      2  O   UNL     1       7.806   4.503  18.113  0.00  0.00    +0.000 OA
ATOM      3  N   UNL     1       5.533   4.693  18.224  0.00  0.00    +0.000 N 
ATOM      4  H   UNL     1       4.685   5.045  17.784  0.00  0.00    +0.000 HD
ENDROOT
BRANCH   1   5
ATOM      5  C   UNL     1       6.741   5.995  16.516  0.00  0.00    +0.000 C 
BRANCH   5   6
ATOM      6  O   UNL     1       7.614   5.550  15.484  0.00  0.00    +0.000 OA
BRANCH   6  11
ATOM      7  C   UNL     1       4.811   2.879  11.312  0.00  0.00    +0.000 C 
ATOM      8  C   UNL     1       5.579   3.563  12.405  0.00  0.00    +0.000 A 
ATOM      9  C   UNL     1       5.027   3.731  13.679  0.00  0.00    +0.000 A 
ATOM     10  C   UNL     1       5.750   4.388  14.682  0.00  0.00    +0.000 A 
ATOM     11  C   UNL     1       7.036   4.872  14.440  0.00  0.00    +0.000 A 
ATOM     12  C   UNL     1       7.593   4.708  13.173  0.00  0.00    +0.000 A 
ATOM     13  C   UNL     1       6.867   4.057  12.160  0.00  0.00    +0.000 A 
ENDBRANCH   6  11
ENDBRANCH   5   6
ENDBRANCH   1   5
BRANCH   3  14
ATOM     14  C   UNL     1       5.378   3.739  19.328  0.00  0.00    +0.000 C 
BRANCH  14  15
ATOM     15  C   UNL     1       4.024   3.068  19.219  0.00  0.00    +0.000 C 
ATOM     16  O   UNL     1       3.847   1.934  18.775  0.00  0.00    +0.000 OA
ATOM     17  N   UNL     1       2.928   3.844  19.658  0.00  0.00    +0.000 N 
ATOM     18  N   UNL     1       3.111   5.117  20.121  0.00  0.00    +0.000 NA
ATOM     19  C   UNL     1       1.879   5.572  20.389  0.00  0.00    +0.000 A 
ATOM     20  C   UNL     1       1.646   6.952  20.885  0.00  0.00    +0.000 C 
ATOM     21  C   UNL     1       0.893   4.601  20.133  0.00  0.00    +0.000 A 
ATOM     22  C   UNL     1       1.582   3.496  19.684  0.00  0.00    +0.000 A 
ATOM     23  C   UNL     1       1.066   2.163  19.278  0.00  0.00    +0.000 C 
ENDBRANCH  14  15
ENDBRANCH   3  14
TORSDOF 5
ENDMDL
MODEL 4
REMARK VINA RESULT:      -7.4      4.689      8.176
REMARK  Name = 
REMARK  8 active torsions:
REMARK  status: ('A' for Active; 'I' for Inactive)
REMARK    1  A    between atoms: C_1  and  C_2
REMARK    2  A    between atoms: C_5  and  O_6
REMARK    3  A    between atoms: O_6  and  C_7
REMARK    4  A    between atoms: C_7  and  C_8
REMARK    5  A    between atoms: N_10  and  C_11
REMARK    6  A    between atoms: C_11  and  C_12
REMARK    7  A    between atoms: C_16  and  C_17
REMARK    8  A    between atoms: C_19  and  C_20
REMARK                            x       y       z     vdW  Elec       q    Type
REMARK                         _______ _______ _______ _____ _____    ______ ____
ROOT
ATOM      1  C   UNL     1       7.520   6.614  17.709  0.00  0.00    +0.000 C 
ATOM      2  O   UNL     1       7.484   6.532  16.482  0.00  0.00    +0.000 OA
ATOM      3  N   UNL     1       6.883   5.702  18.523  0.00  0.00    +0.000 N 
ATOM      4  H   UNL     1       6.857   5.851  19.529  0.00  0.00    +0.000 HD
ENDROOT
BRANCH   1   5
ATOM      5  C   UNL     1       8.292   7.721  18.442  0.00  0.00    +0.000 C 
BRANCH   5   6
ATOM      6  O   UNL     1       8.016   8.980  17.837  0.00  0.00    +0.000 OA
BRANCH   6  11
ATOM      7  C   UNL     1      10.375  13.757  19.838  0.00  0.00    +0.000 C 
ATOM      8  C   UNL     1       9.785  12.480  19.315  0.00  0.00    +0.000 A 
ATOM      9  C   UNL     1       9.049  12.460  18.125  0.00  0.00    +0.000 A 
ATOM     10  C   UNL     1       8.489  11.264  17.661  0.00  0.00    +0.000 A 
ATOM     11  C   UNL     1       8.665  10.069  18.361  0.00  0.00    +0.000 A 
ATOM     12  C   UNL     1       9.397  10.083  19.548  0.00  0.00    +0.000 A 
ATOM     13  C   UNL     1       9.953  11.283  20.022  0.00  0.00    +0.000 A 
ENDBRANCH   6  11
ENDBRANCH   5   6
ENDBRANCH   1   5
BRANCH   3  14
ATOM     14  C   UNL     1       6.085   4.596  17.982  0.00  0.00    +0.000 C 
BRANCH  14  15
ATOM     15  C   UNL     1       5.014   4.219  18.984  0.00  0.00    +0.000 C 
ATOM     16  O   UNL     1       5.023   3.185  19.653  0.00  0.00    +0.000 OA
ATOM     17  N   UNL     1       3.953   5.144  19.111  0.00  0.00    +0.000 N 
ATOM     18  N   UNL     1       3.916   6.277  18.349  0.00  0.00    +0.000 NA
ATOM     19  C   UNL     1       2.766   6.882  18.677  0.00  0.00    +0.000 A 
ATOM     20  C   UNL     1       2.335   8.147  18.030  0.00  0.00    +0.000 C 
ATOM     21  C   UNL     1       2.061   6.170  19.667  0.00  0.00    +0.000 A 
ATOM     22  C   UNL     1       2.844   5.071  19.947  0.00  0.00    +0.000 A 
ATOM     23  C   UNL     1       2.615   3.975  20.924  0.00  0.00    +0.000 C 
ENDBRANCH  14  15
ENDBRANCH   3  14
TORSDOF 5
ENDMDL
MODEL 5
REMARK VINA RESULT:      -7.2      3.724      7.837
REMARK  Name = 
REMARK  8 active torsions:
REMARK  status: ('A' for Active; 'I' for Inactive)
REMARK    1  A    between atoms: C_1  and  C_2
REMARK    2  A    between atoms: C_5  and  O_6
REMARK    3  A    between atoms: O_6  and  C_7
REMARK    4  A    between atoms: C_7  and  C_8
REMARK    5  A    between atoms: N_10  and  C_11
REMARK    6  A    between atoms: C_11  and  C_12
REMARK    7  A    between atoms: C_16  and  C_17
REMARK    8  A    between atoms: C_19  and  C_20
REMARK                            x       y       z     vdW  Elec       q    Type
REMARK                         _______ _______ _______ _____ _____    ______ ____
ROOT
ATOM      1  C   UNL     1       2.920   3.945  18.744  0.00  0.00    +0.000 C 
ATOM      2  O   UNL     1       1.745   3.813  18.403  0.00  0.00    +0.000 OA
ATOM      3  N   UNL     1       3.311   4.877  19.682  0.00  0.00    +0.000 N 
ATOM      4  H   UNL     1       4.299   5.020  19.873  0.00  0.00    +0.000 HD
ENDROOT
BRANCH   1   5
ATOM      5  C   UNL     1       4.049   3.074  18.174  0.00  0.00    +0.000 C 
BRANCH   5   6
ATOM      6  O   UNL     1       4.580   3.683  17.002  0.00  0.00    +0.000 OA
BRANCH   6  11
ATOM      7  C   UNL     1       7.991   8.182  17.722  0.00  0.00    +0.000 C 
ATOM      8  C   UNL     1       7.120   6.975  17.527  0.00  0.00    +0.000 A 
ATOM      9  C   UNL     1       6.021   7.010  16.662  0.00  0.00    +0.000 A 
ATOM     10  C   UNL     1       5.209   5.881  16.507  0.00  0.00    +0.000 A 
ATOM     11  C   UNL     1       5.484   4.697  17.192  0.00  0.00    +0.000 A 
ATOM     12  C   UNL     1       6.579   4.655  18.055  0.00  0.00    +0.000 A 
ATOM     13  C   UNL     1       7.392   5.790  18.222  0.00  0.00    +0.000 A 
ENDBRANCH   6  11
ENDBRANCH   5   6
ENDBRANCH   1   5
BRANCH   3  14
ATOM     14  C   UNL     1       2.358   5.801  20.308  0.00  0.00    +0.000 C 
BRANCH  14  15
ATOM     15  C   UNL     1       2.249   7.052  19.461  0.00  0.00    +0.000 C 
ATOM     16  O   UNL     1       2.733   7.170  18.335  0.00  0.00    +0.000 OA
ATOM     17  N   UNL     1       1.548   8.125  20.055  0.00  0.00    +0.000 N 
ATOM     18  N   UNL     1       1.037   8.016  21.317  0.00  0.00    +0.000 NA
ATOM     19  C   UNL     1       0.501   9.215  21.582  0.00  0.00    +0.000 A 
ATOM     20  C   UNL     1      -0.133   9.516  22.891  0.00  0.00    +0.000 C 
ATOM     21  C   UNL     1       0.630  10.101  20.496  0.00  0.00    +0.000 A 
ATOM     22  C   UNL     1       1.286   9.382  19.520  0.00  0.00    +0.000 A 
ATOM     23  C   UNL     1       1.681   9.796  18.149  0.00  0.00    +0.000 C 
ENDBRANCH  14  15
ENDBRANCH   3  14
TORSDOF 5
ENDMDL
MODEL 6
REMARK VINA RESULT:      -7.1      4.756      8.261
REMARK  Name = 
REMARK  8 active torsions:
REMARK  status: ('A' for Active; 'I' for Inactive)
REMARK    1  A    between atoms: C_1  and  C_2
REMARK    2  A    between atoms: C_5  and  O_6
REMARK    3  A    between atoms: O_6  and  C_7
REMARK    4  A    between atoms: C_7  and  C_8
REMARK    5  A    between atoms: N_10  and  C_11
REMARK    6  A    between atoms: C_11  and  C_12
REMARK    7  A    between atoms: C_16  and  C_17
REMARK    8  A    between atoms: C_19  and  C_20
REMARK                            x       y       z     vdW  Elec       q    Type
REMARK                         _______ _______ _______ _____ _____    ______ ____
ROOT
ATOM      1  C   UNL     1       7.213   7.068  17.198  0.00  0.00    +0.000 C 
ATOM      2  O   UNL     1       7.662   6.271  16.375  0.00  0.00    +0.000 OA
ATOM      3  N   UNL     1       5.859   7.205  17.421  0.00  0.00    +0.000 N 
ATOM      4  H   UNL     1       5.519   7.936  18.042  0.00  0.00    +0.000 HD
ENDROOT
BRANCH   1   5
ATOM      5  C   UNL     1       8.114   7.962  18.062  0.00  0.00    +0.000 C 
BRANCH   5   6
ATOM      6  O   UNL     1       7.845   9.331  17.779  0.00  0.00    +0.000 OA
BRANCH   6  11
ATOM      7  C   UNL     1      10.969  13.488  20.092  0.00  0.00    +0.000 C 
ATOM      8  C   UNL     1      10.173  12.369  19.487  0.00  0.00    +0.000 A 
ATOM      9  C   UNL     1       9.504  12.535  18.269  0.00  0.00    +0.000 A 
ATOM     10  C   UNL     1       8.750  11.487  17.729  0.00  0.00    +0.000 A 
ATOM     11  C   UNL     1       8.663  10.254  18.379  0.00  0.00    +0.000 A 
ATOM     12  C   UNL     1       9.327  10.083  19.592  0.00  0.00    +0.000 A 
ATOM     13  C   UNL     1      10.078  11.135  20.144  0.00  0.00    +0.000 A 
ENDBRANCH   6  11
ENDBRANCH   5   6
ENDBRANCH   1   5
BRANCH   3  14
ATOM     14  C   UNL     1       4.862   6.439  16.664  0.00  0.00    +0.000 C 
BRANCH  14  15
ATOM     15  C   UNL     1       4.462   5.217  17.466  0.00  0.00    +0.000 C 
ATOM     16  O   UNL     1       4.827   4.070  17.208  0.00  0.00    +0.000 OA
ATOM     17  N   UNL     1       3.604   5.466  18.561  0.00  0.00    +0.000 N 
ATOM     18  N   UNL     1       3.166   6.731  18.835  0.00  0.00    +0.000 NA
ATOM     19  C   UNL     1       2.340   6.596  19.881  0.00  0.00    +0.000 A 
ATOM     20  C   UNL     1       1.621   7.757  20.464  0.00  0.00    +0.000 C 
ATOM     21  C   UNL     1       2.253   5.259  20.313  0.00  0.00    +0.000 A 
ATOM     22  C   UNL     1       3.083   4.553  19.470  0.00  0.00    +0.000 A 
ATOM     23  C   UNL     1       3.402   3.102  19.460  0.00  0.00    +0.000 C 
ENDBRANCH  14  15
ENDBRANCH   3  14
TORSDOF 5
ENDMDL
MODEL 7
REMARK VINA RESULT:      -7.1      5.492      8.038
REMARK  Name = 
REMARK  8 active torsions:
REMARK  status: ('A' for Active; 'I' for Inactive)
REMARK    1  A    between atoms: C_1  and  C_2
REMARK    2  A    between atoms: C_5  and  O_6
REMARK    3  A    between atoms: O_6  and  C_7
REMARK    4  A    between atoms: C_7  and  C_8
REMARK    5  A    between atoms: N_10  and  C_11
REMARK    6  A    between atoms: C_11  and  C_12
REMARK    7  A    between atoms: C_16  and  C_17
REMARK    8  A    between atoms: C_19  and  C_20
REMARK                            x       y       z     vdW  Elec       q    Type
REMARK                         _______ _______ _______ _____ _____    ______ ____
ROOT
ATOM      1  C   UNL     1       7.662   7.863  18.045  0.00  0.00    +0.000 C 
ATOM      2  O   UNL     1       6.570   7.714  17.497  0.00  0.00    +0.000 OA
ATOM      3  N   UNL     1       8.236   6.875  18.816  0.00  0.00    +0.000 N 
ATOM      4  H   UNL     1       9.095   7.065  19.328  0.00  0.00    +0.000 HD
ENDROOT
BRANCH   1   5
ATOM      5  C   UNL     1       8.489   9.150  17.904  0.00  0.00    +0.000 C 
BRANCH   5   6
ATOM      6  O   UNL     1       8.956   9.562  19.184  0.00  0.00    +0.000 OA
BRANCH   6  11
ATOM      7  C   UNL     1      12.016  14.355  18.932  0.00  0.00    +0.000 C 
ATOM      8  C   UNL     1      11.232  13.078  19.023  0.00  0.00    +0.000 A 
ATOM      9  C   UNL     1      10.836  12.390  17.870  0.00  0.00    +0.000 A 
ATOM     10  C   UNL     1      10.089  11.211  17.973  0.00  0.00    +0.000 A 
ATOM     11  C   UNL     1       9.739  10.688  19.219  0.00  0.00    +0.000 A 
ATOM     12  C   UNL     1      10.131  11.368  20.371  0.00  0.00    +0.000 A 
ATOM     13  C   UNL     1      10.873  12.558  20.273  0.00  0.00    +0.000 A 
ENDBRANCH   6  11
ENDBRANCH   5   6
ENDBRANCH   1   5
BRANCH   3  14
ATOM     14  C   UNL     1       7.567   5.593  19.067  0.00  0.00    +0.000 C 
BRANCH  14  15
ATOM     15  C   UNL     1       7.227   4.943  17.742  0.00  0.00    +0.000 C 
ATOM     16  O   UNL     1       8.050   4.691  16.862  0.00  0.00    +0.000 OA
ATOM     17  N   UNL     1       5.860   4.638  17.551  0.00  0.00    +0.000 N 
ATOM     18  N   UNL     1       4.934   4.944  18.507  0.00  0.00    +0.000 NA
ATOM     19  C   UNL     1       3.756   4.580  17.983  0.00  0.00    +0.000 A 
ATOM     20  C   UNL     1       2.478   4.786  18.710  0.00  0.00    +0.000 C 
ATOM     21  C   UNL     1       3.903   4.011  16.703  0.00  0.00    +0.000 A 
ATOM     22  C   UNL     1       5.258   4.039  16.450  0.00  0.00    +0.000 A 
ATOM     23  C   UNL     1       6.005   3.556  15.260  0.00  0.00    +0.000 C 
ENDBRANCH  14  15
ENDBRANCH   3  14
TORSDOF 5
ENDMDL
MODEL 8
REMARK VINA RESULT:      -7.1      4.727      8.248
REMARK  Name = 
REMARK  8 active torsions:
REMARK  status: ('A' for Active; 'I' for Inactive)
REMARK    1  A    between atoms: C_1  and  C_2
REMARK    2  A    between atoms: C_5  and  O_6
REMARK    3  A    between atoms: O_6  and  C_7
REMARK    4  A    between atoms: C_7  and  C_8
REMARK    5  A    between atoms: N_10  and  C_11
REMARK    6  A    between atoms: C_11  and  C_12
REMARK    7  A    between atoms: C_16  and  C_17
REMARK    8  A    between atoms: C_19  and  C_20
REMARK                            x       y       z     vdW  Elec       q    Type
REMARK                         _______ _______ _______ _____ _____    ______ ____
ROOT
ATOM      1  C   UNL     1       7.187   7.091  17.145  0.00  0.00    +0.000 C 
ATOM      2  O   UNL     1       7.674   6.300  16.337  0.00  0.00    +0.000 OA
ATOM      3  N   UNL     1       5.828   7.169  17.366  0.00  0.00    +0.000 N 
ATOM      4  H   UNL     1       5.454   7.895  17.972  0.00  0.00    +0.000 HD
ENDROOT
BRANCH   1   5
ATOM      5  C   UNL     1       8.045   8.045  17.990  0.00  0.00    +0.000 C 
BRANCH   5   6
ATOM      6  O   UNL     1       7.725   9.393  17.665  0.00  0.00    +0.000 OA
BRANCH   6  11
ATOM      7  C   UNL     1      11.323  13.085  20.077  0.00  0.00    +0.000 C 
ATOM      8  C   UNL     1      10.349  12.137  19.442  0.00  0.00    +0.000 A 
ATOM      9  C   UNL     1      10.173  10.841  19.939  0.00  0.00    +0.000 A 
ATOM     10  C   UNL     1       9.274   9.963  19.322  0.00  0.00    +0.000 A 
ATOM     11  C   UNL     1       8.524  10.363  18.215  0.00  0.00    +0.000 A 
ATOM     12  C   UNL     1       8.694  11.654  17.715  0.00  0.00    +0.000 A 
ATOM     13  C   UNL     1       9.603  12.535  18.325  0.00  0.00    +0.000 A 
ENDBRANCH   6  11
ENDBRANCH   5   6
ENDBRANCH   1   5
BRANCH   3  14
ATOM     14  C   UNL     1       4.869   6.341  16.625  0.00  0.00    +0.000 C 
BRANCH  14  15
ATOM     15  C   UNL     1       4.482   5.149  17.476  0.00  0.00    +0.000 C 
ATOM     16  O   UNL     1       4.853   3.995  17.261  0.00  0.00    +0.000 OA
ATOM     17  N   UNL     1       3.628   5.435  18.566  0.00  0.00    +0.000 N 
ATOM     18  N   UNL     1       3.184   6.707  18.792  0.00  0.00    +0.000 NA
ATOM     19  C   UNL     1       2.364   6.608  19.847  0.00  0.00    +0.000 A 
ATOM     20  C   UNL     1       1.640   7.786  20.389  0.00  0.00    +0.000 C 
ATOM     21  C   UNL     1       2.288   5.289  20.333  0.00  0.00    +0.000 A 
ATOM     22  C   UNL     1       3.118   4.555  19.513  0.00  0.00    +0.000 A 
ATOM     23  C   UNL     1       3.447   3.107  19.558  0.00  0.00    +0.000 C 
ENDBRANCH  14  15
ENDBRANCH   3  14
TORSDOF 5
ENDMDL
MODEL 9
REMARK VINA RESULT:      -7.1      2.897      5.068
REMARK  Name = 
REMARK  8 active torsions:
REMARK  status: ('A' for Active; 'I' for Inactive)
REMARK    1  A    between atoms: C_1  and  C_2
REMARK    2  A    between atoms: C_5  and  O_6
REMARK    3  A    between atoms: O_6  and  C_7
REMARK    4  A    between atoms: C_7  and  C_8
REMARK    5  A    between atoms: N_10  and  C_11
REMARK    6  A    between atoms: C_11  and  C_12
REMARK    7  A    between atoms: C_16  and  C_17
REMARK    8  A    between atoms: C_19  and  C_20
REMARK                            x       y       z     vdW  Elec       q    Type
REMARK                         _______ _______ _______ _____ _____    ______ ____
ROOT
ATOM      1  C   UNL     1       1.862   3.803  19.517  0.00  0.00    +0.000 C 
ATOM      2  O   UNL     1       1.192   3.150  18.717  0.00  0.00    +0.000 OA
ATOM      3  N   UNL     1       3.239   3.737  19.547  0.00  0.00    +0.000 N 
ATOM      4  H   UNL     1       3.754   4.219  20.280  0.00  0.00    +0.000 HD
ENDROOT
BRANCH   1   5
ATOM      5  C   UNL     1       1.229   4.762  20.537  0.00  0.00    +0.000 C 
BRANCH   5   6
ATOM      6  O   UNL     1       2.153   5.796  20.860  0.00  0.00    +0.000 OA
BRANCH   6  11
ATOM      7  C   UNL     1       0.850  10.854  18.598  0.00  0.00    +0.000 C 
ATOM      8  C   UNL     1       1.205   9.537  19.224  0.00  0.00    +0.000 A 
ATOM      9  C   UNL     1       1.951   8.582  18.524  0.00  0.00    +0.000 A 
ATOM     10  C   UNL     1       2.257   7.352  19.116  0.00  0.00    +0.000 A 
ATOM     11  C   UNL     1       1.843   7.057  20.417  0.00  0.00    +0.000 A 
ATOM     12  C   UNL     1       1.100   8.004  21.119  0.00  0.00    +0.000 A 
ATOM     13  C   UNL     1       0.782   9.237  20.525  0.00  0.00    +0.000 A 
ENDBRANCH   6  11
ENDBRANCH   5   6
ENDBRANCH   1   5
BRANCH   3  14
ATOM     14  C   UNL     1       3.997   2.853  18.653  0.00  0.00    +0.000 C 
BRANCH  14  15
ATOM     15  C   UNL     1       4.402   3.628  17.416  0.00  0.00    +0.000 C 
ATOM     16  O   UNL     1       3.839   3.535  16.325  0.00  0.00    +0.000 OA
ATOM     17  N   UNL     1       5.510   4.490  17.579  0.00  0.00    +0.000 N 
ATOM     18  N   UNL     1       6.161   4.576  18.776  0.00  0.00    +0.000 NA
ATOM     19  C   UNL     1       7.177   5.423  18.562  0.00  0.00    +0.000 A 
ATOM     20  C   UNL     1       8.157   5.755  19.627  0.00  0.00    +0.000 C 
ATOM     21  C   UNL     1       7.182   5.915  17.243  0.00  0.00    +0.000 A 
ATOM     22  C   UNL     1       6.098   5.323  16.633  0.00  0.00    +0.000 A 
ATOM     23  C   UNL     1       5.595   5.481  15.244  0.00  0.00    +0.000 C 
ENDBRANCH  14  15
ENDBRANCH   3  14
TORSDOF 5
ENDMDL
