MODEL 1
REMARK VINA RESULT:      -8.4      0.000      0.000
REMARK  Name = 
REMARK  8 active torsions:
REMARK  status: ('A' for Active; 'I' for Inactive)
REMARK    1  A    between atoms: C_1  and  C_2
REMARK    2  A    between atoms: C_2  and  C_3
REMARK    3  A    between atoms: C_2  and  C_4
REMARK    4  A    between atoms: C_6  and  C_7
REMARK    5  A    between atoms: N_9  and  C_10
REMARK    6  A    between atoms: C_10  and  C_11
REMARK    7  A    between atoms: N_14  and  C_15
REMARK    8  A    between atoms: C_15  and  C_16
REMARK                            x       y       z     vdW  Elec       q    Type
REMARK                         _______ _______ _______ _____ _____    ______ ____
ROOT
ATOM      1  C   UNL     1       1.855   8.260  19.326  0.00  0.00    +0.000 C 
ATOM      2  O   UNL     1       2.435   8.205  18.245  0.00  0.00    +0.000 OA
ATOM      3  N   UNL     1       2.043   7.311  20.325  0.00  0.00    +0.000 N 
ATOM      4  H   UNL     1       1.372   7.356  21.088  0.00  0.00    +0.000 HD
ENDROOT
BRANCH   1   7
ATOM      5  C   UNL     1      -0.443  11.028  19.359  0.00  0.00    +0.000 A 
ATOM      6  N   UNL     1       0.382  10.218  18.715  0.00  0.00    +0.000 NA
ATOM      7  C   UNL     1       0.894   9.335  19.659  0.00  0.00    +0.000 A 
ATOM      8  C   UNL     1       0.362   9.642  20.910  0.00  0.00    +0.000 A 
ATOM      9  C   UNL     1       0.471   9.146  22.245  0.00  0.00    +0.000 A 
ATOM     10  C   UNL     1      -0.199   9.756  23.246  0.00  0.00    +0.000 A 
ATOM     11  C   UNL     1      -1.039  10.916  23.008  0.00  0.00    +0.000 A 
ATOM     12  C   UNL     1      -1.160  11.375  21.751  0.00  0.00    +0.000 A 
ATOM     13  N   UNL     1      -0.471  10.736  20.711  0.00  0.00    +0.000 N 
BRANCH   5  15
ATOM     14  C   UNL     1      -0.294  13.302  18.378  0.00  0.00    +0.000 C 
ATOM     15  C   UNL     1      -1.235  12.166  18.778  0.00  0.00    +0.000 C 
ATOM     16  C   UNL     1      -2.096  11.713  17.602  0.00  0.00    +0.000 C 
ENDBRANCH   5  15
ENDBRANCH   1   7
BRANCH   3  17
ATOM     17  C   UNL     1       2.827   6.098  20.099  0.00  0.00    +0.000 C 
BRANCH  17  18
ATOM     18  C   UNL     1       1.983   4.820  19.866  0.00  0.00    +0.000 C 
ATOM     19  C   UNL     1       2.689   3.524  20.278  0.00  0.00    +0.000 C 
ATOM     20  C   UNL     1       3.879   3.209  19.371  0.00  0.00    +0.000 C 
ATOM     21  N   UNL     1       3.495   3.055  17.951  0.00  0.00    +0.000 NA
ATOM     22  C   UNL     1       2.708   4.197  17.464  0.00  0.00    +0.000 C 
ATOM     23  C   UNL     1       1.569   4.651  18.392  0.00  0.00    +0.000 C 
BRANCH  21  24
ATOM     24  C   UNL     1       4.724   2.830  17.146  0.00  0.00    +0.000 C 
BRANCH  24  25
ATOM     25  C   UNL     1       5.380   4.058  16.468  0.00  0.00    +0.000 C 
ATOM     26  C   UNL     1       6.028   3.763  15.109  0.00  0.00    +0.000 C 
ATOM     27  C   UNL     1       6.651   5.045  14.558  0.00  0.00    +0.000 C 
ATOM     28  O   UNL     1       7.645   5.543  15.454  0.00  0.00    +0.000 OA
ATOM     29  C   UNL     1       7.106   5.881  16.731  0.00  0.00    +0.000 C 
ATOM     30  C   UNL     1       6.452   4.672  17.390  0.00  0.00    +0.000 C 
ENDBRANCH  24  25
ENDBRANCH  21  24
ENDBRANCH  17  18
ENDBRANCH   3  17
TORSDOF 6
ENDMDL
MODEL 2
REMARK VINA RESULT:      -8.3      2.702      8.087
REMARK  Name = 
REMARK  8 active torsions:
REMARK  status: ('A' for Active; 'I' for Inactive)
REMARK    1  A    between atoms: C_1  and  C_2
REMARK    2  A    between atoms: C_2  and  C_3
REMARK    3  A    between atoms: C_2  and  C_4
REMARK    4  A    between atoms: C_6  and  C_7
REMARK    5  A    between atoms: N_9  and  C_10
REMARK    6  A    between atoms: C_10  and  C_11
REMARK    7  A    between atoms: N_14  and  C_15
REMARK    8  A    between atoms: C_15  and  C_16
REMARK                            x       y       z     vdW  Elec       q    Type
REMARK                         _______ _______ _______ _____ _____    ______ ____
ROOT
ATOM      1  C   UNL     1       3.428   3.232  17.288  0.00  0.00    +0.000 C 
ATOM      2  O   UNL     1       2.425   3.407  16.601  0.00  0.00    +0.000 OA
ATOM      3  N   UNL     1       3.441   2.383  18.390  0.00  0.00    +0.000 N 
ATOM      4  H   UNL     1       4.262   2.468  18.984  0.00  0.00    +0.000 HD
ENDROOT
BRANCH   1   7
ATOM      5  C   UNL     1       6.526   5.058  17.396  0.00  0.00    +0.000 A 
ATOM      6  N   UNL     1       5.446   4.576  17.992  0.00  0.00    +0.000 NA
ATOM      7  C   UNL     1       4.710   3.917  17.013  0.00  0.00    +0.000 A 
ATOM      8  C   UNL     1       5.373   4.024  15.792  0.00  0.00    +0.000 A 
ATOM      9  C   UNL     1       5.164   3.593  14.446  0.00  0.00    +0.000 A 
ATOM     10  C   UNL     1       6.046   3.938  13.485  0.00  0.00    +0.000 A 
ATOM     11  C   UNL     1       7.217   4.746  13.776  0.00  0.00    +0.000 A 
ATOM     12  C   UNL     1       7.428   5.138  15.044  0.00  0.00    +0.000 A 
ATOM     13  N   UNL     1       6.516   4.772  16.043  0.00  0.00    +0.000 N 
BRANCH   5  15
ATOM     14  C   UNL     1       7.480   7.334  17.648  0.00  0.00    +0.000 C 
ATOM     15  C   UNL     1       7.628   5.860  18.028  0.00  0.00    +0.000 C 
ATOM     16  C   UNL     1       7.667   5.674  19.542  0.00  0.00    +0.000 C 
ENDBRANCH   5  15
ENDBRANCH   1   7
BRANCH   3  17
ATOM     17  C   UNL     1       2.220   1.760  18.899  0.00  0.00    +0.000 C 
BRANCH  17  18
ATOM     18  C   UNL     1       1.758   2.283  20.281  0.00  0.00    +0.000 C 
ATOM     19  C   UNL     1       0.678   3.368  20.207  0.00  0.00    +0.000 C 
ATOM     20  C   UNL     1       1.218   4.670  19.612  0.00  0.00    +0.000 C 
ATOM     21  N   UNL     1       2.341   5.235  20.392  0.00  0.00    +0.000 NA
ATOM     22  C   UNL     1       3.402   4.246  20.628  0.00  0.00    +0.000 C 
ATOM     23  C   UNL     1       2.919   2.867  21.107  0.00  0.00    +0.000 C 
BRANCH  21  24
ATOM     24  C   UNL     1       2.842   6.449  19.694  0.00  0.00    +0.000 C 
BRANCH  24  25
ATOM     25  C   UNL     1       1.823   7.565  19.361  0.00  0.00    +0.000 C 
ATOM     26  C   UNL     1       2.274   8.528  18.254  0.00  0.00    +0.000 C 
ATOM     27  C   UNL     1       1.193   9.585  18.034  0.00  0.00    +0.000 C 
ATOM     28  O   UNL     1       0.964  10.324  19.235  0.00  0.00    +0.000 OA
ATOM     29  C   UNL     1       0.499   9.498  20.301  0.00  0.00    +0.000 C 
ATOM     30  C   UNL     1       1.501   8.394  20.619  0.00  0.00    +0.000 C 
ENDBRANCH  24  25
ENDBRANCH  21  24
ENDBRANCH  17  18
ENDBRANCH   3  17
TORSDOF 6
ENDMDL
MODEL 3
REMARK VINA RESULT:      -8.2      1.220      2.551
REMARK  Name = 
REMARK  8 active torsions:
REMARK  status: ('A' for Active; 'I' for Inactive)
REMARK    1  A    between atoms: C_1  and  C_2
REMARK    2  A    between atoms: C_2  and  C_3
REMARK    3  A    between atoms: C_2  and  C_4
REMARK    4  A    between atoms: C_6  and  C_7
REMARK    5  A    between atoms: N_9  and  C_10
REMARK    6  A    between atoms: C_10  and  C_11
REMARK    7  A    between atoms: N_14  and  C_15
REMARK    8  A    between atoms: C_15  and  C_16
REMARK                            x       y       z     vdW  Elec       q    Type
REMARK                         _______ _______ _______ _____ _____    ______ ____
ROOT
ATOM      1  C   UNL     1       1.443   8.941  18.900  0.00  0.00    +0.000 C 
ATOM      2  O   UNL     1       1.948   8.909  17.781  0.00  0.00    +0.000 OA
ATOM      3  N   UNL     1       1.755   8.014  19.889  0.00  0.00    +0.000 N 
ATOM      4  H   UNL     1       1.139   8.029  20.698  0.00  0.00    +0.000 HD
ENDROOT
BRANCH   1   7
ATOM      5  C   UNL     1      -0.489  11.538  20.471  0.00  0.00    +0.000 A 
ATOM      6  N   UNL     1       0.565  10.736  20.443  0.00  0.00    +0.000 NA
ATOM      7  C   UNL     1       0.447   9.962  19.294  0.00  0.00    +0.000 A 
ATOM      8  C   UNL     1      -0.725  10.310  18.625  0.00  0.00    +0.000 A 
ATOM      9  C   UNL     1      -1.409   9.913  17.435  0.00  0.00    +0.000 A 
ATOM     10  C   UNL     1      -2.594  10.476  17.121  0.00  0.00    +0.000 A 
ATOM     11  C   UNL     1      -3.208  11.487  17.964  0.00  0.00    +0.000 A 
ATOM     12  C   UNL     1      -2.559  11.877  19.074  0.00  0.00    +0.000 A 
ATOM     13  N   UNL     1      -1.324  11.298  19.395  0.00  0.00    +0.000 N 
BRANCH   5  15
ATOM     14  C   UNL     1      -1.156  11.853  22.841  0.00  0.00    +0.000 C 
ATOM     15  C   UNL     1      -0.825  12.557  21.524  0.00  0.00    +0.000 C 
ATOM     16  C   UNL     1       0.295  13.578  21.702  0.00  0.00    +0.000 C 
ENDBRANCH   5  15
ENDBRANCH   1   7
BRANCH   3  17
ATOM     17  C   UNL     1       2.591   6.846  19.616  0.00  0.00    +0.000 C 
BRANCH  17  18
ATOM     18  C   UNL     1       1.864   5.486  19.761  0.00  0.00    +0.000 C 
ATOM     19  C   UNL     1       2.697   4.406  20.458  0.00  0.00    +0.000 C 
ATOM     20  C   UNL     1       3.887   3.965  19.604  0.00  0.00    +0.000 C 
ATOM     21  N   UNL     1       3.481   3.414  18.293  0.00  0.00    +0.000 NA
ATOM     22  C   UNL     1       2.579   4.320  17.568  0.00  0.00    +0.000 C 
ATOM     23  C   UNL     1       1.428   4.905  18.403  0.00  0.00    +0.000 C 
BRANCH  21  24
ATOM     24  C   UNL     1       4.705   3.089  17.513  0.00  0.00    +0.000 C 
BRANCH  24  25
ATOM     25  C   UNL     1       5.360   4.225  16.689  0.00  0.00    +0.000 C 
ATOM     26  C   UNL     1       5.888   3.789  15.315  0.00  0.00    +0.000 C 
ATOM     27  C   UNL     1       6.522   4.990  14.615  0.00  0.00    +0.000 C 
ATOM     28  O   UNL     1       7.603   5.509  15.391  0.00  0.00    +0.000 OA
ATOM     29  C   UNL     1       7.179   5.974  16.671  0.00  0.00    +0.000 C 
ATOM     30  C   UNL     1       6.525   4.856  17.475  0.00  0.00    +0.000 C 
ENDBRANCH  24  25
ENDBRANCH  21  24
ENDBRANCH  17  18
ENDBRANCH   3  17
TORSDOF 6
ENDMDL
MODEL 4
REMARK VINA RESULT:      -8.0      2.558      8.268
REMARK  Name = 
REMARK  8 active torsions:
REMARK  status: ('A' for Active; 'I' for Inactive)
REMARK    1  A    between atoms: C_1  and  C_2
REMARK    2  A    between atoms: C_2  and  C_3
REMARK    3  A    between atoms: C_2  and  C_4
REMARK    4  A    between atoms: C_6  and  C_7
REMARK    5  A    between atoms: N_9  and  C_10
REMARK    6  A    between atoms: C_10  and  C_11
REMARK    7  A    between atoms: N_14  and  C_15
REMARK    8  A    between atoms: C_15  and  C_16
REMARK                            x       y       z     vdW  Elec       q    Type
REMARK                         _______ _______ _______ _____ _____    ______ ____
ROOT
ATOM      1  C   UNL     1       3.489   3.225  17.334  0.00  0.00    +0.000 C 
ATOM      2  O   UNL     1       2.491   3.328  16.626  0.00  0.00    +0.000 OA
ATOM      3  N   UNL     1       3.511   2.446  18.486  0.00  0.00    +0.000 N 
ATOM      4  H   UNL     1       4.322   2.591  19.083  0.00  0.00    +0.000 HD
ENDROOT
BRANCH   1   7
ATOM      5  C   UNL     1       6.559   5.099  17.376  0.00  0.00    +0.000 A 
ATOM      6  N   UNL     1       5.499   4.602  17.994  0.00  0.00    +0.000 NA
ATOM      7  C   UNL     1       4.754   3.929  17.032  0.00  0.00    +0.000 A 
ATOM      8  C   UNL     1       5.391   4.042  15.798  0.00  0.00    +0.000 A 
ATOM      9  C   UNL     1       5.164   3.603  14.457  0.00  0.00    +0.000 A 
ATOM     10  C   UNL     1       6.021   3.959  13.478  0.00  0.00    +0.000 A 
ATOM     11  C   UNL     1       7.185   4.785  13.744  0.00  0.00    +0.000 A 
ATOM     12  C   UNL     1       7.414   5.185  15.006  0.00  0.00    +0.000 A 
ATOM     13  N   UNL     1       6.527   4.808  16.024  0.00  0.00    +0.000 N 
BRANCH   5  15
ATOM     14  C   UNL     1       7.451   7.398  17.650  0.00  0.00    +0.000 C 
ATOM     15  C   UNL     1       7.661   5.921  17.984  0.00  0.00    +0.000 C 
ATOM     16  C   UNL     1       7.769   5.697  19.490  0.00  0.00    +0.000 C 
ENDBRANCH   5  15
ENDBRANCH   1   7
BRANCH   3  17
ATOM     17  C   UNL     1       2.302   1.820  19.018  0.00  0.00    +0.000 C 
BRANCH  17  18
ATOM     18  C   UNL     1       1.815   2.403  20.367  0.00  0.00    +0.000 C 
ATOM     19  C   UNL     1       0.643   3.381  20.236  0.00  0.00    +0.000 C 
ATOM     20  C   UNL     1       1.058   4.677  19.536  0.00  0.00    +0.000 C 
ATOM     21  N   UNL     1       2.137   5.394  20.249  0.00  0.00    +0.000 NA
ATOM     22  C   UNL     1       3.285   4.522  20.535  0.00  0.00    +0.000 C 
ATOM     23  C   UNL     1       2.932   3.146  21.124  0.00  0.00    +0.000 C 
BRANCH  21  24
ATOM     24  C   UNL     1       2.521   6.591  19.454  0.00  0.00    +0.000 C 
BRANCH  24  25
ATOM     25  C   UNL     1       2.062   7.978  19.968  0.00  0.00    +0.000 C 
ATOM     26  C   UNL     1       1.072   7.926  21.139  0.00  0.00    +0.000 C 
ATOM     27  C   UNL     1       0.687   9.350  21.538  0.00  0.00    +0.000 C 
ATOM     28  O   UNL     1       0.079  10.030  20.439  0.00  0.00    +0.000 OA
ATOM     29  C   UNL     1       0.958  10.155  19.323  0.00  0.00    +0.000 C 
ATOM     30  C   UNL     1       1.416   8.788  18.827  0.00  0.00    +0.000 C 
ENDBRANCH  24  25
ENDBRANCH  21  24
ENDBRANCH  17  18
ENDBRANCH   3  17
TORSDOF 6
ENDMDL
MODEL 5
REMARK VINA RESULT:      -8.0      2.883     10.032
REMARK  Name = 
REMARK  8 active torsions:
REMARK  status: ('A' for Active; 'I' for Inactive)
REMARK    1  A    between atoms: C_1  and  C_2
REMARK    2  A    between atoms: C_2  and  C_3
REMARK    3  A    between atoms: C_2  and  C_4
REMARK    4  A    between atoms: C_6  and  C_7
REMARK    5  A    between atoms: N_9  and  C_10
REMARK    6  A    between atoms: C_10  and  C_11
REMARK    7  A    between atoms: N_14  and  C_15
REMARK    8  A    between atoms: C_15  and  C_16
REMARK                            x       y       z     vdW  Elec       q    Type
REMARK                         _______ _______ _______ _____ _____    ______ ____
ROOT
ATOM      1  C   UNL     1       2.429   7.430  18.875  0.00  0.00    +0.000 C 
ATOM      2  O   UNL     1       2.045   8.293  18.090  0.00  0.00    +0.000 OA
ATOM      3  N   UNL     1       2.163   7.488  20.239  0.00  0.00    +0.000 N 
ATOM      4  H   UNL     1       2.689   6.827  20.805  0.00  0.00    +0.000 HD
ENDROOT
BRANCH   1   7
ATOM      5  C   UNL     1       4.938   5.108  17.756  0.00  0.00    +0.000 A 
ATOM      6  N   UNL     1       4.557   6.336  18.070  0.00  0.00    +0.000 NA
ATOM      7  C   UNL     1       3.220   6.257  18.443  0.00  0.00    +0.000 A 
ATOM      8  C   UNL     1       2.791   4.935  18.333  0.00  0.00    +0.000 A 
ATOM      9  C   UNL     1       1.583   4.205  18.552  0.00  0.00    +0.000 A 
ATOM     10  C   UNL     1       1.539   2.882  18.287  0.00  0.00    +0.000 A 
ATOM     11  C   UNL     1       2.696   2.166  17.779  0.00  0.00    +0.000 A 
ATOM     12  C   UNL     1       3.840   2.845  17.590  0.00  0.00    +0.000 A 
ATOM     13  N   UNL     1       3.886   4.217  17.873  0.00  0.00    +0.000 N 
BRANCH   5  15
ATOM     14  C   UNL     1       6.390   4.842  15.761  0.00  0.00    +0.000 C 
ATOM     15  C   UNL     1       6.295   4.673  17.278  0.00  0.00    +0.000 C 
ATOM     16  C   UNL     1       7.414   5.423  17.995  0.00  0.00    +0.000 C 
ENDBRANCH   5  15
ENDBRANCH   1   7
BRANCH   3  17
ATOM     17  C   UNL     1       1.540   8.658  20.855  0.00  0.00    +0.000 C 
BRANCH  17  18
ATOM     18  C   UNL     1      -0.008   8.637  20.859  0.00  0.00    +0.000 C 
ATOM     19  C   UNL     1      -0.649   9.776  20.058  0.00  0.00    +0.000 C 
ATOM     20  C   UNL     1      -0.414  11.138  20.715  0.00  0.00    +0.000 C 
ATOM     21  N   UNL     1      -0.963  11.216  22.086  0.00  0.00    +0.000 NA
ATOM     22  C   UNL     1      -0.505  10.103  22.929  0.00  0.00    +0.000 C 
ATOM     23  C   UNL     1      -0.593   8.711  22.282  0.00  0.00    +0.000 C 
BRANCH  21  24
ATOM     24  C   UNL     1      -0.617  12.542  22.663  0.00  0.00    +0.000 C 
BRANCH  24  25
ATOM     25  C   UNL     1      -1.772  13.540  22.925  0.00  0.00    +0.000 C 
ATOM     26  C   UNL     1      -1.473  14.587  24.007  0.00  0.00    +0.000 C 
ATOM     27  C   UNL     1      -2.691  15.494  24.181  0.00  0.00    +0.000 C 
ATOM     28  O   UNL     1      -3.833  14.729  24.570  0.00  0.00    +0.000 OA
ATOM     29  C   UNL     1      -4.197  13.759  23.590  0.00  0.00    +0.000 C 
ATOM     30  C   UNL     1      -3.054  12.785  23.326  0.00  0.00    +0.000 C 
ENDBRANCH  24  25
ENDBRANCH  21  24
ENDBRANCH  17  18
ENDBRANCH   3  17
TORSDOF 6
ENDMDL
MODEL 6
REMARK VINA RESULT:      -7.9      1.545      1.876
REMARK  Name = 
REMARK  8 active torsions:
REMARK  status: ('A' for Active; 'I' for Inactive)
REMARK    1  A    between atoms: C_1  and  C_2
REMARK    2  A    between atoms: C_2  and  C_3
REMARK    3  A    between atoms: C_2  and  C_4
REMARK    4  A    between atoms: C_6  and  C_7
REMARK    5  A    between atoms: N_9  and  C_10
REMARK    6  A    between atoms: C_10  and  C_11
REMARK    7  A    between atoms: N_14  and  C_15
REMARK    8  A    between atoms: C_15  and  C_16
REMARK                            x       y       z     vdW  Elec       q    Type
REMARK                         _______ _______ _______ _____ _____    ______ ____
ROOT
ATOM      1  C   UNL     1       1.543   8.969  18.291  0.00  0.00    +0.000 C 
ATOM      2  O   UNL     1       2.334   8.932  17.352  0.00  0.00    +0.000 OA
ATOM      3  N   UNL     1       1.622   8.096  19.371  0.00  0.00    +0.000 N 
ATOM      4  H   UNL     1       0.809   8.098  19.982  0.00  0.00    +0.000 HD
ENDROOT
BRANCH   1   7
ATOM      5  C   UNL     1      -1.468  10.888  17.852  0.00  0.00    +0.000 A 
ATOM      6  N   UNL     1      -0.677   9.882  17.511  0.00  0.00    +0.000 NA
ATOM      7  C   UNL     1       0.428   9.938  18.353  0.00  0.00    +0.000 A 
ATOM      8  C   UNL     1       0.291  11.025  19.215  0.00  0.00    +0.000 A 
ATOM      9  C   UNL     1       1.041  11.622  20.275  0.00  0.00    +0.000 A 
ATOM     10  C   UNL     1       0.585  12.742  20.874  0.00  0.00    +0.000 A 
ATOM     11  C   UNL     1      -0.660  13.371  20.471  0.00  0.00    +0.000 A 
ATOM     12  C   UNL     1      -1.378  12.804  19.487  0.00  0.00    +0.000 A 
ATOM     13  N   UNL     1      -0.908  11.636  18.872  0.00  0.00    +0.000 N 
BRANCH   5  15
ATOM     14  C   UNL     1      -2.776  10.889  15.743  0.00  0.00    +0.000 C 
ATOM     15  C   UNL     1      -2.783  11.260  17.227  0.00  0.00    +0.000 C 
ATOM     16  C   UNL     1      -3.959  10.617  17.957  0.00  0.00    +0.000 C 
ENDBRANCH   5  15
ENDBRANCH   1   7
BRANCH   3  17
ATOM     17  C   UNL     1       2.559   6.973  19.389  0.00  0.00    +0.000 C 
BRANCH  17  18
ATOM     18  C   UNL     1       1.915   5.603  19.713  0.00  0.00    +0.000 C 
ATOM     19  C   UNL     1       2.850   4.632  20.442  0.00  0.00    +0.000 C 
ATOM     20  C   UNL     1       3.999   4.165  19.545  0.00  0.00    +0.000 C 
ATOM     21  N   UNL     1       3.531   3.475  18.325  0.00  0.00    +0.000 NA
ATOM     22  C   UNL     1       2.534   4.266  17.589  0.00  0.00    +0.000 C 
ATOM     23  C   UNL     1       1.416   4.876  18.450  0.00  0.00    +0.000 C 
BRANCH  21  24
ATOM     24  C   UNL     1       4.711   3.132  17.488  0.00  0.00    +0.000 C 
BRANCH  24  25
ATOM     25  C   UNL     1       5.369   4.267  16.665  0.00  0.00    +0.000 C 
ATOM     26  C   UNL     1       5.979   3.814  15.332  0.00  0.00    +0.000 C 
ATOM     27  C   UNL     1       6.608   5.017  14.631  0.00  0.00    +0.000 C 
ATOM     28  O   UNL     1       7.632   5.592  15.444  0.00  0.00    +0.000 OA
ATOM     29  C   UNL     1       7.129   6.077  16.688  0.00  0.00    +0.000 C 
ATOM     30  C   UNL     1       6.472   4.958  17.490  0.00  0.00    +0.000 C 
ENDBRANCH  24  25
ENDBRANCH  21  24
ENDBRANCH  17  18
ENDBRANCH   3  17
TORSDOF 6
ENDMDL
MODEL 7
REMARK VINA RESULT:      -7.8      1.823      3.290
REMARK  Name = 
REMARK  8 active torsions:
REMARK  status: ('A' for Active; 'I' for Inactive)
REMARK    1  A    between atoms: C_1  and  C_2
REMARK    2  A    between atoms: C_2  and  C_3
REMARK    3  A    between atoms: C_2  and  C_4
REMARK    4  A    between atoms: C_6  and  C_7
REMARK    5  A    between atoms: N_9  and  C_10
REMARK    6  A    between atoms: C_10  and  C_11
REMARK    7  A    between atoms: N_14  and  C_15
REMARK    8  A    between atoms: C_15  and  C_16
REMARK                            x       y       z     vdW  Elec       q    Type
REMARK                         _______ _______ _______ _____ _____    ______ ____
ROOT
ATOM      1  C   UNL     1       1.738   5.357  20.824  0.00  0.00    +0.000 C 
ATOM      2  O   UNL     1       2.804   4.900  21.227  0.00  0.00    +0.000 OA
ATOM      3  N   UNL     1       0.667   4.547  20.459  0.00  0.00    +0.000 N 
ATOM      4  H   UNL     1      -0.082   5.026  19.966  0.00  0.00    +0.000 HD
ENDROOT
BRANCH   1   7
ATOM      5  C   UNL     1       0.850   8.823  21.197  0.00  0.00    +0.000 A 
ATOM      6  N   UNL     1       0.891   7.583  21.660  0.00  0.00    +0.000 NA
ATOM      7  C   UNL     1       1.499   6.809  20.678  0.00  0.00    +0.000 A 
ATOM      8  C   UNL     1       1.818   7.619  19.589  0.00  0.00    +0.000 A 
ATOM      9  C   UNL     1       2.428   7.458  18.307  0.00  0.00    +0.000 A 
ATOM     10  C   UNL     1       2.532   8.514  17.474  0.00  0.00    +0.000 A 
ATOM     11  C   UNL     1       2.037   9.829  17.842  0.00  0.00    +0.000 A 
ATOM     12  C   UNL     1       1.480   9.990  19.053  0.00  0.00    +0.000 A 
ATOM     13  N   UNL     1       1.379   8.894  19.921  0.00  0.00    +0.000 N 
BRANCH   5  15
ATOM     14  C   UNL     1      -0.801  10.665  21.003  0.00  0.00    +0.000 C 
ATOM     15  C   UNL     1       0.274  10.029  21.884  0.00  0.00    +0.000 C 
ATOM     16  C   UNL     1      -0.268   9.687  23.269  0.00  0.00    +0.000 C 
ENDBRANCH   5  15
ENDBRANCH   1   7
BRANCH   3  17
ATOM     17  C   UNL     1       0.791   3.092  20.384  0.00  0.00    +0.000 C 
BRANCH  17  18
ATOM     18  C   UNL     1       0.878   2.526  18.946  0.00  0.00    +0.000 C 
ATOM     19  C   UNL     1       1.948   1.445  18.765  0.00  0.00    +0.000 C 
ATOM     20  C   UNL     1       3.362   2.015  18.898  0.00  0.00    +0.000 C 
ATOM     21  N   UNL     1       3.650   3.073  17.906  0.00  0.00    +0.000 NA
ATOM     22  C   UNL     1       2.622   4.124  17.904  0.00  0.00    +0.000 C 
ATOM     23  C   UNL     1       1.169   3.619  17.901  0.00  0.00    +0.000 C 
BRANCH  21  24
ATOM     24  C   UNL     1       5.011   3.614  18.165  0.00  0.00    +0.000 C 
BRANCH  24  25
ATOM     25  C   UNL     1       5.567   4.674  17.184  0.00  0.00    +0.000 C 
ATOM     26  C   UNL     1       6.086   4.102  15.858  0.00  0.00    +0.000 C 
ATOM     27  C   UNL     1       6.620   5.241  14.991  0.00  0.00    +0.000 C 
ATOM     28  O   UNL     1       7.686   5.920  15.658  0.00  0.00    +0.000 OA
ATOM     29  C   UNL     1       7.267   6.517  16.885  0.00  0.00    +0.000 C 
ATOM     30  C   UNL     1       6.709   5.471  17.844  0.00  0.00    +0.000 C 
ENDBRANCH  24  25
ENDBRANCH  21  24
ENDBRANCH  17  18
ENDBRANCH   3  17
TORSDOF 6
ENDMDL
MODEL 8
REMARK VINA RESULT:      -7.8      2.183      8.723
REMARK  Name = 
REMARK  8 active torsions:
REMARK  status: ('A' for Active; 'I' for Inactive)
REMARK    1  A    between atoms: C_1  and  C_2
REMARK    2  A    between atoms: C_2  and  C_3
REMARK    3  A    between atoms: C_2  and  C_4
REMARK    4  A    between atoms: C_6  and  C_7
REMARK    5  A    between atoms: N_9  and  C_10
REMARK    6  A    between atoms: C_10  and  C_11
REMARK    7  A    between atoms: N_14  and  C_15
REMARK    8  A    between atoms: C_15  and  C_16
REMARK                            x       y       z     vdW  Elec       q    Type
REMARK                         _______ _______ _______ _____ _____    ______ ____
ROOT
ATOM      1  C   UNL     1       2.269   7.451  19.049  0.00  0.00    +0.000 C 
ATOM      2  O   UNL     1       2.014   8.441  18.368  0.00  0.00    +0.000 OA
ATOM      3  N   UNL     1       1.979   7.383  20.408  0.00  0.00    +0.000 N 
ATOM      4  H   UNL     1       2.405   6.600  20.897  0.00  0.00    +0.000 HD
ENDROOT
BRANCH   1   7
ATOM      5  C   UNL     1       4.392   5.038  17.433  0.00  0.00    +0.000 A 
ATOM      6  N   UNL     1       4.106   6.287  17.767  0.00  0.00    +0.000 NA
ATOM      7  C   UNL     1       2.918   6.246  18.489  0.00  0.00    +0.000 A 
ATOM      8  C   UNL     1       2.480   4.925  18.575  0.00  0.00    +0.000 A 
ATOM      9  C   UNL     1       1.378   4.223  19.152  0.00  0.00    +0.000 A 
ATOM     10  C   UNL     1       1.269   2.889  18.985  0.00  0.00    +0.000 A 
ATOM     11  C   UNL     1       2.249   2.131  18.227  0.00  0.00    +0.000 A 
ATOM     12  C   UNL     1       3.298   2.783  17.699  0.00  0.00    +0.000 A 
ATOM     13  N   UNL     1       3.414   4.168  17.880  0.00  0.00    +0.000 N 
BRANCH   5  15
ATOM     14  C   UNL     1       5.630   5.303  15.299  0.00  0.00    +0.000 C 
ATOM     15  C   UNL     1       5.573   4.561  16.634  0.00  0.00    +0.000 C 
ATOM     16  C   UNL     1       6.878   4.707  17.411  0.00  0.00    +0.000 C 
ENDBRANCH   5  15
ENDBRANCH   1   7
BRANCH   3  17
ATOM     17  C   UNL     1       1.491   8.543  21.152  0.00  0.00    +0.000 C 
BRANCH  17  18
ATOM     18  C   UNL     1      -0.051   8.639  21.257  0.00  0.00    +0.000 C 
ATOM     19  C   UNL     1      -0.702   9.457  20.137  0.00  0.00    +0.000 C 
ATOM     20  C   UNL     1      -0.349  10.942  20.236  0.00  0.00    +0.000 C 
ATOM     21  N   UNL     1      -0.777  11.550  21.514  0.00  0.00    +0.000 NA
ATOM     22  C   UNL     1      -0.304  10.785  22.677  0.00  0.00    +0.000 C 
ATOM     23  C   UNL     1      -0.511   9.263  22.588  0.00  0.00    +0.000 C 
BRANCH  21  24
ATOM     24  C   UNL     1      -0.323  12.966  21.546  0.00  0.00    +0.000 C 
BRANCH  24  25
ATOM     25  C   UNL     1       0.627  13.445  20.422  0.00  0.00    +0.000 C 
ATOM     26  C   UNL     1       2.114  13.447  20.804  0.00  0.00    +0.000 C 
ATOM     27  C   UNL     1       2.938  13.955  19.622  0.00  0.00    +0.000 C 
ATOM     28  O   UNL     1       2.543  15.281  19.269  0.00  0.00    +0.000 OA
ATOM     29  C   UNL     1       1.178  15.350  18.859  0.00  0.00    +0.000 C 
ATOM     30  C   UNL     1       0.245  14.867  19.965  0.00  0.00    +0.000 C 
ENDBRANCH  24  25
ENDBRANCH  21  24
ENDBRANCH  17  18
ENDBRANCH   3  17
TORSDOF 6
ENDMDL
MODEL 9
REMARK VINA RESULT:      -7.7      2.279      8.715
REMARK  Name = 
REMARK  8 active torsions:
REMARK  status: ('A' for Active; 'I' for Inactive)
REMARK    1  A    between atoms: C_1  and  C_2
REMARK    2  A    between atoms: C_2  and  C_3
REMARK    3  A    between atoms: C_2  and  C_4
REMARK    4  A    between atoms: C_6  and  C_7
REMARK    5  A    between atoms: N_9  and  C_10
REMARK    6  A    between atoms: C_10  and  C_11
REMARK    7  A    between atoms: N_14  and  C_15
REMARK    8  A    between atoms: C_15  and  C_16
REMARK                            x       y       z     vdW  Elec       q    Type
REMARK                         _______ _______ _______ _____ _____    ______ ____
ROOT
ATOM      1  C   UNL     1       2.076   7.804  19.478  0.00  0.00    +0.000 C 
ATOM      2  O   UNL     1       2.155   8.643  18.584  0.00  0.00    +0.000 OA
ATOM      3  N   UNL     1       1.629   8.115  20.758  0.00  0.00    +0.000 N 
ATOM      4  H   UNL     1       1.788   7.390  21.453  0.00  0.00    +0.000 HD
ENDROOT
BRANCH   1   7
ATOM      5  C   UNL     1       2.488   4.232  19.572  0.00  0.00    +0.000 A 
ATOM      6  N   UNL     1       1.929   5.344  20.024  0.00  0.00    +0.000 NA
ATOM      7  C   UNL     1       2.460   6.390  19.277  0.00  0.00    +0.000 A 
ATOM      8  C   UNL     1       3.376   5.879  18.360  0.00  0.00    +0.000 A 
ATOM      9  C   UNL     1       4.237   6.394  17.342  0.00  0.00    +0.000 A 
ATOM     10  C   UNL     1       5.044   5.557  16.657  0.00  0.00    +0.000 A 
ATOM     11  C   UNL     1       5.067   4.129  16.923  0.00  0.00    +0.000 A 
ATOM     12  C   UNL     1       4.246   3.638  17.866  0.00  0.00    +0.000 A 
ATOM     13  N   UNL     1       3.402   4.507  18.571  0.00  0.00    +0.000 N 
BRANCH   5  15
ATOM     14  C   UNL     1       1.794   2.866  21.524  0.00  0.00    +0.000 C 
ATOM     15  C   UNL     1       2.250   2.832  20.065  0.00  0.00    +0.000 C 
ATOM     16  C   UNL     1       1.252   2.084  19.185  0.00  0.00    +0.000 C 
ENDBRANCH   5  15
ENDBRANCH   1   7
BRANCH   3  17
ATOM     17  C   UNL     1       1.368   9.493  21.172  0.00  0.00    +0.000 C 
BRANCH  17  18
ATOM     18  C   UNL     1      -0.132   9.851  21.310  0.00  0.00    +0.000 C 
ATOM     19  C   UNL     1      -0.903   9.826  19.986  0.00  0.00    +0.000 C 
ATOM     20  C   UNL     1      -0.461  10.951  19.048  0.00  0.00    +0.000 C 
ATOM     21  N   UNL     1      -0.654  12.295  19.631  0.00  0.00    +0.000 NA
ATOM     22  C   UNL     1      -0.049  12.412  20.966  0.00  0.00    +0.000 C 
ATOM     23  C   UNL     1      -0.348  11.247  21.924  0.00  0.00    +0.000 C 
BRANCH  21  24
ATOM     24  C   UNL     1      -0.126  13.309  18.680  0.00  0.00    +0.000 C 
BRANCH  24  25
ATOM     25  C   UNL     1       1.217  13.997  19.029  0.00  0.00    +0.000 C 
ATOM     26  C   UNL     1       1.193  15.528  18.922  0.00  0.00    +0.000 C 
ATOM     27  C   UNL     1       2.574  16.079  19.272  0.00  0.00    +0.000 C 
ATOM     28  O   UNL     1       3.561  15.562  18.378  0.00  0.00    +0.000 OA
ATOM     29  C   UNL     1       3.671  14.141  18.453  0.00  0.00    +0.000 C 
ATOM     30  C   UNL     1       2.344  13.468  18.120  0.00  0.00    +0.000 C 
ENDBRANCH  24  25
ENDBRANCH  21  24
ENDBRANCH  17  18
ENDBRANCH   3  17
TORSDOF 6
ENDMDL
