MODEL 1
REMARK VINA RESULT:      -6.2      0.000      0.000
REMARK  Name = 
REMARK  23 active torsions:
REMARK  status: ('A' for Active; 'I' for Inactive)
REMARK    1  A    between atoms: C_1  and  C_2
REMARK    2  A    between atoms: C_2  and  C_3
REMARK    3  A    between atoms: C_3  and  C_4
REMARK    4  A    between atoms: C_4  and  C_5
REMARK    5  A    between atoms: C_5  and  C_6
REMARK    6  A    between atoms: C_6  and  C_7
REMARK    7  A    between atoms: C_7  and  C_8
REMARK    8  A    between atoms: C_8  and  C_9
REMARK    9  A    between atoms: C_9  and  C_10
REMARK   10  A    between atoms: C_10  and  C_11
REMARK   11  A    between atoms: C_11  and  C_12
REMARK   12  A    between atoms: C_12  and  C_13
REMARK   13  A    between atoms: C_13  and  C_14
REMARK   14  A    between atoms: C_14  and  C_15
REMARK   15  A    between atoms: C_15  and  C_16
REMARK   16  A    between atoms: N_18  and  C_19
REMARK   17  A    between atoms: C_19  and  C_20
REMARK   18  A    between atoms: C_19  and  C_24
REMARK   19  A    between atoms: C_20  and  C_21
REMARK   20  A    between atoms: C_21  and  O_23
REMARK   21  A    between atoms: C_24  and  C_25
REMARK   22  A    between atoms: C_25  and  C_26
REMARK   23  A    between atoms: C_25  and  C_27
REMARK                            x       y       z     vdW  Elec       q    Type
REMARK                         _______ _______ _______ _____ _____    ______ ____
ROOT
ATOM      1  C   UNL     1       7.033   4.813  17.176  0.00  0.00    +0.000 C 
ENDROOT
BRANCH   1   2
ATOM      2  C   UNL     1       6.556   5.156  15.785  0.00  0.00    +0.000 C 
ATOM      3  O   UNL     1       6.111   6.263  15.502  0.00  0.00    +0.000 OA
ATOM      4  N   UNL     1       6.715   4.173  14.834  0.00  0.00    +0.000 N 
ATOM      5  H   UNL     1       7.325   3.383  15.031  0.00  0.00    +0.000 HD
BRANCH   4   6
ATOM      6  C   UNL     1       6.307   4.431  13.460  0.00  0.00    +0.000 C 
BRANCH   6   7
ATOM      7  C   UNL     1       5.208   3.444  13.024  0.00  0.00    +0.000 C 
BRANCH   7   8
ATOM      8  C   UNL     1       5.226   3.011  11.536  0.00  0.00    +0.000 C 
ATOM      9  C   UNL     1       5.695   1.571  11.299  0.00  0.00    +0.000 C 
ATOM     10  C   UNL     1       3.818   3.174  10.951  0.00  0.00    +0.000 C 
ENDBRANCH   7   8
ENDBRANCH   6   7
BRANCH   6  11
ATOM     11  C   UNL     1       7.540   4.415  12.534  0.00  0.00    +0.000 C 
BRANCH  11  12
ATOM     12  C   UNL     1       8.159   5.772  12.447  0.00  0.00    +0.000 C 
ATOM     13  O   UNL     1       7.959   6.544  11.519  0.00  0.00    +0.000 OA
BRANCH  12  14
ATOM     14  O   UNL     1       9.008   6.035  13.462  0.00  0.00    +0.000 OA
ATOM     15  H   UNL     1       8.702   5.851  14.370  0.00  0.00    +0.000 HD
ENDBRANCH  12  14
ENDBRANCH  11  12
ENDBRANCH   6  11
ENDBRANCH   4   6
ENDBRANCH   1   2
BRANCH   1  16
ATOM     16  C   UNL     1       5.871   5.001  18.139  0.00  0.00    +0.000 C 
BRANCH  16  17
ATOM     17  C   UNL     1       5.077   3.719  18.356  0.00  0.00    +0.000 C 
BRANCH  17  18
ATOM     18  C   UNL     1       4.201   3.444  17.137  0.00  0.00    +0.000 C 
BRANCH  18  19
ATOM     19  C   UNL     1       2.727   3.570  17.489  0.00  0.00    +0.000 C 
BRANCH  19  20
ATOM     20  C   UNL     1       2.187   2.260  18.047  0.00  0.00    +0.000 C 
BRANCH  20  21
ATOM     21  C   UNL     1       1.123   2.545  19.099  0.00  0.00    +0.000 C 
BRANCH  21  22
ATOM     22  C   UNL     1       1.715   2.472  20.497  0.00  0.00    +0.000 C 
BRANCH  22  23
ATOM     23  C   UNL     1       2.152   3.858  20.955  0.00  0.00    +0.000 C 
BRANCH  23  24
ATOM     24  C   UNL     1       1.116   4.900  20.563  0.00  0.00    +0.000 C 
BRANCH  24  25
ATOM     25  C   UNL     1       1.745   6.286  20.531  0.00  0.00    +0.000 C 
BRANCH  25  26
ATOM     26  C   UNL     1       2.894   6.332  19.531  0.00  0.00    +0.000 C 
BRANCH  26  27
ATOM     27  C   UNL     1       2.619   7.362  18.442  0.00  0.00    +0.000 C 
BRANCH  27  29
ATOM     28  C   UNL     1       1.228   9.364  17.871  0.00  0.00    +0.000 C 
ATOM     29  C   UNL     1       1.818   8.536  18.992  0.00  0.00    +0.000 C 
ENDBRANCH  27  29
ENDBRANCH  26  27
ENDBRANCH  25  26
ENDBRANCH  24  25
ENDBRANCH  23  24
ENDBRANCH  22  23
ENDBRANCH  21  22
ENDBRANCH  20  21
ENDBRANCH  19  20
ENDBRANCH  18  19
ENDBRANCH  17  18
ENDBRANCH  16  17
ENDBRANCH   1  16
TORSDOF 20
ENDMDL
MODEL 2
REMARK VINA RESULT:      -5.8      2.094      4.574
REMARK  Name = 
REMARK  23 active torsions:
REMARK  status: ('A' for Active; 'I' for Inactive)
REMARK    1  A    between atoms: C_1  and  C_2
REMARK    2  A    between atoms: C_2  and  C_3
REMARK    3  A    between atoms: C_3  and  C_4
REMARK    4  A    between atoms: C_4  and  C_5
REMARK    5  A    between atoms: C_5  and  C_6
REMARK    6  A    between atoms: C_6  and  C_7
REMARK    7  A    between atoms: C_7  and  C_8
REMARK    8  A    between atoms: C_8  and  C_9
REMARK    9  A    between atoms: C_9  and  C_10
REMARK   10  A    between atoms: C_10  and  C_11
REMARK   11  A    between atoms: C_11  and  C_12
REMARK   12  A    between atoms: C_12  and  C_13
REMARK   13  A    between atoms: C_13  and  C_14
REMARK   14  A    between atoms: C_14  and  C_15
REMARK   15  A    between atoms: C_15  and  C_16
REMARK   16  A    between atoms: N_18  and  C_19
REMARK   17  A    between atoms: C_19  and  C_20
REMARK   18  A    between atoms: C_19  and  C_24
REMARK   19  A    between atoms: C_20  and  C_21
REMARK   20  A    between atoms: C_21  and  O_23
REMARK   21  A    between atoms: C_24  and  C_25
REMARK   22  A    between atoms: C_25  and  C_26
REMARK   23  A    between atoms: C_25  and  C_27
REMARK                            x       y       z     vdW  Elec       q    Type
REMARK                         _______ _______ _______ _____ _____    ______ ____
ROOT
ATOM      1  C   UNL     1       3.386   2.454  18.913  0.00  0.00    +0.000 C 
ENDROOT
BRANCH   1   2
ATOM      2  C   UNL     1       4.030   3.345  17.878  0.00  0.00    +0.000 C 
ATOM      3  O   UNL     1       3.373   3.955  17.042  0.00  0.00    +0.000 OA
ATOM      4  N   UNL     1       5.396   3.488  17.972  0.00  0.00    +0.000 N 
ATOM      5  H   UNL     1       5.870   3.196  18.824  0.00  0.00    +0.000 HD
BRANCH   4   6
ATOM      6  C   UNL     1       6.094   4.352  17.030  0.00  0.00    +0.000 C 
BRANCH   6   7
ATOM      7  C   UNL     1       6.236   3.662  15.660  0.00  0.00    +0.000 C 
BRANCH   7   8
ATOM      8  C   UNL     1       6.096   4.575  14.415  0.00  0.00    +0.000 C 
ATOM      9  C   UNL     1       7.384   5.301  14.012  0.00  0.00    +0.000 C 
ATOM     10  C   UNL     1       5.614   3.731  13.229  0.00  0.00    +0.000 C 
ENDBRANCH   7   8
ENDBRANCH   6   7
BRANCH   6  11
ATOM     11  C   UNL     1       7.443   4.798  17.627  0.00  0.00    +0.000 C 
BRANCH  11  12
ATOM     12  C   UNL     1       7.488   6.283  17.792  0.00  0.00    +0.000 C 
ATOM     13  O   UNL     1       7.085   7.066  16.943  0.00  0.00    +0.000 OA
BRANCH  12  14
ATOM     14  O   UNL     1       8.074   6.673  18.943  0.00  0.00    +0.000 OA
ATOM     15  H   UNL     1       7.754   6.274  19.774  0.00  0.00    +0.000 HD
ENDBRANCH  12  14
ENDBRANCH  11  12
ENDBRANCH   6  11
ENDBRANCH   4   6
ENDBRANCH   1   2
BRANCH   1  16
ATOM     16  C   UNL     1       1.891   2.408  18.640  0.00  0.00    +0.000 C 
BRANCH  16  17
ATOM     17  C   UNL     1       1.066   2.942  19.805  0.00  0.00    +0.000 C 
BRANCH  17  18
ATOM     18  C   UNL     1       1.969   3.163  21.015  0.00  0.00    +0.000 C 
BRANCH  18  19
ATOM     19  C   UNL     1       2.198   4.646  21.259  0.00  0.00    +0.000 C 
BRANCH  19  20
ATOM     20  C   UNL     1       1.476   5.487  20.215  0.00  0.00    +0.000 C 
BRANCH  20  21
ATOM     21  C   UNL     1       2.471   6.388  19.497  0.00  0.00    +0.000 C 
BRANCH  21  22
ATOM     22  C   UNL     1       2.054   7.846  19.606  0.00  0.00    +0.000 C 
BRANCH  22  23
ATOM     23  C   UNL     1       1.857   8.442  18.218  0.00  0.00    +0.000 C 
BRANCH  23  24
ATOM     24  C   UNL     1       1.473   9.910  18.316  0.00  0.00    +0.000 C 
BRANCH  24  25
ATOM     25  C   UNL     1       0.584  10.145  19.529  0.00  0.00    +0.000 C 
BRANCH  25  26
ATOM     26  C   UNL     1      -0.880  10.225  19.114  0.00  0.00    +0.000 C 
BRANCH  26  27
ATOM     27  C   UNL     1      -1.102  11.377  18.142  0.00  0.00    +0.000 C 
BRANCH  27  29
ATOM     28  C   UNL     1      -2.943   9.779  17.572  0.00  0.00    +0.000 C 
ATOM     29  C   UNL     1      -2.286  11.097  17.224  0.00  0.00    +0.000 C 
ENDBRANCH  27  29
ENDBRANCH  26  27
ENDBRANCH  25  26
ENDBRANCH  24  25
ENDBRANCH  23  24
ENDBRANCH  22  23
ENDBRANCH  21  22
ENDBRANCH  20  21
ENDBRANCH  19  20
ENDBRANCH  18  19
ENDBRANCH  17  18
ENDBRANCH  16  17
ENDBRANCH   1  16
TORSDOF 20
ENDMDL
MODEL 3
REMARK VINA RESULT:      -5.8      2.385      5.195
REMARK  Name = 
REMARK  23 active torsions:
REMARK  status: ('A' for Active; 'I' for Inactive)
REMARK    1  A    between atoms: C_1  and  C_2
REMARK    2  A    between atoms: C_2  and  C_3
REMARK    3  A    between atoms: C_3  and  C_4
REMARK    4  A    between atoms: C_4  and  C_5
REMARK    5  A    between atoms: C_5  and  C_6
REMARK    6  A    between atoms: C_6  and  C_7
REMARK    7  A    between atoms: C_7  and  C_8
REMARK    8  A    between atoms: C_8  and  C_9
REMARK    9  A    between atoms: C_9  and  C_10
REMARK   10  A    between atoms: C_10  and  C_11
REMARK   11  A    between atoms: C_11  and  C_12
REMARK   12  A    between atoms: C_12  and  C_13
REMARK   13  A    between atoms: C_13  and  C_14
REMARK   14  A    between atoms: C_14  and  C_15
REMARK   15  A    between atoms: C_15  and  C_16
REMARK   16  A    between atoms: N_18  and  C_19
REMARK   17  A    between atoms: C_19  and  C_20
REMARK   18  A    between atoms: C_19  and  C_24
REMARK   19  A    between atoms: C_20  and  C_21
REMARK   20  A    between atoms: C_21  and  O_23
REMARK   21  A    between atoms: C_24  and  C_25
REMARK   22  A    between atoms: C_25  and  C_26
REMARK   23  A    between atoms: C_25  and  C_27
REMARK                            x       y       z     vdW  Elec       q    Type
REMARK                         _______ _______ _______ _____ _____    ______ ____
ROOT
ATOM      1  C   UNL     1       2.548   2.668  17.898  0.00  0.00    +0.000 C 
ENDROOT
BRANCH   1   2
ATOM      2  C   UNL     1       3.865   3.405  17.819  0.00  0.00    +0.000 C 
ATOM      3  O   UNL     1       4.734   3.281  18.675  0.00  0.00    +0.000 OA
ATOM      4  N   UNL     1       4.060   4.171  16.693  0.00  0.00    +0.000 N 
ATOM      5  H   UNL     1       3.450   4.040  15.888  0.00  0.00    +0.000 HD
BRANCH   4   6
ATOM      6  C   UNL     1       5.314   4.892  16.523  0.00  0.00    +0.000 C 
BRANCH   6   7
ATOM      7  C   UNL     1       5.271   6.240  17.268  0.00  0.00    +0.000 C 
BRANCH   7   8
ATOM      8  C   UNL     1       6.467   6.544  18.206  0.00  0.00    +0.000 C 
ATOM      9  C   UNL     1       7.240   5.305  18.671  0.00  0.00    +0.000 C 
ATOM     10  C   UNL     1       7.437   7.490  17.488  0.00  0.00    +0.000 C 
ENDBRANCH   7   8
ENDBRANCH   6   7
BRANCH   6  11
ATOM     11  C   UNL     1       5.638   5.037  15.023  0.00  0.00    +0.000 C 
BRANCH  11  12
ATOM     12  C   UNL     1       7.108   4.920  14.782  0.00  0.00    +0.000 C 
ATOM     13  O   UNL     1       7.889   4.452  15.600  0.00  0.00    +0.000 OA
BRANCH  12  14
ATOM     14  O   UNL     1       7.496   5.440  13.599  0.00  0.00    +0.000 OA
ATOM     15  H   UNL     1       8.438   5.364  13.356  0.00  0.00    +0.000 HD
ENDBRANCH  12  14
ENDBRANCH  11  12
ENDBRANCH   6  11
ENDBRANCH   4   6
ENDBRANCH   1   2
BRANCH   1  16
ATOM     16  C   UNL     1       1.533   3.576  18.573  0.00  0.00    +0.000 C 
BRANCH  16  17
ATOM     17  C   UNL     1       1.075   3.039  19.924  0.00  0.00    +0.000 C 
BRANCH  17  18
ATOM     18  C   UNL     1       1.413   4.048  21.019  0.00  0.00    +0.000 C 
BRANCH  18  19
ATOM     19  C   UNL     1       2.059   5.292  20.430  0.00  0.00    +0.000 C 
BRANCH  19  20
ATOM     20  C   UNL     1       1.166   6.510  20.619  0.00  0.00    +0.000 C 
BRANCH  20  21
ATOM     21  C   UNL     1       1.925   7.774  20.240  0.00  0.00    +0.000 C 
BRANCH  21  22
ATOM     22  C   UNL     1       2.136   7.845  18.735  0.00  0.00    +0.000 C 
BRANCH  22  23
ATOM     23  C   UNL     1       1.606   9.166  18.193  0.00  0.00    +0.000 C 
BRANCH  23  24
ATOM     24  C   UNL     1       0.714   9.845  19.220  0.00  0.00    +0.000 C 
BRANCH  24  25
ATOM     25  C   UNL     1       1.153  11.287  19.433  0.00  0.00    +0.000 C 
BRANCH  25  26
ATOM     26  C   UNL     1       0.150  12.030  20.308  0.00  0.00    +0.000 C 
BRANCH  26  27
ATOM     27  C   UNL     1      -0.784  11.049  21.007  0.00  0.00    +0.000 C 
BRANCH  27  29
ATOM     28  C   UNL     1      -0.173   9.660  22.997  0.00  0.00    +0.000 C 
ATOM     29  C   UNL     1      -0.543  11.044  22.512  0.00  0.00    +0.000 C 
ENDBRANCH  27  29
ENDBRANCH  26  27
ENDBRANCH  25  26
ENDBRANCH  24  25
ENDBRANCH  23  24
ENDBRANCH  22  23
ENDBRANCH  21  22
ENDBRANCH  20  21
ENDBRANCH  19  20
ENDBRANCH  18  19
ENDBRANCH  17  18
ENDBRANCH  16  17
ENDBRANCH   1  16
TORSDOF 20
ENDMDL
MODEL 4
REMARK VINA RESULT:      -5.6      4.525      8.740
REMARK  Name = 
REMARK  23 active torsions:
REMARK  status: ('A' for Active; 'I' for Inactive)
REMARK    1  A    between atoms: C_1  and  C_2
REMARK    2  A    between atoms: C_2  and  C_3
REMARK    3  A    between atoms: C_3  and  C_4
REMARK    4  A    between atoms: C_4  and  C_5
REMARK    5  A    between atoms: C_5  and  C_6
REMARK    6  A    between atoms: C_6  and  C_7
REMARK    7  A    between atoms: C_7  and  C_8
REMARK    8  A    between atoms: C_8  and  C_9
REMARK    9  A    between atoms: C_9  and  C_10
REMARK   10  A    between atoms: C_10  and  C_11
REMARK   11  A    between atoms: C_11  and  C_12
REMARK   12  A    between atoms: C_12  and  C_13
REMARK   13  A    between atoms: C_13  and  C_14
REMARK   14  A    between atoms: C_14  and  C_15
REMARK   15  A    between atoms: C_15  and  C_16
REMARK   16  A    between atoms: N_18  and  C_19
REMARK   17  A    between atoms: C_19  and  C_20
REMARK   18  A    between atoms: C_19  and  C_24
REMARK   19  A    between atoms: C_20  and  C_21
REMARK   20  A    between atoms: C_21  and  O_23
REMARK   21  A    between atoms: C_24  and  C_25
REMARK   22  A    between atoms: C_25  and  C_26
REMARK   23  A    between atoms: C_25  and  C_27
REMARK                            x       y       z     vdW  Elec       q    Type
REMARK                         _______ _______ _______ _____ _____    ______ ____
ROOT
ATOM      1  C   UNL     1       2.343   9.123  18.031  0.00  0.00    +0.000 C 
ENDROOT
BRANCH   1   2
ATOM      2  C   UNL     1       1.045   9.599  18.638  0.00  0.00    +0.000 C 
ATOM      3  O   UNL     1       0.814   9.505  19.839  0.00  0.00    +0.000 OA
ATOM      4  N   UNL     1       0.162  10.206  17.775  0.00  0.00    +0.000 N 
ATOM      5  H   UNL     1       0.489  10.510  16.860  0.00  0.00    +0.000 HD
BRANCH   4   6
ATOM      6  C   UNL     1      -1.102  10.720  18.284  0.00  0.00    +0.000 C 
BRANCH   6   7
ATOM      7  C   UNL     1      -2.289  10.088  17.531  0.00  0.00    +0.000 C 
BRANCH   7   8
ATOM      8  C   UNL     1      -2.924  10.947  16.408  0.00  0.00    +0.000 C 
ATOM      9  C   UNL     1      -2.934  10.282  15.028  0.00  0.00    +0.000 C 
ATOM     10  C   UNL     1      -4.366  11.292  16.800  0.00  0.00    +0.000 C 
ENDBRANCH   7   8
ENDBRANCH   6   7
BRANCH   6  11
ATOM     11  C   UNL     1      -1.102  12.260  18.233  0.00  0.00    +0.000 C 
BRANCH  11  12
ATOM     12  C   UNL     1      -1.021  12.839  19.609  0.00  0.00    +0.000 C 
ATOM     13  O   UNL     1      -1.632  13.841  19.954  0.00  0.00    +0.000 OA
BRANCH  12  14
ATOM     14  O   UNL     1      -0.159  12.182  20.412  0.00  0.00    +0.000 OA
ATOM     15  H   UNL     1       0.659  11.832  20.011  0.00  0.00    +0.000 HD
ENDBRANCH  12  14
ENDBRANCH  11  12
ENDBRANCH   6  11
ENDBRANCH   4   6
ENDBRANCH   1   2
BRANCH   1  16
ATOM     16  C   UNL     1       2.125   7.726  17.472  0.00  0.00    +0.000 C 
BRANCH  16  17
ATOM     17  C   UNL     1       2.529   6.633  18.454  0.00  0.00    +0.000 C 
BRANCH  17  18
ATOM     18  C   UNL     1       2.023   5.282  17.956  0.00  0.00    +0.000 C 
BRANCH  18  19
ATOM     19  C   UNL     1       3.170   4.297  17.797  0.00  0.00    +0.000 C 
BRANCH  19  20
ATOM     20  C   UNL     1       3.464   3.587  19.111  0.00  0.00    +0.000 C 
BRANCH  20  21
ATOM     21  C   UNL     1       4.968   3.522  19.339  0.00  0.00    +0.000 C 
BRANCH  21  22
ATOM     22  C   UNL     1       5.587   4.908  19.252  0.00  0.00    +0.000 C 
BRANCH  22  23
ATOM     23  C   UNL     1       6.992   4.819  18.671  0.00  0.00    +0.000 C 
BRANCH  23  24
ATOM     24  C   UNL     1       7.663   6.183  18.685  0.00  0.00    +0.000 C 
BRANCH  24  25
ATOM     25  C   UNL     1       7.241   6.995  17.469  0.00  0.00    +0.000 C 
BRANCH  25  26
ATOM     26  C   UNL     1       7.011   6.084  16.269  0.00  0.00    +0.000 C 
BRANCH  26  27
ATOM     27  C   UNL     1       5.578   6.210  15.766  0.00  0.00    +0.000 C 
BRANCH  27  29
ATOM     28  C   UNL     1       6.186   3.860  15.152  0.00  0.00    +0.000 C 
ATOM     29  C   UNL     1       5.154   4.957  15.008  0.00  0.00    +0.000 C 
ENDBRANCH  27  29
ENDBRANCH  26  27
ENDBRANCH  25  26
ENDBRANCH  24  25
ENDBRANCH  23  24
ENDBRANCH  22  23
ENDBRANCH  21  22
ENDBRANCH  20  21
ENDBRANCH  19  20
ENDBRANCH  18  19
ENDBRANCH  17  18
ENDBRANCH  16  17
ENDBRANCH   1  16
TORSDOF 20
ENDMDL
MODEL 5
REMARK VINA RESULT:      -5.6      3.011      6.190
REMARK  Name = 
REMARK  23 active torsions:
REMARK  status: ('A' for Active; 'I' for Inactive)
REMARK    1  A    between atoms: C_1  and  C_2
REMARK    2  A    between atoms: C_2  and  C_3
REMARK    3  A    between atoms: C_3  and  C_4
REMARK    4  A    between atoms: C_4  and  C_5
REMARK    5  A    between atoms: C_5  and  C_6
REMARK    6  A    between atoms: C_6  and  C_7
REMARK    7  A    between atoms: C_7  and  C_8
REMARK    8  A    between atoms: C_8  and  C_9
REMARK    9  A    between atoms: C_9  and  C_10
REMARK   10  A    between atoms: C_10  and  C_11
REMARK   11  A    between atoms: C_11  and  C_12
REMARK   12  A    between atoms: C_12  and  C_13
REMARK   13  A    between atoms: C_13  and  C_14
REMARK   14  A    between atoms: C_14  and  C_15
REMARK   15  A    between atoms: C_15  and  C_16
REMARK   16  A    between atoms: N_18  and  C_19
REMARK   17  A    between atoms: C_19  and  C_20
REMARK   18  A    between atoms: C_19  and  C_24
REMARK   19  A    between atoms: C_20  and  C_21
REMARK   20  A    between atoms: C_21  and  O_23
REMARK   21  A    between atoms: C_24  and  C_25
REMARK   22  A    between atoms: C_25  and  C_26
REMARK   23  A    between atoms: C_25  and  C_27
REMARK                            x       y       z     vdW  Elec       q    Type
REMARK                         _______ _______ _______ _____ _____    ______ ____
ROOT
ATOM      1  C   UNL     1       2.355   4.958  18.439  0.00  0.00    +0.000 C 
ENDROOT
BRANCH   1   2
ATOM      2  C   UNL     1       3.467   4.321  17.640  0.00  0.00    +0.000 C 
ATOM      3  O   UNL     1       3.419   3.152  17.273  0.00  0.00    +0.000 OA
ATOM      4  N   UNL     1       4.508   5.149  17.290  0.00  0.00    +0.000 N 
ATOM      5  H   UNL     1       4.393   6.157  17.371  0.00  0.00    +0.000 HD
BRANCH   4   6
ATOM      6  C   UNL     1       5.610   4.622  16.495  0.00  0.00    +0.000 C 
BRANCH   6   7
ATOM      7  C   UNL     1       6.943   4.762  17.253  0.00  0.00    +0.000 C 
BRANCH   7   8
ATOM      8  C   UNL     1       7.055   5.963  18.228  0.00  0.00    +0.000 C 
ATOM      9  C   UNL     1       7.967   5.719  19.435  0.00  0.00    +0.000 C 
ATOM     10  C   UNL     1       7.572   7.184  17.459  0.00  0.00    +0.000 C 
ENDBRANCH   7   8
ENDBRANCH   6   7
BRANCH   6  11
ATOM     11  C   UNL     1       5.626   5.295  15.109  0.00  0.00    +0.000 C 
BRANCH  11  12
ATOM     12  C   UNL     1       6.737   4.755  14.268  0.00  0.00    +0.000 C 
ATOM     13  O   UNL     1       7.770   5.370  14.043  0.00  0.00    +0.000 OA
BRANCH  12  14
ATOM     14  O   UNL     1       6.459   3.549  13.730  0.00  0.00    +0.000 OA
ATOM     15  H   UNL     1       5.578   3.422  13.330  0.00  0.00    +0.000 HD
ENDBRANCH  12  14
ENDBRANCH  11  12
ENDBRANCH   6  11
ENDBRANCH   4   6
ENDBRANCH   1   2
BRANCH   1  16
ATOM     16  C   UNL     1       2.979   5.859  19.493  0.00  0.00    +0.000 C 
BRANCH  16  17
ATOM     17  C   UNL     1       2.351   7.247  19.523  0.00  0.00    +0.000 C 
BRANCH  17  18
ATOM     18  C   UNL     1       2.346   7.839  18.116  0.00  0.00    +0.000 C 
BRANCH  18  19
ATOM     19  C   UNL     1       2.251   9.355  18.165  0.00  0.00    +0.000 C 
BRANCH  19  20
ATOM     20  C   UNL     1       0.798   9.810  18.157  0.00  0.00    +0.000 C 
BRANCH  20  21
ATOM     21  C   UNL     1       0.718  11.294  18.489  0.00  0.00    +0.000 C 
BRANCH  21  22
ATOM     22  C   UNL     1       0.141  11.505  19.880  0.00  0.00    +0.000 C 
BRANCH  22  23
ATOM     23  C   UNL     1      -1.020  12.488  19.823  0.00  0.00    +0.000 C 
BRANCH  23  24
ATOM     24  C   UNL     1      -2.348  11.750  19.895  0.00  0.00    +0.000 C 
BRANCH  24  25
ATOM     25  C   UNL     1      -3.072  11.829  18.559  0.00  0.00    +0.000 C 
BRANCH  25  26
ATOM     26  C   UNL     1      -3.055  10.476  17.858  0.00  0.00    +0.000 C 
BRANCH  26  27
ATOM     27  C   UNL     1      -2.241  10.547  16.572  0.00  0.00    +0.000 C 
BRANCH  27  29
ATOM     28  C   UNL     1      -3.804  10.298  14.632  0.00  0.00    +0.000 C 
ATOM     29  C   UNL     1      -2.800   9.596  15.520  0.00  0.00    +0.000 C 
ENDBRANCH  27  29
ENDBRANCH  26  27
ENDBRANCH  25  26
ENDBRANCH  24  25
ENDBRANCH  23  24
ENDBRANCH  22  23
ENDBRANCH  21  22
ENDBRANCH  20  21
ENDBRANCH  19  20
ENDBRANCH  18  19
ENDBRANCH  17  18
ENDBRANCH  16  17
ENDBRANCH   1  16
TORSDOF 20
ENDMDL
MODEL 6
REMARK VINA RESULT:      -5.6      2.577      5.660
REMARK  Name = 
REMARK  23 active torsions:
REMARK  status: ('A' for Active; 'I' for Inactive)
REMARK    1  A    between atoms: C_1  and  C_2
REMARK    2  A    between atoms: C_2  and  C_3
REMARK    3  A    between atoms: C_3  and  C_4
REMARK    4  A    between atoms: C_4  and  C_5
REMARK    5  A    between atoms: C_5  and  C_6
REMARK    6  A    between atoms: C_6  and  C_7
REMARK    7  A    between atoms: C_7  and  C_8
REMARK    8  A    between atoms: C_8  and  C_9
REMARK    9  A    between atoms: C_9  and  C_10
REMARK   10  A    between atoms: C_10  and  C_11
REMARK   11  A    between atoms: C_11  and  C_12
REMARK   12  A    between atoms: C_12  and  C_13
REMARK   13  A    between atoms: C_13  and  C_14
REMARK   14  A    between atoms: C_14  and  C_15
REMARK   15  A    between atoms: C_15  and  C_16
REMARK   16  A    between atoms: N_18  and  C_19
REMARK   17  A    between atoms: C_19  and  C_20
REMARK   18  A    between atoms: C_19  and  C_24
REMARK   19  A    between atoms: C_20  and  C_21
REMARK   20  A    between atoms: C_21  and  O_23
REMARK   21  A    between atoms: C_24  and  C_25
REMARK   22  A    between atoms: C_25  and  C_26
REMARK   23  A    between atoms: C_25  and  C_27
REMARK                            x       y       z     vdW  Elec       q    Type
REMARK                         _______ _______ _______ _____ _____    ______ ____
ROOT
ATOM      1  C   UNL     1       2.443   3.108  17.464  0.00  0.00    +0.000 C 
ENDROOT
BRANCH   1   2
ATOM      2  C   UNL     1       3.902   3.218  17.839  0.00  0.00    +0.000 C 
ATOM      3  O   UNL     1       4.379   2.607  18.790  0.00  0.00    +0.000 OA
ATOM      4  N   UNL     1       4.681   3.991  17.009  0.00  0.00    +0.000 N 
ATOM      5  H   UNL     1       4.324   4.256  16.093  0.00  0.00    +0.000 HD
BRANCH   4   6
ATOM      6  C   UNL     1       6.105   4.128  17.282  0.00  0.00    +0.000 C 
BRANCH   6   7
ATOM      7  C   UNL     1       6.354   5.222  18.338  0.00  0.00    +0.000 C 
BRANCH   7   8
ATOM      8  C   UNL     1       7.521   6.201  18.050  0.00  0.00    +0.000 C 
ATOM      9  C   UNL     1       7.091   7.542  17.447  0.00  0.00    +0.000 C 
ATOM     10  C   UNL     1       8.282   6.467  19.353  0.00  0.00    +0.000 C 
ENDBRANCH   7   8
ENDBRANCH   6   7
BRANCH   6  11
ATOM     11  C   UNL     1       6.872   4.368  15.967  0.00  0.00    +0.000 C 
BRANCH  11  12
ATOM     12  C   UNL     1       5.951   4.850  14.893  0.00  0.00    +0.000 C 
ATOM     13  O   UNL     1       5.423   5.953  14.906  0.00  0.00    +0.000 OA
BRANCH  12  14
ATOM     14  O   UNL     1       5.711   3.922  13.944  0.00  0.00    +0.000 OA
ATOM     15  H   UNL     1       5.257   3.102  14.215  0.00  0.00    +0.000 HD
ENDBRANCH  12  14
ENDBRANCH  11  12
ENDBRANCH   6  11
ENDBRANCH   4   6
ENDBRANCH   1   2
BRANCH   1  16
ATOM     16  C   UNL     1       1.685   4.227  18.160  0.00  0.00    +0.000 C 
BRANCH  16  17
ATOM     17  C   UNL     1       1.555   4.000  19.661  0.00  0.00    +0.000 C 
BRANCH  17  18
ATOM     18  C   UNL     1       2.309   5.093  20.413  0.00  0.00    +0.000 C 
BRANCH  18  19
ATOM     19  C   UNL     1       1.603   6.432  20.278  0.00  0.00    +0.000 C 
BRANCH  19  20
ATOM     20  C   UNL     1       2.510   7.461  19.616  0.00  0.00    +0.000 C 
BRANCH  20  21
ATOM     21  C   UNL     1       2.090   7.665  18.167  0.00  0.00    +0.000 C 
BRANCH  21  22
ATOM     22  C   UNL     1       1.795   9.131  17.892  0.00  0.00    +0.000 C 
BRANCH  22  23
ATOM     23  C   UNL     1       1.130   9.768  19.105  0.00  0.00    +0.000 C 
BRANCH  23  24
ATOM     24  C   UNL     1       0.146  10.844  18.671  0.00  0.00    +0.000 C 
BRANCH  24  25
ATOM     25  C   UNL     1      -1.128  10.210  18.132  0.00  0.00    +0.000 C 
BRANCH  25  26
ATOM     26  C   UNL     1      -2.105  11.283  17.666  0.00  0.00    +0.000 C 
BRANCH  26  27
ATOM     27  C   UNL     1      -3.278  10.655  16.922  0.00  0.00    +0.000 C 
BRANCH  27  29
ATOM     28  C   UNL     1      -3.256  10.177  14.465  0.00  0.00    +0.000 C 
ATOM     29  C   UNL     1      -2.789   9.714  15.827  0.00  0.00    +0.000 C 
ENDBRANCH  27  29
ENDBRANCH  26  27
ENDBRANCH  25  26
ENDBRANCH  24  25
ENDBRANCH  23  24
ENDBRANCH  22  23
ENDBRANCH  21  22
ENDBRANCH  20  21
ENDBRANCH  19  20
ENDBRANCH  18  19
ENDBRANCH  17  18
ENDBRANCH  16  17
ENDBRANCH   1  16
TORSDOF 20
ENDMDL
MODEL 7
REMARK VINA RESULT:      -5.6      3.977      8.389
REMARK  Name = 
REMARK  23 active torsions:
REMARK  status: ('A' for Active; 'I' for Inactive)
REMARK    1  A    between atoms: C_1  and  C_2
REMARK    2  A    between atoms: C_2  and  C_3
REMARK    3  A    between atoms: C_3  and  C_4
REMARK    4  A    between atoms: C_4  and  C_5
REMARK    5  A    between atoms: C_5  and  C_6
REMARK    6  A    between atoms: C_6  and  C_7
REMARK    7  A    between atoms: C_7  and  C_8
REMARK    8  A    between atoms: C_8  and  C_9
REMARK    9  A    between atoms: C_9  and  C_10
REMARK   10  A    between atoms: C_10  and  C_11
REMARK   11  A    between atoms: C_11  and  C_12
REMARK   12  A    between atoms: C_12  and  C_13
REMARK   13  A    between atoms: C_13  and  C_14
REMARK   14  A    between atoms: C_14  and  C_15
REMARK   15  A    between atoms: C_15  and  C_16
REMARK   16  A    between atoms: N_18  and  C_19
REMARK   17  A    between atoms: C_19  and  C_20
REMARK   18  A    between atoms: C_19  and  C_24
REMARK   19  A    between atoms: C_20  and  C_21
REMARK   20  A    between atoms: C_21  and  O_23
REMARK   21  A    between atoms: C_24  and  C_25
REMARK   22  A    between atoms: C_25  and  C_26
REMARK   23  A    between atoms: C_25  and  C_27
REMARK                            x       y       z     vdW  Elec       q    Type
REMARK                         _______ _______ _______ _____ _____    ______ ____
ROOT
ATOM      1  C   UNL     1       2.927   7.639  18.255  0.00  0.00    +0.000 C 
ENDROOT
BRANCH   1   2
ATOM      2  C   UNL     1       2.121   8.917  18.206  0.00  0.00    +0.000 C 
ATOM      3  O   UNL     1       2.068   9.616  17.200  0.00  0.00    +0.000 OA
ATOM      4  N   UNL     1       1.395   9.214  19.336  0.00  0.00    +0.000 N 
ATOM      5  H   UNL     1       1.244   8.492  20.037  0.00  0.00    +0.000 HD
BRANCH   4   6
ATOM      6  C   UNL     1       0.568  10.414  19.363  0.00  0.00    +0.000 C 
BRANCH   6   7
ATOM      7  C   UNL     1       1.445  11.676  19.469  0.00  0.00    +0.000 C 
BRANCH   7   8
ATOM      8  C   UNL     1       1.118  12.824  18.480  0.00  0.00    +0.000 C 
ATOM      9  C   UNL     1       0.102  13.844  19.003  0.00  0.00    +0.000 C 
ATOM     10  C   UNL     1       2.415  13.558  18.121  0.00  0.00    +0.000 C 
ENDBRANCH   7   8
ENDBRANCH   6   7
BRANCH   6  11
ATOM     11  C   UNL     1      -0.479  10.305  20.488  0.00  0.00    +0.000 C 
BRANCH  11  12
ATOM     12  C   UNL     1      -0.023   9.359  21.551  0.00  0.00    +0.000 C 
ATOM     13  O   UNL     1      -0.446   8.216  21.661  0.00  0.00    +0.000 OA
BRANCH  12  14
ATOM     14  O   UNL     1       0.854   9.912  22.414  0.00  0.00    +0.000 OA
ATOM     15  H   UNL     1       0.494  10.377  23.193  0.00  0.00    +0.000 HD
ENDBRANCH  12  14
ENDBRANCH  11  12
ENDBRANCH   6  11
ENDBRANCH   4   6
ENDBRANCH   1   2
BRANCH   1  16
ATOM     16  C   UNL     1       2.036   6.534  18.799  0.00  0.00    +0.000 C 
BRANCH  16  17
ATOM     17  C   UNL     1       2.466   6.064  20.183  0.00  0.00    +0.000 C 
BRANCH  17  18
ATOM     18  C   UNL     1       1.433   5.085  20.736  0.00  0.00    +0.000 C 
BRANCH  18  19
ATOM     19  C   UNL     1       2.107   3.838  21.287  0.00  0.00    +0.000 C 
BRANCH  19  20
ATOM     20  C   UNL     1       1.333   2.586  20.899  0.00  0.00    +0.000 C 
BRANCH  20  21
ATOM     21  C   UNL     1       1.272   2.462  19.383  0.00  0.00    +0.000 C 
BRANCH  21  22
ATOM     22  C   UNL     1       2.602   1.976  18.828  0.00  0.00    +0.000 C 
BRANCH  22  23
ATOM     23  C   UNL     1       2.779   2.457  17.394  0.00  0.00    +0.000 C 
BRANCH  23  24
ATOM     24  C   UNL     1       3.423   3.835  17.370  0.00  0.00    +0.000 C 
BRANCH  24  25
ATOM     25  C   UNL     1       4.761   3.783  16.646  0.00  0.00    +0.000 C 
BRANCH  25  26
ATOM     26  C   UNL     1       5.295   5.189  16.403  0.00  0.00    +0.000 C 
BRANCH  26  27
ATOM     27  C   UNL     1       6.789   5.255  16.695  0.00  0.00    +0.000 C 
BRANCH  27  29
ATOM     28  C   UNL     1       7.857   6.476  18.602  0.00  0.00    +0.000 C 
ATOM     29  C   UNL     1       7.175   6.617  17.258  0.00  0.00    +0.000 C 
ENDBRANCH  27  29
ENDBRANCH  26  27
ENDBRANCH  25  26
ENDBRANCH  24  25
ENDBRANCH  23  24
ENDBRANCH  22  23
ENDBRANCH  21  22
ENDBRANCH  20  21
ENDBRANCH  19  20
ENDBRANCH  18  19
ENDBRANCH  17  18
ENDBRANCH  16  17
ENDBRANCH   1  16
TORSDOF 20
ENDMDL
MODEL 8
REMARK VINA RESULT:      -5.6      2.301      4.582
REMARK  Name = 
REMARK  23 active torsions:
REMARK  status: ('A' for Active; 'I' for Inactive)
REMARK    1  A    between atoms: C_1  and  C_2
REMARK    2  A    between atoms: C_2  and  C_3
REMARK    3  A    between atoms: C_3  and  C_4
REMARK    4  A    between atoms: C_4  and  C_5
REMARK    5  A    between atoms: C_5  and  C_6
REMARK    6  A    between atoms: C_6  and  C_7
REMARK    7  A    between atoms: C_7  and  C_8
REMARK    8  A    between atoms: C_8  and  C_9
REMARK    9  A    between atoms: C_9  and  C_10
REMARK   10  A    between atoms: C_10  and  C_11
REMARK   11  A    between atoms: C_11  and  C_12
REMARK   12  A    between atoms: C_12  and  C_13
REMARK   13  A    between atoms: C_13  and  C_14
REMARK   14  A    between atoms: C_14  and  C_15
REMARK   15  A    between atoms: C_15  and  C_16
REMARK   16  A    between atoms: N_18  and  C_19
REMARK   17  A    between atoms: C_19  and  C_20
REMARK   18  A    between atoms: C_19  and  C_24
REMARK   19  A    between atoms: C_20  and  C_21
REMARK   20  A    between atoms: C_21  and  O_23
REMARK   21  A    between atoms: C_24  and  C_25
REMARK   22  A    between atoms: C_25  and  C_26
REMARK   23  A    between atoms: C_25  and  C_27
REMARK                            x       y       z     vdW  Elec       q    Type
REMARK                         _______ _______ _______ _____ _____    ______ ____
ROOT
ATOM      1  C   UNL     1       3.602   2.106  17.557  0.00  0.00    +0.000 C 
ENDROOT
BRANCH   1   2
ATOM      2  C   UNL     1       4.084   3.500  17.231  0.00  0.00    +0.000 C 
ATOM      3  O   UNL     1       3.342   4.476  17.282  0.00  0.00    +0.000 OA
ATOM      4  N   UNL     1       5.423   3.622  16.938  0.00  0.00    +0.000 N 
ATOM      5  H   UNL     1       6.055   2.858  17.167  0.00  0.00    +0.000 HD
BRANCH   4   6
ATOM      6  C   UNL     1       5.976   4.936  16.639  0.00  0.00    +0.000 C 
BRANCH   6   7
ATOM      7  C   UNL     1       5.870   5.241  15.132  0.00  0.00    +0.000 C 
BRANCH   7   8
ATOM      8  C   UNL     1       6.568   4.237  14.179  0.00  0.00    +0.000 C 
ATOM      9  C   UNL     1       5.626   3.529  13.200  0.00  0.00    +0.000 C 
ATOM     10  C   UNL     1       7.647   4.977  13.379  0.00  0.00    +0.000 C 
ENDBRANCH   7   8
ENDBRANCH   6   7
BRANCH   6  11
ATOM     11  C   UNL     1       7.416   5.035  17.179  0.00  0.00    +0.000 C 
BRANCH  11  12
ATOM     12  C   UNL     1       7.423   5.523  18.592  0.00  0.00    +0.000 C 
ATOM     13  O   UNL     1       8.203   6.369  19.007  0.00  0.00    +0.000 OA
BRANCH  12  14
ATOM     14  O   UNL     1       6.526   4.891  19.376  0.00  0.00    +0.000 OA
ATOM     15  H   UNL     1       6.222   5.352  20.181  0.00  0.00    +0.000 HD
ENDBRANCH  12  14
ENDBRANCH  11  12
ENDBRANCH   6  11
ENDBRANCH   4   6
ENDBRANCH   1   2
BRANCH   1  16
ATOM     16  C   UNL     1       2.161   2.198  18.031  0.00  0.00    +0.000 C 
BRANCH  16  17
ATOM     17  C   UNL     1       2.039   2.152  19.550  0.00  0.00    +0.000 C 
BRANCH  17  18
ATOM     18  C   UNL     1       1.252   3.364  20.039  0.00  0.00    +0.000 C 
BRANCH  18  19
ATOM     19  C   UNL     1       2.141   4.302  20.840  0.00  0.00    +0.000 C 
BRANCH  19  20
ATOM     20  C   UNL     1       1.795   5.757  20.553  0.00  0.00    +0.000 C 
BRANCH  20  21
ATOM     21  C   UNL     1       2.834   6.362  19.620  0.00  0.00    +0.000 C 
BRANCH  21  22
ATOM     22  C   UNL     1       2.164   7.148  18.504  0.00  0.00    +0.000 C 
BRANCH  22  23
ATOM     23  C   UNL     1       2.021   8.611  18.905  0.00  0.00    +0.000 C 
BRANCH  23  24
ATOM     24  C   UNL     1       0.937   9.287  18.081  0.00  0.00    +0.000 C 
BRANCH  24  25
ATOM     25  C   UNL     1       0.624  10.666  18.645  0.00  0.00    +0.000 C 
BRANCH  25  26
ATOM     26  C   UNL     1      -0.220  10.551  19.908  0.00  0.00    +0.000 C 
BRANCH  26  27
ATOM     27  C   UNL     1       0.661  10.277  21.121  0.00  0.00    +0.000 C 
BRANCH  27  29
ATOM     28  C   UNL     1      -0.910  10.380  23.067  0.00  0.00    +0.000 C 
ATOM     29  C   UNL     1      -0.093   9.473  22.173  0.00  0.00    +0.000 C 
ENDBRANCH  27  29
ENDBRANCH  26  27
ENDBRANCH  25  26
ENDBRANCH  24  25
ENDBRANCH  23  24
ENDBRANCH  22  23
ENDBRANCH  21  22
ENDBRANCH  20  21
ENDBRANCH  19  20
ENDBRANCH  18  19
ENDBRANCH  17  18
ENDBRANCH  16  17
ENDBRANCH   1  16
TORSDOF 20
ENDMDL
MODEL 9
REMARK VINA RESULT:      -5.6      4.887      9.561
REMARK  Name = 
REMARK  23 active torsions:
REMARK  status: ('A' for Active; 'I' for Inactive)
REMARK    1  A    between atoms: C_1  and  C_2
REMARK    2  A    between atoms: C_2  and  C_3
REMARK    3  A    between atoms: C_3  and  C_4
REMARK    4  A    between atoms: C_4  and  C_5
REMARK    5  A    between atoms: C_5  and  C_6
REMARK    6  A    between atoms: C_6  and  C_7
REMARK    7  A    between atoms: C_7  and  C_8
REMARK    8  A    between atoms: C_8  and  C_9
REMARK    9  A    between atoms: C_9  and  C_10
REMARK   10  A    between atoms: C_10  and  C_11
REMARK   11  A    between atoms: C_11  and  C_12
REMARK   12  A    between atoms: C_12  and  C_13
REMARK   13  A    between atoms: C_13  and  C_14
REMARK   14  A    between atoms: C_14  and  C_15
REMARK   15  A    between atoms: C_15  and  C_16
REMARK   16  A    between atoms: N_18  and  C_19
REMARK   17  A    between atoms: C_19  and  C_20
REMARK   18  A    between atoms: C_19  and  C_24
REMARK   19  A    between atoms: C_20  and  C_21
REMARK   20  A    between atoms: C_21  and  O_23
REMARK   21  A    between atoms: C_24  and  C_25
REMARK   22  A    between atoms: C_25  and  C_26
REMARK   23  A    between atoms: C_25  and  C_27
REMARK                            x       y       z     vdW  Elec       q    Type
REMARK                         _______ _______ _______ _____ _____    ______ ____
ROOT
ATOM      1  C   UNL     1       1.796   8.590  19.539  0.00  0.00    +0.000 C 
ENDROOT
BRANCH   1   2
ATOM      2  C   UNL     1       0.699   9.604  19.763  0.00  0.00    +0.000 C 
ATOM      3  O   UNL     1      -0.183   9.806  18.935  0.00  0.00    +0.000 OA
ATOM      4  N   UNL     1       0.708  10.241  20.983  0.00  0.00    +0.000 N 
ATOM      5  H   UNL     1       1.275   9.864  21.739  0.00  0.00    +0.000 HD
BRANCH   4   6
ATOM      6  C   UNL     1      -0.331  11.214  21.293  0.00  0.00    +0.000 C 
BRANCH   6   7
ATOM      7  C   UNL     1       0.217  12.650  21.182  0.00  0.00    +0.000 C 
BRANCH   7   8
ATOM      8  C   UNL     1      -0.655  13.658  20.391  0.00  0.00    +0.000 C 
ATOM      9  C   UNL     1      -0.689  15.071  20.982  0.00  0.00    +0.000 C 
ATOM     10  C   UNL     1      -0.142  13.738  18.949  0.00  0.00    +0.000 C 
ENDBRANCH   7   8
ENDBRANCH   6   7
BRANCH   6  11
ATOM     11  C   UNL     1      -0.947  10.905  22.671  0.00  0.00    +0.000 C 
BRANCH  11  12
ATOM     12  C   UNL     1      -0.359   9.658  23.250  0.00  0.00    +0.000 C 
ATOM     13  O   UNL     1       0.599   9.658  24.011  0.00  0.00    +0.000 OA
BRANCH  12  14
ATOM     14  O   UNL     1      -0.949   8.533  22.798  0.00  0.00    +0.000 OA
ATOM     15  H   UNL     1      -0.636   8.164  21.950  0.00  0.00    +0.000 HD
ENDBRANCH  12  14
ENDBRANCH  11  12
ENDBRANCH   6  11
ENDBRANCH   4   6
ENDBRANCH   1   2
BRANCH   1  16
ATOM     16  C   UNL     1       1.608   7.456  20.533  0.00  0.00    +0.000 C 
BRANCH  16  17
ATOM     17  C   UNL     1       2.150   6.128  20.017  0.00  0.00    +0.000 C 
BRANCH  17  18
ATOM     18  C   UNL     1       1.264   4.986  20.505  0.00  0.00    +0.000 C 
BRANCH  18  19
ATOM     19  C   UNL     1       2.070   3.977  21.307  0.00  0.00    +0.000 C 
BRANCH  19  20
ATOM     20  C   UNL     1       2.043   2.608  20.643  0.00  0.00    +0.000 C 
BRANCH  20  21
ATOM     21  C   UNL     1       3.156   2.511  19.608  0.00  0.00    +0.000 C 
BRANCH  21  22
ATOM     22  C   UNL     1       2.582   2.284  18.219  0.00  0.00    +0.000 C 
BRANCH  22  23
ATOM     23  C   UNL     1       2.818   3.511  17.347  0.00  0.00    +0.000 C 
BRANCH  23  24
ATOM     24  C   UNL     1       4.307   3.740  17.141  0.00  0.00    +0.000 C 
BRANCH  24  25
ATOM     25  C   UNL     1       4.553   5.115  16.537  0.00  0.00    +0.000 C 
BRANCH  25  26
ATOM     26  C   UNL     1       4.836   6.139  17.629  0.00  0.00    +0.000 C 
BRANCH  26  27
ATOM     27  C   UNL     1       6.141   6.876  17.351  0.00  0.00    +0.000 C 
BRANCH  27  29
ATOM     28  C   UNL     1       7.810   5.960  18.977  0.00  0.00    +0.000 C 
ATOM     29  C   UNL     1       7.339   5.952  17.540  0.00  0.00    +0.000 C 
ENDBRANCH  27  29
ENDBRANCH  26  27
ENDBRANCH  25  26
ENDBRANCH  24  25
ENDBRANCH  23  24
ENDBRANCH  22  23
ENDBRANCH  21  22
ENDBRANCH  20  21
ENDBRANCH  19  20
ENDBRANCH  18  19
ENDBRANCH  17  18
ENDBRANCH  16  17
ENDBRANCH   1  16
TORSDOF 20
ENDMDL
