MODEL 1
REMARK VINA RESULT:      -3.8      0.000      0.000
REMARK  Name = 
REMARK  2 active torsions:
REMARK  status: ('A' for Active; 'I' for Inactive)
REMARK    1  A    between atoms: C_2  and  C_3
REMARK    2  A    between atoms: C_3  and  C_4
REMARK                            x       y       z     vdW  Elec       q    Type
REMARK                         _______ _______ _______ _____ _____    ______ ____
ROOT
ATOM      1  C   UNL     1       5.521   5.665  28.349  0.00  0.00    +0.000 C 
ATOM      2  N   UNL     1       4.962   4.421  28.334  0.00  0.00    +0.000 N 
ATOM      3  O   UNL     1       4.794   6.655  28.391  0.00  0.00    +0.000 OA
ATOM      4  H   UNL     1       5.474   3.567  28.141  0.00  0.00    +0.000 HD
ATOM      5  H   UNL     1       3.954   4.375  28.244  0.00  0.00    +0.000 HD
ENDROOT
BRANCH   1   6
ATOM      6  C   UNL     1       7.025   5.775  28.429  0.00  0.00    +0.000 C 
BRANCH   6   8
ATOM      7  N   UNL     1       8.278   3.773  26.961  0.00  0.00    +0.000 NA
ATOM      8  C   UNL     1       7.710   4.681  27.627  0.00  0.00    +0.000 C 
ENDBRANCH   6   8
ENDBRANCH   1   6
TORSDOF 2
ENDMDL
MODEL 2
REMARK VINA RESULT:      -3.7      2.483      2.741
REMARK  Name = 
REMARK  2 active torsions:
REMARK  status: ('A' for Active; 'I' for Inactive)
REMARK    1  A    between atoms: C_2  and  C_3
REMARK    2  A    between atoms: C_3  and  C_4
REMARK                            x       y       z     vdW  Elec       q    Type
REMARK                         _______ _______ _______ _____ _____    ______ ____
ROOT
ATOM      1  C   UNL     1       7.595   4.586  27.725  0.00  0.00    +0.000 C 
ATOM      2  N   UNL     1       6.501   5.144  28.317  0.00  0.00    +0.000 N 
ATOM      3  O   UNL     1       7.448   3.658  26.932  0.00  0.00    +0.000 OA
ATOM      4  H   UNL     1       6.541   5.797  29.092  0.00  0.00    +0.000 HD
ATOM      5  H   UNL     1       5.612   4.684  28.156  0.00  0.00    +0.000 HD
ENDROOT
BRANCH   1   6
ATOM      6  C   UNL     1       8.946   5.211  27.980  0.00  0.00    +0.000 C 
BRANCH   6   8
ATOM      7  N   UNL     1      11.000   3.356  27.698  0.00  0.00    +0.000 NA
ATOM      8  C   UNL     1      10.069   4.197  27.826  0.00  0.00    +0.000 C 
ENDBRANCH   6   8
ENDBRANCH   1   6
TORSDOF 2
ENDMDL
MODEL 3
REMARK VINA RESULT:      -3.7      9.945     10.289
REMARK  Name = 
REMARK  2 active torsions:
REMARK  status: ('A' for Active; 'I' for Inactive)
REMARK    1  A    between atoms: C_2  and  C_3
REMARK    2  A    between atoms: C_3  and  C_4
REMARK                            x       y       z     vdW  Elec       q    Type
REMARK                         _______ _______ _______ _____ _____    ______ ____
ROOT
ATOM      1  C   UNL     1       1.274   3.124  18.635  0.00  0.00    +0.000 C 
ATOM      2  N   UNL     1       1.543   1.790  18.714  0.00  0.00    +0.000 N 
ATOM      3  O   UNL     1       1.195   3.661  17.532  0.00  0.00    +0.000 OA
ATOM      4  H   UNL     1       1.780   1.305  19.573  0.00  0.00    +0.000 HD
ATOM      5  H   UNL     1       1.779   1.320  17.848  0.00  0.00    +0.000 HD
ENDROOT
BRANCH   1   6
ATOM      6  C   UNL     1       0.967   3.872  19.911  0.00  0.00    +0.000 C 
BRANCH   6   8
ATOM      7  N   UNL     1       1.729   2.418  22.156  0.00  0.00    +0.000 NA
ATOM      8  C   UNL     1       1.384   3.077  21.138  0.00  0.00    +0.000 C 
ENDBRANCH   6   8
ENDBRANCH   1   6
TORSDOF 2
ENDMDL
MODEL 4
REMARK VINA RESULT:      -3.6      2.181      2.267
REMARK  Name = 
REMARK  2 active torsions:
REMARK  status: ('A' for Active; 'I' for Inactive)
REMARK    1  A    between atoms: C_2  and  C_3
REMARK    2  A    between atoms: C_3  and  C_4
REMARK                            x       y       z     vdW  Elec       q    Type
REMARK                         _______ _______ _______ _____ _____    ______ ____
ROOT
ATOM      1  C   UNL     1       6.907   4.571  27.886  0.00  0.00    +0.000 C 
ATOM      2  N   UNL     1       5.599   4.894  28.097  0.00  0.00    +0.000 N 
ATOM      3  O   UNL     1       7.186   3.591  27.197  0.00  0.00    +0.000 OA
ATOM      4  H   UNL     1       5.282   5.580  28.773  0.00  0.00    +0.000 HD
ATOM      5  H   UNL     1       4.907   4.234  27.762  0.00  0.00    +0.000 HD
ENDROOT
BRANCH   1   6
ATOM      6  C   UNL     1       7.971   5.502  28.416  0.00  0.00    +0.000 C 
BRANCH   6   8
ATOM      7  N   UNL     1      10.513   4.714  27.609  0.00  0.00    +0.000 NA
ATOM      8  C   UNL     1       9.361   5.071  27.975  0.00  0.00    +0.000 C 
ENDBRANCH   6   8
ENDBRANCH   1   6
TORSDOF 2
ENDMDL
MODEL 5
REMARK VINA RESULT:      -3.5      3.876      4.984
REMARK  Name = 
REMARK  2 active torsions:
REMARK  status: ('A' for Active; 'I' for Inactive)
REMARK    1  A    between atoms: C_2  and  C_3
REMARK    2  A    between atoms: C_3  and  C_4
REMARK                            x       y       z     vdW  Elec       q    Type
REMARK                         _______ _______ _______ _____ _____    ______ ____
ROOT
ATOM      1  C   UNL     1      11.131   4.668  27.834  0.00  0.00    +0.000 C 
ATOM      2  N   UNL     1      12.134   5.554  27.575  0.00  0.00    +0.000 N 
ATOM      3  O   UNL     1      11.370   3.462  27.820  0.00  0.00    +0.000 OA
ATOM      4  H   UNL     1      11.993   6.545  27.410  0.00  0.00    +0.000 HD
ATOM      5  H   UNL     1      13.019   5.165  27.270  0.00  0.00    +0.000 HD
ENDROOT
BRANCH   1   6
ATOM      6  C   UNL     1       9.782   5.210  28.241  0.00  0.00    +0.000 C 
BRANCH   6   8
ATOM      7  N   UNL     1       7.708   3.806  27.031  0.00  0.00    +0.000 NA
ATOM      8  C   UNL     1       8.648   4.443  27.580  0.00  0.00    +0.000 C 
ENDBRANCH   6   8
ENDBRANCH   1   6
TORSDOF 2
ENDMDL
MODEL 6
REMARK VINA RESULT:      -3.5     12.059     12.575
REMARK  Name = 
REMARK  2 active torsions:
REMARK  status: ('A' for Active; 'I' for Inactive)
REMARK    1  A    between atoms: C_2  and  C_3
REMARK    2  A    between atoms: C_3  and  C_4
REMARK                            x       y       z     vdW  Elec       q    Type
REMARK                         _______ _______ _______ _____ _____    ______ ____
ROOT
ATOM      1  C   UNL     1       6.796   4.607  14.723  0.00  0.00    +0.000 C 
ATOM      2  N   UNL     1       6.365   3.623  13.883  0.00  0.00    +0.000 N 
ATOM      3  O   UNL     1       7.675   5.381  14.348  0.00  0.00    +0.000 OA
ATOM      4  H   UNL     1       5.767   2.854  14.164  0.00  0.00    +0.000 HD
ATOM      5  H   UNL     1       6.878   3.506  13.016  0.00  0.00    +0.000 HD
ENDROOT
BRANCH   1   6
ATOM      6  C   UNL     1       6.092   4.781  16.047  0.00  0.00    +0.000 C 
BRANCH   6   8
ATOM      7  N   UNL     1       7.852   4.513  18.184  0.00  0.00    +0.000 NA
ATOM      8  C   UNL     1       7.054   4.634  17.215  0.00  0.00    +0.000 C 
ENDBRANCH   6   8
ENDBRANCH   1   6
TORSDOF 2
ENDMDL
MODEL 7
REMARK VINA RESULT:      -3.4      9.288      9.555
REMARK  Name = 
REMARK  2 active torsions:
REMARK  status: ('A' for Active; 'I' for Inactive)
REMARK    1  A    between atoms: C_2  and  C_3
REMARK    2  A    between atoms: C_3  and  C_4
REMARK                            x       y       z     vdW  Elec       q    Type
REMARK                         _______ _______ _______ _____ _____    ______ ____
ROOT
ATOM      1  C   UNL     1       1.931   3.901  21.192  0.00  0.00    +0.000 C 
ATOM      2  N   UNL     1       2.402   5.171  21.036  0.00  0.00    +0.000 N 
ATOM      3  O   UNL     1       2.304   3.230  22.152  0.00  0.00    +0.000 OA
ATOM      4  H   UNL     1       2.272   5.730  20.200  0.00  0.00    +0.000 HD
ATOM      5  H   UNL     1       3.136   5.465  21.670  0.00  0.00    +0.000 HD
ENDROOT
BRANCH   1   6
ATOM      6  C   UNL     1       0.872   3.405  20.236  0.00  0.00    +0.000 C 
BRANCH   6   8
ATOM      7  N   UNL     1       1.620   3.806  17.587  0.00  0.00    +0.000 NA
ATOM      8  C   UNL     1       1.281   3.624  18.788  0.00  0.00    +0.000 C 
ENDBRANCH   6   8
ENDBRANCH   1   6
TORSDOF 2
ENDMDL
MODEL 8
REMARK VINA RESULT:      -3.4     10.210     10.714
REMARK  Name = 
REMARK  2 active torsions:
REMARK  status: ('A' for Active; 'I' for Inactive)
REMARK    1  A    between atoms: C_2  and  C_3
REMARK    2  A    between atoms: C_3  and  C_4
REMARK                            x       y       z     vdW  Elec       q    Type
REMARK                         _______ _______ _______ _____ _____    ______ ____
ROOT
ATOM      1  C   UNL     1       7.002   5.585  16.580  0.00  0.00    +0.000 C 
ATOM      2  N   UNL     1       7.050   4.256  16.884  0.00  0.00    +0.000 N 
ATOM      3  O   UNL     1       6.563   5.941  15.488  0.00  0.00    +0.000 OA
ATOM      4  H   UNL     1       7.538   3.871  17.685  0.00  0.00    +0.000 HD
ATOM      5  H   UNL     1       6.821   3.610  16.137  0.00  0.00    +0.000 HD
ENDROOT
BRANCH   1   6
ATOM      6  C   UNL     1       7.385   6.580  17.649  0.00  0.00    +0.000 C 
BRANCH   6   8
ATOM      7  N   UNL     1       7.691   5.352  20.126  0.00  0.00    +0.000 NA
ATOM      8  C   UNL     1       7.552   5.909  19.003  0.00  0.00    +0.000 C 
ENDBRANCH   6   8
ENDBRANCH   1   6
TORSDOF 2
ENDMDL
MODEL 9
REMARK VINA RESULT:      -3.4     10.334     10.829
REMARK  Name = 
REMARK  2 active torsions:
REMARK  status: ('A' for Active; 'I' for Inactive)
REMARK    1  A    between atoms: C_2  and  C_3
REMARK    2  A    between atoms: C_3  and  C_4
REMARK                            x       y       z     vdW  Elec       q    Type
REMARK                         _______ _______ _______ _____ _____    ______ ____
ROOT
ATOM      1  C   UNL     1       7.228   5.500  16.589  0.00  0.00    +0.000 C 
ATOM      2  N   UNL     1       6.530   5.816  15.461  0.00  0.00    +0.000 N 
ATOM      3  O   UNL     1       7.835   4.432  16.646  0.00  0.00    +0.000 OA
ATOM      4  H   UNL     1       5.879   6.591  15.390  0.00  0.00    +0.000 HD
ATOM      5  H   UNL     1       6.454   5.093  14.755  0.00  0.00    +0.000 HD
ENDROOT
BRANCH   1   6
ATOM      6  C   UNL     1       7.322   6.531  17.688  0.00  0.00    +0.000 C 
BRANCH   6   8
ATOM      7  N   UNL     1       7.743   5.346  20.168  0.00  0.00    +0.000 NA
ATOM      8  C   UNL     1       7.552   5.883  19.044  0.00  0.00    +0.000 C 
ENDBRANCH   6   8
ENDBRANCH   1   6
TORSDOF 2
ENDMDL
