MODEL 1
REMARK VINA RESULT:      -6.5      0.000      0.000
REMARK  Name = 
REMARK  9 active torsions:
REMARK  status: ('A' for Active; 'I' for Inactive)
REMARK    1  A    between atoms: C_1  and  O_2
REMARK    2  A    between atoms: O_2  and  C_3
REMARK    3  A    between atoms: C_6  and  C_7
REMARK    4  A    between atoms: C_7  and  N_8
REMARK    5  A    between atoms: N_8  and  C_9
REMARK    6  A    between atoms: C_11  and  O_12
REMARK    7  A    between atoms: O_12  and  C_13
REMARK    8  A    between atoms: C_15  and  O_16
REMARK    9  A    between atoms: O_16  and  C_17
REMARK                            x       y       z     vdW  Elec       q    Type
REMARK                         _______ _______ _______ _____ _____    ______ ____
ROOT
ATOM      1  N   UNL     1       4.120   4.063  16.698  0.00  0.00    +0.000 N 
ATOM      2  H   UNL     1       3.517   3.809  15.901  0.00  0.00    +0.000 HD
ENDROOT
BRANCH   1   3
ATOM      3  C   UNL     1       3.502   4.577  17.880  0.00  0.00    +0.000 A 
ATOM      4  C   UNL     1       3.071   5.910  17.971  0.00  0.00    +0.000 A 
ATOM      5  C   UNL     1       2.494   6.406  19.138  0.00  0.00    +0.000 A 
ATOM      6  C   UNL     1       2.323   5.550  20.241  0.00  0.00    +0.000 A 
ATOM      7  C   UNL     1       2.731   4.212  20.177  0.00  0.00    +0.000 A 
ATOM      8  C   UNL     1       3.322   3.730  18.989  0.00  0.00    +0.000 A 
BRANCH   5   9
ATOM      9  O   UNL     1       2.131   7.713  19.154  0.00  0.00    +0.000 OA
ATOM     10  C   UNL     1       2.151   8.573  18.079  0.00  0.00    +0.000 C 
ENDBRANCH   5   9
BRANCH   7  11
ATOM     11  O   UNL     1       2.551   3.437  21.278  0.00  0.00    +0.000 OA
ATOM     12  C   UNL     1       1.424   2.704  21.585  0.00  0.00    +0.000 C 
ENDBRANCH   7  11
ENDBRANCH   1   3
BRANCH   1  13
ATOM     13  C   UNL     1       5.550   3.851  16.534  0.00  0.00    +0.000 C 
BRANCH  13  17
ATOM     14  C   UNL     1       7.850   7.126  18.201  0.00  0.00    +0.000 A 
ATOM     15  C   UNL     1       7.808   5.871  18.839  0.00  0.00    +0.000 A 
ATOM     16  C   UNL     1       7.066   4.823  18.292  0.00  0.00    +0.000 A 
ATOM     17  C   UNL     1       6.345   5.004  17.102  0.00  0.00    +0.000 A 
ATOM     18  C   UNL     1       6.390   6.255  16.462  0.00  0.00    +0.000 A 
ATOM     19  C   UNL     1       7.139   7.304  17.009  0.00  0.00    +0.000 A 
BRANCH  14  21
ATOM     20  C   UNL     1       8.499   9.472  18.228  0.00  0.00    +0.000 C 
ATOM     21  O   UNL     1       8.552   8.178  18.703  0.00  0.00    +0.000 OA
ENDBRANCH  14  21
ENDBRANCH  13  17
ENDBRANCH   1  13
TORSDOF 6
ENDMDL
MODEL 2
REMARK VINA RESULT:      -6.4      0.482      1.184
REMARK  Name = 
REMARK  9 active torsions:
REMARK  status: ('A' for Active; 'I' for Inactive)
REMARK    1  A    between atoms: C_1  and  O_2
REMARK    2  A    between atoms: O_2  and  C_3
REMARK    3  A    between atoms: C_6  and  C_7
REMARK    4  A    between atoms: C_7  and  N_8
REMARK    5  A    between atoms: N_8  and  C_9
REMARK    6  A    between atoms: C_11  and  O_12
REMARK    7  A    between atoms: O_12  and  C_13
REMARK    8  A    between atoms: C_15  and  O_16
REMARK    9  A    between atoms: O_16  and  C_17
REMARK                            x       y       z     vdW  Elec       q    Type
REMARK                         _______ _______ _______ _____ _____    ______ ____
ROOT
ATOM      1  N   UNL     1       3.651   4.243  16.873  0.00  0.00    +0.000 N 
ATOM      2  H   UNL     1       3.010   4.004  16.100  0.00  0.00    +0.000 HD
ENDROOT
BRANCH   1   3
ATOM      3  C   UNL     1       3.110   4.887  18.029  0.00  0.00    +0.000 A 
ATOM      4  C   UNL     1       2.833   6.262  18.050  0.00  0.00    +0.000 A 
ATOM      5  C   UNL     1       2.330   6.882  19.192  0.00  0.00    +0.000 A 
ATOM      6  C   UNL     1       2.080   6.110  20.343  0.00  0.00    +0.000 A 
ATOM      7  C   UNL     1       2.335   4.734  20.349  0.00  0.00    +0.000 A 
ATOM      8  C   UNL     1       2.852   4.125  19.184  0.00  0.00    +0.000 A 
BRANCH   5   9
ATOM      9  O   UNL     1       2.116   8.220  19.140  0.00  0.00    +0.000 OA
ATOM     10  C   UNL     1       1.741   8.938  18.027  0.00  0.00    +0.000 C 
ENDBRANCH   5   9
BRANCH   7  11
ATOM     11  O   UNL     1       2.085   4.044  21.491  0.00  0.00    +0.000 OA
ATOM     12  C   UNL     1       1.943   2.677  21.605  0.00  0.00    +0.000 C 
ENDBRANCH   7  11
ENDBRANCH   1   3
BRANCH   1  13
ATOM     13  C   UNL     1       5.049   3.880  16.701  0.00  0.00    +0.000 C 
BRANCH  13  17
ATOM     14  C   UNL     1       7.664   7.032  18.124  0.00  0.00    +0.000 A 
ATOM     15  C   UNL     1       6.872   7.211  16.973  0.00  0.00    +0.000 A 
ATOM     16  C   UNL     1       6.032   6.190  16.526  0.00  0.00    +0.000 A 
ATOM     17  C   UNL     1       5.966   4.967  17.210  0.00  0.00    +0.000 A 
ATOM     18  C   UNL     1       6.754   4.789  18.362  0.00  0.00    +0.000 A 
ATOM     19  C   UNL     1       7.592   5.815  18.813  0.00  0.00    +0.000 A 
BRANCH  14  21
ATOM     20  C   UNL     1       8.458   9.329  18.243  0.00  0.00    +0.000 C 
ATOM     21  O   UNL     1       8.502   7.995  18.590  0.00  0.00    +0.000 OA
ENDBRANCH  14  21
ENDBRANCH  13  17
ENDBRANCH   1  13
TORSDOF 6
ENDMDL
MODEL 3
REMARK VINA RESULT:      -6.3      2.276      6.371
REMARK  Name = 
REMARK  9 active torsions:
REMARK  status: ('A' for Active; 'I' for Inactive)
REMARK    1  A    between atoms: C_1  and  O_2
REMARK    2  A    between atoms: O_2  and  C_3
REMARK    3  A    between atoms: C_6  and  C_7
REMARK    4  A    between atoms: C_7  and  N_8
REMARK    5  A    between atoms: N_8  and  C_9
REMARK    6  A    between atoms: C_11  and  O_12
REMARK    7  A    between atoms: O_12  and  C_13
REMARK    8  A    between atoms: C_15  and  O_16
REMARK    9  A    between atoms: O_16  and  C_17
REMARK                            x       y       z     vdW  Elec       q    Type
REMARK                         _______ _______ _______ _____ _____    ______ ____
ROOT
ATOM      1  N   UNL     1       4.027   7.511  17.444  0.00  0.00    +0.000 N 
ATOM      2  H   UNL     1       4.310   8.455  17.749  0.00  0.00    +0.000 HD
ENDROOT
BRANCH   1   3
ATOM      3  C   UNL     1       5.050   6.562  17.134  0.00  0.00    +0.000 A 
ATOM      4  C   UNL     1       5.868   6.003  18.127  0.00  0.00    +0.000 A 
ATOM      5  C   UNL     1       6.880   5.100  17.808  0.00  0.00    +0.000 A 
ATOM      6  C   UNL     1       7.075   4.727  16.465  0.00  0.00    +0.000 A 
ATOM      7  C   UNL     1       6.267   5.259  15.453  0.00  0.00    +0.000 A 
ATOM      8  C   UNL     1       5.253   6.179  15.794  0.00  0.00    +0.000 A 
BRANCH   5   9
ATOM      9  O   UNL     1       7.645   4.627  18.824  0.00  0.00    +0.000 OA
ATOM     10  C   UNL     1       8.152   5.366  19.869  0.00  0.00    +0.000 C 
ENDBRANCH   5   9
BRANCH   7  11
ATOM     11  O   UNL     1       6.510   4.871  14.174  0.00  0.00    +0.000 OA
ATOM     12  C   UNL     1       5.993   3.758  13.546  0.00  0.00    +0.000 C 
ENDBRANCH   7  11
ENDBRANCH   1   3
BRANCH   1  13
ATOM     13  C   UNL     1       2.598   7.244  17.378  0.00  0.00    +0.000 C 
BRANCH  13  17
ATOM     14  C   UNL     1       1.486   4.023  20.060  0.00  0.00    +0.000 A 
ATOM     15  C   UNL     1       1.938   5.260  20.560  0.00  0.00    +0.000 A 
ATOM     16  C   UNL     1       2.290   6.290  19.687  0.00  0.00    +0.000 A 
ATOM     17  C   UNL     1       2.208   6.111  18.299  0.00  0.00    +0.000 A 
ATOM     18  C   UNL     1       1.754   4.877  17.798  0.00  0.00    +0.000 A 
ATOM     19  C   UNL     1       1.395   3.846  18.674  0.00  0.00    +0.000 A 
BRANCH  14  21
ATOM     20  C   UNL     1       1.904   2.502  21.913  0.00  0.00    +0.000 C 
ATOM     21  O   UNL     1       1.141   2.989  20.872  0.00  0.00    +0.000 OA
ENDBRANCH  14  21
ENDBRANCH  13  17
ENDBRANCH   1  13
TORSDOF 6
ENDMDL
MODEL 4
REMARK VINA RESULT:      -6.3      2.175      6.388
REMARK  Name = 
REMARK  9 active torsions:
REMARK  status: ('A' for Active; 'I' for Inactive)
REMARK    1  A    between atoms: C_1  and  O_2
REMARK    2  A    between atoms: O_2  and  C_3
REMARK    3  A    between atoms: C_6  and  C_7
REMARK    4  A    between atoms: C_7  and  N_8
REMARK    5  A    between atoms: N_8  and  C_9
REMARK    6  A    between atoms: C_11  and  O_12
REMARK    7  A    between atoms: O_12  and  C_13
REMARK    8  A    between atoms: C_15  and  O_16
REMARK    9  A    between atoms: O_16  and  C_17
REMARK                            x       y       z     vdW  Elec       q    Type
REMARK                         _______ _______ _______ _____ _____    ______ ____
ROOT
ATOM      1  N   UNL     1       4.303   7.513  17.392  0.00  0.00    +0.000 N 
ATOM      2  H   UNL     1       4.608   8.444  17.715  0.00  0.00    +0.000 HD
ENDROOT
BRANCH   1   3
ATOM      3  C   UNL     1       5.304   6.537  17.092  0.00  0.00    +0.000 A 
ATOM      4  C   UNL     1       6.175   6.043  18.074  0.00  0.00    +0.000 A 
ATOM      5  C   UNL     1       7.164   5.112  17.763  0.00  0.00    +0.000 A 
ATOM      6  C   UNL     1       7.280   4.644  16.441  0.00  0.00    +0.000 A 
ATOM      7  C   UNL     1       6.417   5.109  15.441  0.00  0.00    +0.000 A 
ATOM      8  C   UNL     1       5.427   6.059  15.774  0.00  0.00    +0.000 A 
BRANCH   5   9
ATOM      9  O   UNL     1       7.984   4.706  18.765  0.00  0.00    +0.000 OA
ATOM     10  C   UNL     1       8.224   5.382  19.940  0.00  0.00    +0.000 C 
ENDBRANCH   5   9
BRANCH   7  11
ATOM     11  O   UNL     1       6.585   4.630  14.181  0.00  0.00    +0.000 OA
ATOM     12  C   UNL     1       5.742   3.763  13.519  0.00  0.00    +0.000 C 
ENDBRANCH   7  11
ENDBRANCH   1   3
BRANCH   1  13
ATOM     13  C   UNL     1       2.869   7.291  17.292  0.00  0.00    +0.000 C 
BRANCH  13  17
ATOM     14  C   UNL     1       1.517   4.333  20.160  0.00  0.00    +0.000 A 
ATOM     15  C   UNL     1       1.580   4.034  18.785  0.00  0.00    +0.000 A 
ATOM     16  C   UNL     1       2.020   4.993  17.871  0.00  0.00    +0.000 A 
ATOM     17  C   UNL     1       2.399   6.272  18.305  0.00  0.00    +0.000 A 
ATOM     18  C   UNL     1       2.339   6.570  19.678  0.00  0.00    +0.000 A 
ATOM     19  C   UNL     1       1.904   5.606  20.595  0.00  0.00    +0.000 A 
BRANCH  14  21
ATOM     20  C   UNL     1       1.852   2.426  21.634  0.00  0.00    +0.000 C 
ATOM     21  O   UNL     1       1.087   3.433  21.084  0.00  0.00    +0.000 OA
ENDBRANCH  14  21
ENDBRANCH  13  17
ENDBRANCH   1  13
TORSDOF 6
ENDMDL
MODEL 5
REMARK VINA RESULT:      -6.2      2.372      5.918
REMARK  Name = 
REMARK  9 active torsions:
REMARK  status: ('A' for Active; 'I' for Inactive)
REMARK    1  A    between atoms: C_1  and  O_2
REMARK    2  A    between atoms: O_2  and  C_3
REMARK    3  A    between atoms: C_6  and  C_7
REMARK    4  A    between atoms: C_7  and  N_8
REMARK    5  A    between atoms: N_8  and  C_9
REMARK    6  A    between atoms: C_11  and  O_12
REMARK    7  A    between atoms: O_12  and  C_13
REMARK    8  A    between atoms: C_15  and  O_16
REMARK    9  A    between atoms: O_16  and  C_17
REMARK                            x       y       z     vdW  Elec       q    Type
REMARK                         _______ _______ _______ _____ _____    ______ ____
ROOT
ATOM      1  N   UNL     1       4.532   3.519  17.929  0.00  0.00    +0.000 N 
ATOM      2  H   UNL     1       4.940   2.935  18.675  0.00  0.00    +0.000 HD
ENDROOT
BRANCH   1   3
ATOM      3  C   UNL     1       5.410   4.083  16.952  0.00  0.00    +0.000 A 
ATOM      4  C   UNL     1       6.238   5.178  17.243  0.00  0.00    +0.000 A 
ATOM      5  C   UNL     1       7.070   5.734  16.274  0.00  0.00    +0.000 A 
ATOM      6  C   UNL     1       7.093   5.177  14.981  0.00  0.00    +0.000 A 
ATOM      7  C   UNL     1       6.288   4.077  14.664  0.00  0.00    +0.000 A 
ATOM      8  C   UNL     1       5.445   3.532  15.657  0.00  0.00    +0.000 A 
BRANCH   5   9
ATOM      9  O   UNL     1       7.818   6.809  16.628  0.00  0.00    +0.000 OA
ATOM     10  C   UNL     1       7.428   7.826  17.470  0.00  0.00    +0.000 C 
ENDBRANCH   5   9
BRANCH   7  11
ATOM     11  O   UNL     1       6.343   3.590  13.397  0.00  0.00    +0.000 OA
ATOM     12  C   UNL     1       5.278   3.430  12.537  0.00  0.00    +0.000 C 
ENDBRANCH   7  11
ENDBRANCH   1   3
BRANCH   1  13
ATOM     13  C   UNL     1       3.088   3.693  17.948  0.00  0.00    +0.000 C 
BRANCH  13  17
ATOM     14  C   UNL     1       1.982   7.426  19.858  0.00  0.00    +0.000 A 
ATOM     15  C   UNL     1       2.531   7.410  18.561  0.00  0.00    +0.000 A 
ATOM     16  C   UNL     1       2.881   6.202  17.955  0.00  0.00    +0.000 A 
ATOM     17  C   UNL     1       2.698   4.985  18.628  0.00  0.00    +0.000 A 
ATOM     18  C   UNL     1       2.146   5.000  19.922  0.00  0.00    +0.000 A 
ATOM     19  C   UNL     1       1.791   6.211  20.527  0.00  0.00    +0.000 A 
BRANCH  14  21
ATOM     20  C   UNL     1       1.250   8.678  21.811  0.00  0.00    +0.000 C 
ATOM     21  O   UNL     1       1.635   8.578  20.490  0.00  0.00    +0.000 OA
ENDBRANCH  14  21
ENDBRANCH  13  17
ENDBRANCH   1  13
TORSDOF 6
ENDMDL
MODEL 6
REMARK VINA RESULT:      -6.2      2.162      5.778
REMARK  Name = 
REMARK  9 active torsions:
REMARK  status: ('A' for Active; 'I' for Inactive)
REMARK    1  A    between atoms: C_1  and  O_2
REMARK    2  A    between atoms: O_2  and  C_3
REMARK    3  A    between atoms: C_6  and  C_7
REMARK    4  A    between atoms: C_7  and  N_8
REMARK    5  A    between atoms: N_8  and  C_9
REMARK    6  A    between atoms: C_11  and  O_12
REMARK    7  A    between atoms: O_12  and  C_13
REMARK    8  A    between atoms: C_15  and  O_16
REMARK    9  A    between atoms: O_16  and  C_17
REMARK                            x       y       z     vdW  Elec       q    Type
REMARK                         _______ _______ _______ _____ _____    ______ ____
ROOT
ATOM      1  N   UNL     1       3.801   3.107  17.445  0.00  0.00    +0.000 N 
ATOM      2  H   UNL     1       3.918   2.167  17.854  0.00  0.00    +0.000 HD
ENDROOT
BRANCH   1   3
ATOM      3  C   UNL     1       4.961   3.785  16.960  0.00  0.00    +0.000 A 
ATOM      4  C   UNL     1       5.271   3.839  15.593  0.00  0.00    +0.000 A 
ATOM      5  C   UNL     1       6.420   4.481  15.136  0.00  0.00    +0.000 A 
ATOM      6  C   UNL     1       7.278   5.103  16.062  0.00  0.00    +0.000 A 
ATOM      7  C   UNL     1       6.990   5.078  17.431  0.00  0.00    +0.000 A 
ATOM      8  C   UNL     1       5.826   4.414  17.876  0.00  0.00    +0.000 A 
BRANCH   5   9
ATOM      9  O   UNL     1       6.662   4.464  13.801  0.00  0.00    +0.000 OA
ATOM     10  C   UNL     1       6.089   3.611  12.884  0.00  0.00    +0.000 C 
ENDBRANCH   5   9
BRANCH   7  11
ATOM     11  O   UNL     1       7.861   5.685  18.278  0.00  0.00    +0.000 OA
ATOM     12  C   UNL     1       7.746   5.761  19.650  0.00  0.00    +0.000 C 
ENDBRANCH   7  11
ENDBRANCH   1   3
BRANCH   1  13
ATOM     13  C   UNL     1       2.446   3.635  17.394  0.00  0.00    +0.000 C 
BRANCH  13  17
ATOM     14  C   UNL     1       1.950   6.978  20.110  0.00  0.00    +0.000 A 
ATOM     15  C   UNL     1       2.360   7.181  18.778  0.00  0.00    +0.000 A 
ATOM     16  C   UNL     1       2.514   6.098  17.912  0.00  0.00    +0.000 A 
ATOM     17  C   UNL     1       2.270   4.789  18.354  0.00  0.00    +0.000 A 
ATOM     18  C   UNL     1       1.856   4.586  19.683  0.00  0.00    +0.000 A 
ATOM     19  C   UNL     1       1.697   5.673  20.550  0.00  0.00    +0.000 A 
BRANCH  14  21
ATOM     20  C   UNL     1       0.984   9.102  20.802  0.00  0.00    +0.000 C 
ATOM     21  O   UNL     1       1.795   8.003  20.991  0.00  0.00    +0.000 OA
ENDBRANCH  14  21
ENDBRANCH  13  17
ENDBRANCH   1  13
TORSDOF 6
ENDMDL
MODEL 7
REMARK VINA RESULT:      -6.2      2.128      6.257
REMARK  Name = 
REMARK  9 active torsions:
REMARK  status: ('A' for Active; 'I' for Inactive)
REMARK    1  A    between atoms: C_1  and  O_2
REMARK    2  A    between atoms: O_2  and  C_3
REMARK    3  A    between atoms: C_6  and  C_7
REMARK    4  A    between atoms: C_7  and  N_8
REMARK    5  A    between atoms: N_8  and  C_9
REMARK    6  A    between atoms: C_11  and  O_12
REMARK    7  A    between atoms: O_12  and  C_13
REMARK    8  A    between atoms: C_15  and  O_16
REMARK    9  A    between atoms: O_16  and  C_17
REMARK                            x       y       z     vdW  Elec       q    Type
REMARK                         _______ _______ _______ _____ _____    ______ ____
ROOT
ATOM      1  N   UNL     1       3.782   7.222  16.637  0.00  0.00    +0.000 N 
ATOM      2  H   UNL     1       3.383   7.514  15.731  0.00  0.00    +0.000 HD
ENDROOT
BRANCH   1   3
ATOM      3  C   UNL     1       4.972   6.431  16.631  0.00  0.00    +0.000 A 
ATOM      4  C   UNL     1       5.203   5.447  15.657  0.00  0.00    +0.000 A 
ATOM      5  C   UNL     1       6.356   4.665  15.678  0.00  0.00    +0.000 A 
ATOM      6  C   UNL     1       7.314   4.875  16.687  0.00  0.00    +0.000 A 
ATOM      7  C   UNL     1       7.118   5.857  17.665  0.00  0.00    +0.000 A 
ATOM      8  C   UNL     1       5.940   6.634  17.632  0.00  0.00    +0.000 A 
BRANCH   5   9
ATOM      9  O   UNL     1       6.490   3.717  14.718  0.00  0.00    +0.000 OA
ATOM     10  C   UNL     1       6.227   3.879  13.376  0.00  0.00    +0.000 C 
ENDBRANCH   5   9
BRANCH   7  11
ATOM     11  O   UNL     1       8.072   6.006  18.620  0.00  0.00    +0.000 OA
ATOM     12  C   UNL     1       8.013   5.535  19.914  0.00  0.00    +0.000 C 
ENDBRANCH   7  11
ENDBRANCH   1   3
BRANCH   1  13
ATOM     13  C   UNL     1       3.086   7.670  17.834  0.00  0.00    +0.000 C 
BRANCH  13  17
ATOM     14  C   UNL     1       1.433   4.296  19.997  0.00  0.00    +0.000 A 
ATOM     15  C   UNL     1       1.638   4.234  18.605  0.00  0.00    +0.000 A 
ATOM     16  C   UNL     1       2.174   5.325  17.920  0.00  0.00    +0.000 A 
ATOM     17  C   UNL     1       2.510   6.504  18.603  0.00  0.00    +0.000 A 
ATOM     18  C   UNL     1       2.308   6.565  19.993  0.00  0.00    +0.000 A 
ATOM     19  C   UNL     1       1.777   5.468  20.682  0.00  0.00    +0.000 A 
BRANCH  14  21
ATOM     20  C   UNL     1       1.569   2.537  21.674  0.00  0.00    +0.000 C 
ATOM     21  O   UNL     1       0.906   3.261  20.705  0.00  0.00    +0.000 OA
ENDBRANCH  14  21
ENDBRANCH  13  17
ENDBRANCH   1  13
TORSDOF 6
ENDMDL
MODEL 8
REMARK VINA RESULT:      -6.2      2.262      6.140
REMARK  Name = 
REMARK  9 active torsions:
REMARK  status: ('A' for Active; 'I' for Inactive)
REMARK    1  A    between atoms: C_1  and  O_2
REMARK    2  A    between atoms: O_2  and  C_3
REMARK    3  A    between atoms: C_6  and  C_7
REMARK    4  A    between atoms: C_7  and  N_8
REMARK    5  A    between atoms: N_8  and  C_9
REMARK    6  A    between atoms: C_11  and  O_12
REMARK    7  A    between atoms: O_12  and  C_13
REMARK    8  A    between atoms: C_15  and  O_16
REMARK    9  A    between atoms: O_16  and  C_17
REMARK                            x       y       z     vdW  Elec       q    Type
REMARK                         _______ _______ _______ _____ _____    ______ ____
ROOT
ATOM      1  N   UNL     1       4.015   7.462  17.542  0.00  0.00    +0.000 N 
ATOM      2  H   UNL     1       4.259   8.399  17.898  0.00  0.00    +0.000 HD
ENDROOT
BRANCH   1   3
ATOM      3  C   UNL     1       5.076   6.574  17.186  0.00  0.00    +0.000 A 
ATOM      4  C   UNL     1       5.254   6.120  15.870  0.00  0.00    +0.000 A 
ATOM      5  C   UNL     1       6.277   5.234  15.542  0.00  0.00    +0.000 A 
ATOM      6  C   UNL     1       7.160   4.796  16.547  0.00  0.00    +0.000 A 
ATOM      7  C   UNL     1       7.016   5.240  17.866  0.00  0.00    +0.000 A 
ATOM      8  C   UNL     1       5.969   6.132  18.182  0.00  0.00    +0.000 A 
BRANCH   5   9
ATOM      9  O   UNL     1       6.363   4.821  14.253  0.00  0.00    +0.000 OA
ATOM     10  C   UNL     1       5.581   3.858  13.655  0.00  0.00    +0.000 C 
ENDBRANCH   5   9
BRANCH   7  11
ATOM     11  O   UNL     1       7.891   4.775  18.795  0.00  0.00    +0.000 OA
ATOM     12  C   UNL     1       8.186   5.364  20.006  0.00  0.00    +0.000 C 
ENDBRANCH   7  11
ENDBRANCH   1   3
BRANCH   1  13
ATOM     13  C   UNL     1       2.598   7.142  17.455  0.00  0.00    +0.000 C 
BRANCH  13  17
ATOM     14  C   UNL     1       1.622   3.702  19.907  0.00  0.00    +0.000 A 
ATOM     15  C   UNL     1       2.048   4.911  20.491  0.00  0.00    +0.000 A 
ATOM     16  C   UNL     1       2.357   6.013  19.691  0.00  0.00    +0.000 A 
ATOM     17  C   UNL     1       2.255   5.934  18.295  0.00  0.00    +0.000 A 
ATOM     18  C   UNL     1       1.826   4.728  17.711  0.00  0.00    +0.000 A 
ATOM     19  C   UNL     1       1.511   3.625  18.513  0.00  0.00    +0.000 A 
BRANCH  14  21
ATOM     20  C   UNL     1       1.643   2.418  21.974  0.00  0.00    +0.000 C 
ATOM     21  O   UNL     1       1.319   2.601  20.645  0.00  0.00    +0.000 OA
ENDBRANCH  14  21
ENDBRANCH  13  17
ENDBRANCH   1  13
TORSDOF 6
ENDMDL
MODEL 9
REMARK VINA RESULT:      -6.2      0.542      2.931
REMARK  Name = 
REMARK  9 active torsions:
REMARK  status: ('A' for Active; 'I' for Inactive)
REMARK    1  A    between atoms: C_1  and  O_2
REMARK    2  A    between atoms: O_2  and  C_3
REMARK    3  A    between atoms: C_6  and  C_7
REMARK    4  A    between atoms: C_7  and  N_8
REMARK    5  A    between atoms: N_8  and  C_9
REMARK    6  A    between atoms: C_11  and  O_12
REMARK    7  A    between atoms: O_12  and  C_13
REMARK    8  A    between atoms: C_15  and  O_16
REMARK    9  A    between atoms: O_16  and  C_17
REMARK                            x       y       z     vdW  Elec       q    Type
REMARK                         _______ _______ _______ _____ _____    ______ ____
ROOT
ATOM      1  N   UNL     1       3.669   4.063  16.853  0.00  0.00    +0.000 N 
ATOM      2  H   UNL     1       3.073   3.857  16.037  0.00  0.00    +0.000 HD
ENDROOT
BRANCH   1   3
ATOM      3  C   UNL     1       3.066   4.670  17.998  0.00  0.00    +0.000 A 
ATOM      4  C   UNL     1       2.615   3.909  19.088  0.00  0.00    +0.000 A 
ATOM      5  C   UNL     1       2.005   4.510  20.187  0.00  0.00    +0.000 A 
ATOM      6  C   UNL     1       1.854   5.909  20.213  0.00  0.00    +0.000 A 
ATOM      7  C   UNL     1       2.305   6.696  19.147  0.00  0.00    +0.000 A 
ATOM      8  C   UNL     1       2.913   6.068  18.038  0.00  0.00    +0.000 A 
BRANCH   5   9
ATOM      9  O   UNL     1       1.571   3.702  21.186  0.00  0.00    +0.000 OA
ATOM     10  C   UNL     1       2.307   2.724  21.816  0.00  0.00    +0.000 C 
ENDBRANCH   5   9
BRANCH   7  11
ATOM     11  O   UNL     1       2.121   8.040  19.222  0.00  0.00    +0.000 OA
ATOM     12  C   UNL     1       2.048   8.915  18.159  0.00  0.00    +0.000 C 
ENDBRANCH   7  11
ENDBRANCH   1   3
BRANCH   1  13
ATOM     13  C   UNL     1       5.072   3.693  16.750  0.00  0.00    +0.000 C 
BRANCH  13  17
ATOM     14  C   UNL     1       7.662   6.851  18.206  0.00  0.00    +0.000 A 
ATOM     15  C   UNL     1       7.395   5.713  18.991  0.00  0.00    +0.000 A 
ATOM     16  C   UNL     1       6.561   4.701  18.511  0.00  0.00    +0.000 A 
ATOM     17  C   UNL     1       5.971   4.804  17.243  0.00  0.00    +0.000 A 
ATOM     18  C   UNL     1       6.241   5.938  16.456  0.00  0.00    +0.000 A 
ATOM     19  C   UNL     1       7.081   6.950  16.936  0.00  0.00    +0.000 A 
BRANCH  14  21
ATOM     20  C   UNL     1       8.452   9.152  18.140  0.00  0.00    +0.000 C 
ATOM     21  O   UNL     1       8.459   7.865  18.637  0.00  0.00    +0.000 OA
ENDBRANCH  14  21
ENDBRANCH  13  17
ENDBRANCH   1  13
TORSDOF 6
ENDMDL
