MODEL 1
REMARK VINA RESULT:      -7.3      0.000      0.000
REMARK  Name = 
REMARK  8 active torsions:
REMARK  status: ('A' for Active; 'I' for Inactive)
REMARK    1  A    between atoms: C_1  and  C_2
REMARK    2  A    between atoms: N_4  and  C_5
REMARK    3  A    between atoms: C_7  and  O_8
REMARK    4  A    between atoms: O_8  and  C_9
REMARK    5  A    between atoms: C_9  and  C_10
REMARK    6  A    between atoms: C_9  and  C_11
REMARK    7  A    between atoms: C_17  and  C_18
REMARK    8  A    between atoms: C_19  and  C_20
REMARK                            x       y       z     vdW  Elec       q    Type
REMARK                         _______ _______ _______ _____ _____    ______ ____
ROOT
ATOM      1  C   UNL     1       2.611   5.807  19.800  0.00  0.00    +0.000 A 
ATOM      2  C   UNL     1       3.945   5.708  19.364  0.00  0.00    +0.000 A 
ATOM      3  C   UNL     1       4.591   4.464  19.394  0.00  0.00    +0.000 A 
ATOM      4  C   UNL     1       3.861   3.313  19.741  0.00  0.00    +0.000 A 
ATOM      5 CL   UNL     1       4.612   1.758  19.832  0.00  0.00    +0.000 Cl
ATOM      6  C   UNL     1       2.511   3.400  20.068  0.00  0.00    +0.000 A 
ATOM      7  C   UNL     1       1.895   4.643  20.087  0.00  0.00    +0.000 A 
ATOM      8  F   UNL     1       0.586   4.682  20.366  0.00  0.00    +0.000 F 
ENDROOT
BRANCH   1  12
ATOM      9  C   UNL     1       0.414   9.352  22.244  0.00  0.00    +0.000 C 
ATOM     10  C   UNL     1       1.044   8.644  21.097  0.00  0.00    +0.000 A 
ATOM     11  N   UNL     1       1.391   7.354  21.185  0.00  0.00    +0.000 NA
ATOM     12  N   UNL     1       2.028   7.083  20.015  0.00  0.00    +0.000 N 
ATOM     13  C   UNL     1       1.892   8.140  19.116  0.00  0.00    +0.000 A 
ATOM     14  C   UNL     1       2.235   8.096  17.669  0.00  0.00    +0.000 C 
ATOM     15  C   UNL     1       1.310   9.182  19.815  0.00  0.00    +0.000 A 
ATOM     16  C   UNL     1       0.971  10.538  19.318  0.00  0.00    +0.000 C 
ENDBRANCH   1  12
BRANCH   3  17
ATOM     17  O   UNL     1       5.916   4.271  19.120  0.00  0.00    +0.000 OA
BRANCH  17  18
ATOM     18  C   UNL     1       6.649   5.282  18.419  0.00  0.00    +0.000 C 
ATOM     19  C   UNL     1       7.806   5.851  19.242  0.00  0.00    +0.000 C 
ATOM     20  C   UNL     1       7.223   4.586  17.183  0.00  0.00    +0.000 C 
ENDBRANCH  17  18
ENDBRANCH   3  17
TORSDOF 3
ENDMDL
MODEL 2
REMARK VINA RESULT:      -7.3      4.467      6.348
REMARK  Name = 
REMARK  8 active torsions:
REMARK  status: ('A' for Active; 'I' for Inactive)
REMARK    1  A    between atoms: C_1  and  C_2
REMARK    2  A    between atoms: N_4  and  C_5
REMARK    3  A    between atoms: C_7  and  O_8
REMARK    4  A    between atoms: O_8  and  C_9
REMARK    5  A    between atoms: C_9  and  C_10
REMARK    6  A    between atoms: C_9  and  C_11
REMARK    7  A    between atoms: C_17  and  C_18
REMARK    8  A    between atoms: C_19  and  C_20
REMARK                            x       y       z     vdW  Elec       q    Type
REMARK                         _______ _______ _______ _____ _____    ______ ____
ROOT
ATOM      1  C   UNL     1       5.384   4.261  16.158  0.00  0.00    +0.000 A 
ATOM      2  C   UNL     1       5.154   3.823  14.841  0.00  0.00    +0.000 A 
ATOM      3  C   UNL     1       6.044   4.196  13.824  0.00  0.00    +0.000 A 
ATOM      4  C   UNL     1       7.218   4.897  14.153  0.00  0.00    +0.000 A 
ATOM      5 CL   UNL     1       8.334   5.415  12.938  0.00  0.00    +0.000 Cl
ATOM      6  C   UNL     1       7.497   5.234  15.474  0.00  0.00    +0.000 A 
ATOM      7  C   UNL     1       6.583   4.907  16.466  0.00  0.00    +0.000 A 
ATOM      8  F   UNL     1       6.905   5.212  17.730  0.00  0.00    +0.000 F 
ENDROOT
BRANCH   1  12
ATOM      9  C   UNL     1       2.327   1.934  19.090  0.00  0.00    +0.000 C 
ATOM     10  C   UNL     1       3.012   3.076  18.428  0.00  0.00    +0.000 A 
ATOM     11  N   UNL     1       3.860   2.881  17.412  0.00  0.00    +0.000 NA
ATOM     12  N   UNL     1       4.373   4.110  17.143  0.00  0.00    +0.000 N 
ATOM     13  C   UNL     1       3.690   5.101  17.846  0.00  0.00    +0.000 A 
ATOM     14  C   UNL     1       3.804   6.566  17.611  0.00  0.00    +0.000 C 
ATOM     15  C   UNL     1       2.845   4.450  18.727  0.00  0.00    +0.000 A 
ATOM     16  C   UNL     1       1.917   5.051  19.716  0.00  0.00    +0.000 C 
ENDBRANCH   1  12
BRANCH   3  17
ATOM     17  O   UNL     1       5.853   3.942  12.494  0.00  0.00    +0.000 OA
BRANCH  17  18
ATOM     18  C   UNL     1       4.979   2.880  12.094  0.00  0.00    +0.000 C 
ATOM     19  C   UNL     1       3.921   3.331  11.086  0.00  0.00    +0.000 C 
ATOM     20  C   UNL     1       5.881   1.840  11.425  0.00  0.00    +0.000 C 
ENDBRANCH  17  18
ENDBRANCH   3  17
TORSDOF 3
ENDMDL
MODEL 3
REMARK VINA RESULT:      -7.0      3.904      5.857
REMARK  Name = 
REMARK  8 active torsions:
REMARK  status: ('A' for Active; 'I' for Inactive)
REMARK    1  A    between atoms: C_1  and  C_2
REMARK    2  A    between atoms: N_4  and  C_5
REMARK    3  A    between atoms: C_7  and  O_8
REMARK    4  A    between atoms: O_8  and  C_9
REMARK    5  A    between atoms: C_9  and  C_10
REMARK    6  A    between atoms: C_9  and  C_11
REMARK    7  A    between atoms: C_17  and  C_18
REMARK    8  A    between atoms: C_19  and  C_20
REMARK                            x       y       z     vdW  Elec       q    Type
REMARK                         _______ _______ _______ _____ _____    ______ ____
ROOT
ATOM      1  C   UNL     1       4.998   4.258  16.966  0.00  0.00    +0.000 A 
ATOM      2  C   UNL     1       4.645   4.103  15.613  0.00  0.00    +0.000 A 
ATOM      3  C   UNL     1       5.570   4.443  14.615  0.00  0.00    +0.000 A 
ATOM      4  C   UNL     1       6.876   4.814  14.979  0.00  0.00    +0.000 A 
ATOM      5 CL   UNL     1       8.048   5.279  13.796  0.00  0.00    +0.000 Cl
ATOM      6  C   UNL     1       7.254   4.861  16.317  0.00  0.00    +0.000 A 
ATOM      7  C   UNL     1       6.316   4.575  17.299  0.00  0.00    +0.000 A 
ATOM      8  F   UNL     1       6.727   4.591  18.574  0.00  0.00    +0.000 F 
ENDROOT
BRANCH   1  12
ATOM      9  C   UNL     1       1.931   5.809  20.365  0.00  0.00    +0.000 C 
ATOM     10  C   UNL     1       2.657   4.853  19.487  0.00  0.00    +0.000 A 
ATOM     11  N   UNL     1       3.664   5.258  18.705  0.00  0.00    +0.000 NA
ATOM     12  N   UNL     1       4.002   4.163  17.974  0.00  0.00    +0.000 N 
ATOM     13  C   UNL     1       3.352   3.025  18.449  0.00  0.00    +0.000 A 
ATOM     14  C   UNL     1       3.667   1.623  18.065  0.00  0.00    +0.000 C 
ATOM     15  C   UNL     1       2.433   3.458  19.388  0.00  0.00    +0.000 A 
ATOM     16  C   UNL     1       1.476   2.641  20.173  0.00  0.00    +0.000 C 
ENDBRANCH   1  12
BRANCH   3  17
ATOM     17  O   UNL     1       5.295   4.458  13.276  0.00  0.00    +0.000 OA
BRANCH  17  18
ATOM     18  C   UNL     1       5.163   3.222  12.565  0.00  0.00    +0.000 C 
ATOM     19  C   UNL     1       4.109   3.285  11.459  0.00  0.00    +0.000 C 
ATOM     20  C   UNL     1       6.531   2.972  11.925  0.00  0.00    +0.000 C 
ENDBRANCH  17  18
ENDBRANCH   3  17
TORSDOF 3
ENDMDL
MODEL 4
REMARK VINA RESULT:      -6.8      3.019      4.304
REMARK  Name = 
REMARK  8 active torsions:
REMARK  status: ('A' for Active; 'I' for Inactive)
REMARK    1  A    between atoms: C_1  and  C_2
REMARK    2  A    between atoms: N_4  and  C_5
REMARK    3  A    between atoms: C_7  and  O_8
REMARK    4  A    between atoms: O_8  and  C_9
REMARK    5  A    between atoms: C_9  and  C_10
REMARK    6  A    between atoms: C_9  and  C_11
REMARK    7  A    between atoms: C_17  and  C_18
REMARK    8  A    between atoms: C_19  and  C_20
REMARK                            x       y       z     vdW  Elec       q    Type
REMARK                         _______ _______ _______ _____ _____    ______ ____
ROOT
ATOM      1  C   UNL     1       1.525   8.784  19.407  0.00  0.00    +0.000 A 
ATOM      2  C   UNL     1       1.746   7.636  20.190  0.00  0.00    +0.000 A 
ATOM      3  C   UNL     1       2.491   6.573  19.661  0.00  0.00    +0.000 A 
ATOM      4  C   UNL     1       3.112   6.718  18.408  0.00  0.00    +0.000 A 
ATOM      5 CL   UNL     1       4.013   5.429  17.689  0.00  0.00    +0.000 Cl
ATOM      6  C   UNL     1       2.981   7.898  17.684  0.00  0.00    +0.000 A 
ATOM      7  C   UNL     1       2.197   8.924  18.191  0.00  0.00    +0.000 A 
ATOM      8  F   UNL     1       2.127  10.060  17.485  0.00  0.00    +0.000 F 
ENDROOT
BRANCH   1  12
ATOM      9  C   UNL     1      -0.607  11.968  22.354  0.00  0.00    +0.000 C 
ATOM     10  C   UNL     1      -0.375  11.150  21.133  0.00  0.00    +0.000 A 
ATOM     11  N   UNL     1       0.569  10.202  21.103  0.00  0.00    +0.000 NA
ATOM     12  N   UNL     1       0.572   9.752  19.820  0.00  0.00    +0.000 N 
ATOM     13  C   UNL     1      -0.509  10.267  19.107  0.00  0.00    +0.000 A 
ATOM     14  C   UNL     1      -0.967   9.801  17.771  0.00  0.00    +0.000 C 
ATOM     15  C   UNL     1      -1.102  11.218  19.919  0.00  0.00    +0.000 A 
ATOM     16  C   UNL     1      -2.277  12.070  19.619  0.00  0.00    +0.000 C 
ENDBRANCH   1  12
BRANCH   3  17
ATOM     17  O   UNL     1       2.659   5.362  20.275  0.00  0.00    +0.000 OA
BRANCH  17  18
ATOM     18  C   UNL     1       1.527   4.510  20.481  0.00  0.00    +0.000 C 
ATOM     19  C   UNL     1       1.144   3.722  19.227  0.00  0.00    +0.000 C 
ATOM     20  C   UNL     1       1.954   3.522  21.569  0.00  0.00    +0.000 C 
ENDBRANCH  17  18
ENDBRANCH   3  17
TORSDOF 3
ENDMDL
MODEL 5
REMARK VINA RESULT:      -6.6      2.794      4.318
REMARK  Name = 
REMARK  8 active torsions:
REMARK  status: ('A' for Active; 'I' for Inactive)
REMARK    1  A    between atoms: C_1  and  C_2
REMARK    2  A    between atoms: N_4  and  C_5
REMARK    3  A    between atoms: C_7  and  O_8
REMARK    4  A    between atoms: O_8  and  C_9
REMARK    5  A    between atoms: C_9  and  C_10
REMARK    6  A    between atoms: C_9  and  C_11
REMARK    7  A    between atoms: C_17  and  C_18
REMARK    8  A    between atoms: C_19  and  C_20
REMARK                            x       y       z     vdW  Elec       q    Type
REMARK                         _______ _______ _______ _____ _____    ______ ____
ROOT
ATOM      1  C   UNL     1       1.636   8.260  19.617  0.00  0.00    +0.000 A 
ATOM      2  C   UNL     1       1.830   7.058  20.322  0.00  0.00    +0.000 A 
ATOM      3  C   UNL     1       2.495   5.993  19.700  0.00  0.00    +0.000 A 
ATOM      4  C   UNL     1       3.066   6.181  18.428  0.00  0.00    +0.000 A 
ATOM      5 CL   UNL     1       3.866   4.893  17.596  0.00  0.00    +0.000 Cl
ATOM      6  C   UNL     1       2.965   7.407  17.780  0.00  0.00    +0.000 A 
ATOM      7  C   UNL     1       2.259   8.439  18.381  0.00  0.00    +0.000 A 
ATOM      8  F   UNL     1       2.218   9.616  17.744  0.00  0.00    +0.000 F 
ENDROOT
BRANCH   1  12
ATOM      9  C   UNL     1      -1.803  11.656  19.510  0.00  0.00    +0.000 C 
ATOM     10  C   UNL     1      -0.758  10.760  20.075  0.00  0.00    +0.000 A 
ATOM     11  N   UNL     1       0.012  10.007  19.280  0.00  0.00    +0.000 NA
ATOM     12  N   UNL     1       0.754   9.248  20.129  0.00  0.00    +0.000 N 
ATOM     13  C   UNL     1       0.600   9.677  21.447  0.00  0.00    +0.000 A 
ATOM     14  C   UNL     1       1.441   9.256  22.600  0.00  0.00    +0.000 C 
ATOM     15  C   UNL     1      -0.417  10.615  21.441  0.00  0.00    +0.000 A 
ATOM     16  C   UNL     1      -0.980  11.359  22.594  0.00  0.00    +0.000 C 
ENDBRANCH   1  12
BRANCH   3  17
ATOM     17  O   UNL     1       2.626   4.741  20.235  0.00  0.00    +0.000 OA
BRANCH  17  18
ATOM     18  C   UNL     1       1.459   3.941  20.460  0.00  0.00    +0.000 C 
ATOM     19  C   UNL     1       1.047   3.137  19.226  0.00  0.00    +0.000 C 
ATOM     20  C   UNL     1       1.843   2.966  21.575  0.00  0.00    +0.000 C 
ENDBRANCH  17  18
ENDBRANCH   3  17
TORSDOF 3
ENDMDL
MODEL 6
REMARK VINA RESULT:      -6.5      2.165      2.812
REMARK  Name = 
REMARK  8 active torsions:
REMARK  status: ('A' for Active; 'I' for Inactive)
REMARK    1  A    between atoms: C_1  and  C_2
REMARK    2  A    between atoms: N_4  and  C_5
REMARK    3  A    between atoms: C_7  and  O_8
REMARK    4  A    between atoms: O_8  and  C_9
REMARK    5  A    between atoms: C_9  and  C_10
REMARK    6  A    between atoms: C_9  and  C_11
REMARK    7  A    between atoms: C_17  and  C_18
REMARK    8  A    between atoms: C_19  and  C_20
REMARK                            x       y       z     vdW  Elec       q    Type
REMARK                         _______ _______ _______ _____ _____    ______ ____
ROOT
ATOM      1  C   UNL     1       3.144   6.597  17.936  0.00  0.00    +0.000 A 
ATOM      2  C   UNL     1       4.357   7.045  17.381  0.00  0.00    +0.000 A 
ATOM      3  C   UNL     1       5.231   6.119  16.793  0.00  0.00    +0.000 A 
ATOM      4  C   UNL     1       4.829   4.778  16.655  0.00  0.00    +0.000 A 
ATOM      5 CL   UNL     1       5.878   3.585  15.973  0.00  0.00    +0.000 Cl
ATOM      6  C   UNL     1       3.582   4.361  17.108  0.00  0.00    +0.000 A 
ATOM      7  C   UNL     1       2.746   5.273  17.737  0.00  0.00    +0.000 A 
ATOM      8  F   UNL     1       1.538   4.844  18.123  0.00  0.00    +0.000 F 
ENDROOT
BRANCH   1  12
ATOM      9  C   UNL     1       0.669  10.579  19.112  0.00  0.00    +0.000 C 
ATOM     10  C   UNL     1       1.290   9.236  19.271  0.00  0.00    +0.000 A 
ATOM     11  N   UNL     1       2.090   8.727  18.327  0.00  0.00    +0.000 NA
ATOM     12  N   UNL     1       2.372   7.466  18.750  0.00  0.00    +0.000 N 
ATOM     13  C   UNL     1       1.923   7.265  20.055  0.00  0.00    +0.000 A 
ATOM     14  C   UNL     1       2.276   6.111  20.925  0.00  0.00    +0.000 C 
ATOM     15  C   UNL     1       1.170   8.376  20.389  0.00  0.00    +0.000 A 
ATOM     16  C   UNL     1       0.453   8.645  21.660  0.00  0.00    +0.000 C 
ENDBRANCH   1  12
BRANCH   3  17
ATOM     17  O   UNL     1       6.487   6.417  16.343  0.00  0.00    +0.000 OA
BRANCH  17  18
ATOM     18  C   UNL     1       7.543   6.641  17.284  0.00  0.00    +0.000 C 
ATOM     19  C   UNL     1       7.730   8.121  17.621  0.00  0.00    +0.000 C 
ATOM     20  C   UNL     1       7.121   5.899  18.554  0.00  0.00    +0.000 C 
ENDBRANCH  17  18
ENDBRANCH   3  17
TORSDOF 3
ENDMDL
MODEL 7
REMARK VINA RESULT:      -6.5      3.490      6.544
REMARK  Name = 
REMARK  8 active torsions:
REMARK  status: ('A' for Active; 'I' for Inactive)
REMARK    1  A    between atoms: C_1  and  C_2
REMARK    2  A    between atoms: N_4  and  C_5
REMARK    3  A    between atoms: C_7  and  O_8
REMARK    4  A    between atoms: O_8  and  C_9
REMARK    5  A    between atoms: C_9  and  C_10
REMARK    6  A    between atoms: C_9  and  C_11
REMARK    7  A    between atoms: C_17  and  C_18
REMARK    8  A    between atoms: C_19  and  C_20
REMARK                            x       y       z     vdW  Elec       q    Type
REMARK                         _______ _______ _______ _____ _____    ______ ____
ROOT
ATOM      1  C   UNL     1       4.193   5.354  17.119  0.00  0.00    +0.000 A 
ATOM      2  C   UNL     1       3.805   4.320  17.991  0.00  0.00    +0.000 A 
ATOM      3  C   UNL     1       3.102   4.633  19.163  0.00  0.00    +0.000 A 
ATOM      4  C   UNL     1       2.687   5.958  19.388  0.00  0.00    +0.000 A 
ATOM      5 CL   UNL     1       1.849   6.409  20.832  0.00  0.00    +0.000 Cl
ATOM      6  C   UNL     1       2.978   6.959  18.469  0.00  0.00    +0.000 A 
ATOM      7  C   UNL     1       3.721   6.650  17.338  0.00  0.00    +0.000 A 
ATOM      8  F   UNL     1       3.948   7.632  16.456  0.00  0.00    +0.000 F 
ENDROOT
BRANCH   1  12
ATOM      9  C   UNL     1       5.801   3.492  12.958  0.00  0.00    +0.000 C 
ATOM     10  C   UNL     1       5.825   4.253  14.236  0.00  0.00    +0.000 A 
ATOM     11  N   UNL     1       4.799   4.200  15.094  0.00  0.00    +0.000 NA
ATOM     12  N   UNL     1       5.114   5.091  16.071  0.00  0.00    +0.000 N 
ATOM     13  C   UNL     1       6.427   5.540  15.934  0.00  0.00    +0.000 A 
ATOM     14  C   UNL     1       7.189   6.313  16.951  0.00  0.00    +0.000 C 
ATOM     15  C   UNL     1       6.886   5.056  14.722  0.00  0.00    +0.000 A 
ATOM     16  C   UNL     1       8.214   5.268  14.098  0.00  0.00    +0.000 C 
ENDBRANCH   1  12
BRANCH   3  17
ATOM     17  O   UNL     1       2.790   3.733  20.143  0.00  0.00    +0.000 OA
BRANCH  17  18
ATOM     18  C   UNL     1       1.438   3.284  20.288  0.00  0.00    +0.000 C 
ATOM     19  C   UNL     1       1.016   2.311  19.186  0.00  0.00    +0.000 C 
ATOM     20  C   UNL     1       1.393   2.552  21.631  0.00  0.00    +0.000 C 
ENDBRANCH  17  18
ENDBRANCH   3  17
TORSDOF 3
ENDMDL
MODEL 8
REMARK VINA RESULT:      -6.5      3.058      4.468
REMARK  Name = 
REMARK  8 active torsions:
REMARK  status: ('A' for Active; 'I' for Inactive)
REMARK    1  A    between atoms: C_1  and  C_2
REMARK    2  A    between atoms: N_4  and  C_5
REMARK    3  A    between atoms: C_7  and  O_8
REMARK    4  A    between atoms: O_8  and  C_9
REMARK    5  A    between atoms: C_9  and  C_10
REMARK    6  A    between atoms: C_9  and  C_11
REMARK    7  A    between atoms: C_17  and  C_18
REMARK    8  A    between atoms: C_19  and  C_20
REMARK                            x       y       z     vdW  Elec       q    Type
REMARK                         _______ _______ _______ _____ _____    ______ ____
ROOT
ATOM      1  C   UNL     1       4.224   4.991  17.747  0.00  0.00    +0.000 A 
ATOM      2  C   UNL     1       5.147   6.052  17.736  0.00  0.00    +0.000 A 
ATOM      3  C   UNL     1       6.145   6.090  16.752  0.00  0.00    +0.000 A 
ATOM      4  C   UNL     1       6.133   5.136  15.718  0.00  0.00    +0.000 A 
ATOM      5 CL   UNL     1       7.358   5.110  14.497  0.00  0.00    +0.000 Cl
ATOM      6  C   UNL     1       5.152   4.152  15.671  0.00  0.00    +0.000 A 
ATOM      7  C   UNL     1       4.201   4.091  16.680  0.00  0.00    +0.000 A 
ATOM      8  F   UNL     1       3.249   3.154  16.580  0.00  0.00    +0.000 F 
ENDROOT
BRANCH   1  12
ATOM      9  C   UNL     1       0.814   6.077  20.997  0.00  0.00    +0.000 C 
ATOM     10  C   UNL     1       1.876   5.290  20.314  0.00  0.00    +0.000 A 
ATOM     11  N   UNL     1       2.602   5.821  19.322  0.00  0.00    +0.000 NA
ATOM     12  N   UNL     1       3.376   4.800  18.870  0.00  0.00    +0.000 N 
ATOM     13  C   UNL     1       3.288   3.694  19.714  0.00  0.00    +0.000 A 
ATOM     14  C   UNL     1       4.178   2.503  19.678  0.00  0.00    +0.000 C 
ATOM     15  C   UNL     1       2.280   3.968  20.621  0.00  0.00    +0.000 A 
ATOM     16  C   UNL     1       1.778   3.105  21.718  0.00  0.00    +0.000 C 
ENDBRANCH   1  12
BRANCH   3  17
ATOM     17  O   UNL     1       7.169   6.994  16.719  0.00  0.00    +0.000 OA
BRANCH  17  18
ATOM     18  C   UNL     1       7.501   7.732  17.901  0.00  0.00    +0.000 C 
ATOM     19  C   UNL     1       8.352   6.925  18.883  0.00  0.00    +0.000 C 
ATOM     20  C   UNL     1       8.316   8.933  17.417  0.00  0.00    +0.000 C 
ENDBRANCH  17  18
ENDBRANCH   3  17
TORSDOF 3
ENDMDL
MODEL 9
REMARK VINA RESULT:      -6.4      1.140      1.295
REMARK  Name = 
REMARK  8 active torsions:
REMARK  status: ('A' for Active; 'I' for Inactive)
REMARK    1  A    between atoms: C_1  and  C_2
REMARK    2  A    between atoms: N_4  and  C_5
REMARK    3  A    between atoms: C_7  and  O_8
REMARK    4  A    between atoms: O_8  and  C_9
REMARK    5  A    between atoms: C_9  and  C_10
REMARK    6  A    between atoms: C_9  and  C_11
REMARK    7  A    between atoms: C_17  and  C_18
REMARK    8  A    between atoms: C_19  and  C_20
REMARK                            x       y       z     vdW  Elec       q    Type
REMARK                         _______ _______ _______ _____ _____    ______ ____
ROOT
ATOM      1  C   UNL     1       2.361   6.578  19.481  0.00  0.00    +0.000 A 
ATOM      2  C   UNL     1       3.429   6.681  18.571  0.00  0.00    +0.000 A 
ATOM      3  C   UNL     1       4.165   5.536  18.238  0.00  0.00    +0.000 A 
ATOM      4  C   UNL     1       3.749   4.281  18.718  0.00  0.00    +0.000 A 
ATOM      5 CL   UNL     1       4.638   2.839  18.370  0.00  0.00    +0.000 Cl
ATOM      6  C   UNL     1       2.626   4.169  19.530  0.00  0.00    +0.000 A 
ATOM      7  C   UNL     1       1.936   5.315  19.899  0.00  0.00    +0.000 A 
ATOM      8  F   UNL     1       0.836   5.163  20.649  0.00  0.00    +0.000 F 
ENDROOT
BRANCH   1  12
ATOM      9  C   UNL     1       0.513   9.485  22.872  0.00  0.00    +0.000 C 
ATOM     10  C   UNL     1       0.943   9.029  21.523  0.00  0.00    +0.000 A 
ATOM     11  N   UNL     1       1.358   7.774  21.316  0.00  0.00    +0.000 NA
ATOM     12  N   UNL     1       1.772   7.751  20.021  0.00  0.00    +0.000 N 
ATOM     13  C   UNL     1       1.419   8.928  19.363  0.00  0.00    +0.000 A 
ATOM     14  C   UNL     1       1.480   9.152  17.894  0.00  0.00    +0.000 C 
ATOM     15  C   UNL     1       0.934   9.791  20.330  0.00  0.00    +0.000 A 
ATOM     16  C   UNL     1       0.446  11.180  20.152  0.00  0.00    +0.000 C 
ENDBRANCH   1  12
BRANCH   3  17
ATOM     17  O   UNL     1       5.298   5.538  17.472  0.00  0.00    +0.000 OA
BRANCH  17  18
ATOM     18  C   UNL     1       6.564   5.814  18.081  0.00  0.00    +0.000 C 
ATOM     19  C   UNL     1       7.599   4.720  17.817  0.00  0.00    +0.000 C 
ATOM     20  C   UNL     1       7.051   7.115  17.438  0.00  0.00    +0.000 C 
ENDBRANCH  17  18
ENDBRANCH   3  17
TORSDOF 3
ENDMDL
