MODEL 1
REMARK VINA RESULT:      -8.3      0.000      0.000
REMARK  Name = 
REMARK  6 active torsions:
REMARK  status: ('A' for Active; 'I' for Inactive)
REMARK    1  A    between atoms: C_2  and  C_3
REMARK    2  A    between atoms: C_2  and  C_21
REMARK    3  A    between atoms: C_3  and  S_4
REMARK    4  A    between atoms: S_4  and  C_5
REMARK    5  A    between atoms: C_7  and  O_8
REMARK    6  A    between atoms: N_12  and  C_13
REMARK                            x       y       z     vdW  Elec       q    Type
REMARK                         _______ _______ _______ _____ _____    ______ ____
ROOT
ATOM      1  C   UNL     1       1.727   6.380  20.405  0.00  0.00    +0.000 A 
ATOM      2  N   UNL     1       0.951   5.308  20.680  0.00  0.00    +0.000 NA
ATOM      3  C   UNL     1       1.403   4.106  20.301  0.00  0.00    +0.000 A 
ATOM      4  C   UNL     1       2.627   3.958  19.682  0.00  0.00    +0.000 A 
ATOM      5  C   UNL     1       3.431   2.926  19.182  0.00  0.00    +0.000 A 
ATOM      6  N   UNL     1       4.568   3.376  18.655  0.00  0.00    +0.000 NA
ATOM      7  N   UNL     1       4.539   4.728  18.873  0.00  0.00    +0.000 N 
ATOM      8  C   UNL     1       3.343   5.119  19.470  0.00  0.00    +0.000 A 
ATOM      9  N   UNL     1       2.934   6.361  19.813  0.00  0.00    +0.000 NA
ENDROOT
BRANCH   7  10
ATOM     10  C   UNL     1       5.664   5.528  18.525  0.00  0.00    +0.000 A 
ATOM     11  C   UNL     1       6.837   5.430  19.290  0.00  0.00    +0.000 A 
ATOM     12  C   UNL     1       7.945   6.219  18.980  0.00  0.00    +0.000 A 
ATOM     13  C   UNL     1       7.884   7.120  17.921  0.00  0.00    +0.000 A 
ATOM     14  C   UNL     1       6.721   7.229  17.162  0.00  0.00    +0.000 A 
ATOM     15  C   UNL     1       5.616   6.429  17.456  0.00  0.00    +0.000 A 
ENDBRANCH   7  10
BRANCH   3  16
ATOM     16  O   UNL     1       0.596   3.047  20.600  0.00  0.00    +0.000 OA
ATOM     17  H   UNL     1       1.254   2.389  20.891  0.00  0.00    +0.000 HD
ENDBRANCH   3  16
BRANCH   1  18
ATOM     18  S   UNL     1       1.176   7.944  21.069  0.00  0.00    +0.000 S 
BRANCH  18  19
ATOM     19  C   UNL     1       1.267   9.016  19.587  0.00  0.00    +0.000 C 
BRANCH  19  21
ATOM     20  O   UNL     1       0.819  11.189  20.575  0.00  0.00    +0.000 OA
ATOM     21  C   UNL     1       0.504  10.318  19.772  0.00  0.00    +0.000 C 
BRANCH  21  22
ATOM     22  C   UNL     1      -0.728  10.551  18.961  0.00  0.00    +0.000 A 
ATOM     23  C   UNL     1      -0.978   9.899  17.748  0.00  0.00    +0.000 A 
ATOM     24  C   UNL     1      -2.139  10.202  17.023  0.00  0.00    +0.000 A 
ATOM     25  C   UNL     1      -3.044  11.147  17.509  0.00  0.00    +0.000 A 
ATOM     26 CL   UNL     1      -4.468  11.509  16.615  0.00  0.00    +0.000 Cl
ATOM     27  C   UNL     1      -2.802  11.796  18.716  0.00  0.00    +0.000 A 
ATOM     28  C   UNL     1      -1.643  11.500  19.437  0.00  0.00    +0.000 A 
ENDBRANCH  21  22
ENDBRANCH  19  21
ENDBRANCH  18  19
ENDBRANCH   1  18
TORSDOF 6
ENDMDL
MODEL 2
REMARK VINA RESULT:      -8.2      0.200      1.330
REMARK  Name = 
REMARK  6 active torsions:
REMARK  status: ('A' for Active; 'I' for Inactive)
REMARK    1  A    between atoms: C_2  and  C_3
REMARK    2  A    between atoms: C_2  and  C_21
REMARK    3  A    between atoms: C_3  and  S_4
REMARK    4  A    between atoms: S_4  and  C_5
REMARK    5  A    between atoms: C_7  and  O_8
REMARK    6  A    between atoms: N_12  and  C_13
REMARK                            x       y       z     vdW  Elec       q    Type
REMARK                         _______ _______ _______ _____ _____    ______ ____
ROOT
ATOM      1  C   UNL     1       1.716   6.429  20.452  0.00  0.00    +0.000 A 
ATOM      2  N   UNL     1       0.979   5.354  20.809  0.00  0.00    +0.000 NA
ATOM      3  C   UNL     1       1.471   4.144  20.519  0.00  0.00    +0.000 A 
ATOM      4  C   UNL     1       2.697   3.993  19.905  0.00  0.00    +0.000 A 
ATOM      5  C   UNL     1       3.535   2.955  19.480  0.00  0.00    +0.000 A 
ATOM      6  N   UNL     1       4.655   3.403  18.914  0.00  0.00    +0.000 NA
ATOM      7  N   UNL     1       4.579   4.766  19.031  0.00  0.00    +0.000 N 
ATOM      8  C   UNL     1       3.372   5.159  19.604  0.00  0.00    +0.000 A 
ATOM      9  N   UNL     1       2.921   6.408  19.856  0.00  0.00    +0.000 NA
ENDROOT
BRANCH   7  10
ATOM     10  C   UNL     1       5.675   5.575  18.619  0.00  0.00    +0.000 A 
ATOM     11  C   UNL     1       5.529   6.410  17.500  0.00  0.00    +0.000 A 
ATOM     12  C   UNL     1       6.597   7.196  17.066  0.00  0.00    +0.000 A 
ATOM     13  C   UNL     1       7.818   7.141  17.732  0.00  0.00    +0.000 A 
ATOM     14  C   UNL     1       7.974   6.309  18.838  0.00  0.00    +0.000 A 
ATOM     15  C   UNL     1       6.904   5.534  19.287  0.00  0.00    +0.000 A 
ENDBRANCH   7  10
BRANCH   3  16
ATOM     16  O   UNL     1       0.702   3.082  20.899  0.00  0.00    +0.000 OA
ATOM     17  H   UNL     1       0.062   3.044  20.166  0.00  0.00    +0.000 HD
ENDBRANCH   3  16
BRANCH   1  18
ATOM     18  S   UNL     1       1.112   8.018  21.000  0.00  0.00    +0.000 S 
BRANCH  18  19
ATOM     19  C   UNL     1       1.302   9.020  19.479  0.00  0.00    +0.000 C 
BRANCH  19  21
ATOM     20  O   UNL     1       1.130  11.304  20.286  0.00  0.00    +0.000 OA
ATOM     21  C   UNL     1       0.663  10.394  19.612  0.00  0.00    +0.000 C 
BRANCH  21  22
ATOM     22  C   UNL     1      -0.631  10.654  18.915  0.00  0.00    +0.000 A 
ATOM     23  C   UNL     1      -1.590  11.553  19.394  0.00  0.00    +0.000 A 
ATOM     24  C   UNL     1      -2.801  11.711  18.704  0.00  0.00    +0.000 A 
ATOM     25  C   UNL     1      -3.047  10.980  17.541  0.00  0.00    +0.000 A 
ATOM     26 CL   UNL     1      -4.532  11.185  16.698  0.00  0.00    +0.000 Cl
ATOM     27  C   UNL     1      -2.095  10.087  17.057  0.00  0.00    +0.000 A 
ATOM     28  C   UNL     1      -0.892   9.922  17.747  0.00  0.00    +0.000 A 
ENDBRANCH  21  22
ENDBRANCH  19  21
ENDBRANCH  18  19
ENDBRANCH   1  18
TORSDOF 6
ENDMDL
MODEL 3
REMARK VINA RESULT:      -8.2      4.182      7.577
REMARK  Name = 
REMARK  6 active torsions:
REMARK  status: ('A' for Active; 'I' for Inactive)
REMARK    1  A    between atoms: C_2  and  C_3
REMARK    2  A    between atoms: C_2  and  C_21
REMARK    3  A    between atoms: C_3  and  S_4
REMARK    4  A    between atoms: S_4  and  C_5
REMARK    5  A    between atoms: C_7  and  O_8
REMARK    6  A    between atoms: N_12  and  C_13
REMARK                            x       y       z     vdW  Elec       q    Type
REMARK                         _______ _______ _______ _____ _____    ______ ____
ROOT
ATOM      1  C   UNL     1       5.693   4.933  19.385  0.00  0.00    +0.000 A 
ATOM      2  N   UNL     1       5.583   3.587  19.355  0.00  0.00    +0.000 NA
ATOM      3  C   UNL     1       4.354   3.066  19.454  0.00  0.00    +0.000 A 
ATOM      4  C   UNL     1       3.236   3.868  19.551  0.00  0.00    +0.000 A 
ATOM      5  C   UNL     1       1.846   3.722  19.638  0.00  0.00    +0.000 A 
ATOM      6  N   UNL     1       1.215   4.893  19.722  0.00  0.00    +0.000 NA
ATOM      7  N   UNL     1       2.211   5.829  19.622  0.00  0.00    +0.000 N 
ATOM      8  C   UNL     1       3.465   5.230  19.551  0.00  0.00    +0.000 A 
ATOM      9  N   UNL     1       4.681   5.815  19.471  0.00  0.00    +0.000 NA
ENDROOT
BRANCH   7  10
ATOM     10  C   UNL     1       1.880   7.213  19.567  0.00  0.00    +0.000 A 
ATOM     11  C   UNL     1       1.392   7.847  20.721  0.00  0.00    +0.000 A 
ATOM     12  C   UNL     1       1.042   9.197  20.684  0.00  0.00    +0.000 A 
ATOM     13  C   UNL     1       1.158   9.915  19.498  0.00  0.00    +0.000 A 
ATOM     14  C   UNL     1       1.633   9.291  18.347  0.00  0.00    +0.000 A 
ATOM     15  C   UNL     1       2.002   7.945  18.382  0.00  0.00    +0.000 A 
ENDBRANCH   7  10
BRANCH   3  16
ATOM     16  O   UNL     1       4.282   1.703  19.415  0.00  0.00    +0.000 OA
ATOM     17  H   UNL     1       4.287   1.544  18.454  0.00  0.00    +0.000 HD
ENDBRANCH   3  16
BRANCH   1  18
ATOM     18  S   UNL     1       7.323   5.600  19.085  0.00  0.00    +0.000 S 
BRANCH  18  19
ATOM     19  C   UNL     1       7.708   4.883  17.445  0.00  0.00    +0.000 C 
BRANCH  19  21
ATOM     20  O   UNL     1       6.833   6.869  16.355  0.00  0.00    +0.000 OA
ATOM     21  C   UNL     1       7.066   5.667  16.310  0.00  0.00    +0.000 C 
BRANCH  21  22
ATOM     22  C   UNL     1       6.656   4.936  15.075  0.00  0.00    +0.000 A 
ATOM     23  C   UNL     1       7.417   4.932  13.901  0.00  0.00    +0.000 A 
ATOM     24  C   UNL     1       6.943   4.256  12.768  0.00  0.00    +0.000 A 
ATOM     25  C   UNL     1       5.720   3.586  12.810  0.00  0.00    +0.000 A 
ATOM     26 CL   UNL     1       5.149   2.754  11.417  0.00  0.00    +0.000 Cl
ATOM     27  C   UNL     1       4.960   3.582  13.976  0.00  0.00    +0.000 A 
ATOM     28  C   UNL     1       5.427   4.261  15.104  0.00  0.00    +0.000 A 
ENDBRANCH  21  22
ENDBRANCH  19  21
ENDBRANCH  18  19
ENDBRANCH   1  18
TORSDOF 6
ENDMDL
MODEL 4
REMARK VINA RESULT:      -8.1      4.292      7.524
REMARK  Name = 
REMARK  6 active torsions:
REMARK  status: ('A' for Active; 'I' for Inactive)
REMARK    1  A    between atoms: C_2  and  C_3
REMARK    2  A    between atoms: C_2  and  C_21
REMARK    3  A    between atoms: C_3  and  S_4
REMARK    4  A    between atoms: S_4  and  C_5
REMARK    5  A    between atoms: C_7  and  O_8
REMARK    6  A    between atoms: N_12  and  C_13
REMARK                            x       y       z     vdW  Elec       q    Type
REMARK                         _______ _______ _______ _____ _____    ______ ____
ROOT
ATOM      1  C   UNL     1       5.928   5.063  18.545  0.00  0.00    +0.000 A 
ATOM      2  N   UNL     1       5.924   3.766  18.923  0.00  0.00    +0.000 NA
ATOM      3  C   UNL     1       4.841   3.314  19.566  0.00  0.00    +0.000 A 
ATOM      4  C   UNL     1       3.754   4.128  19.809  0.00  0.00    +0.000 A 
ATOM      5  C   UNL     1       2.485   4.036  20.393  0.00  0.00    +0.000 A 
ATOM      6  N   UNL     1       1.823   5.192  20.360  0.00  0.00    +0.000 NA
ATOM      7  N   UNL     1       2.652   6.045  19.680  0.00  0.00    +0.000 N 
ATOM      8  C   UNL     1       3.860   5.430  19.359  0.00  0.00    +0.000 A 
ATOM      9  N   UNL     1       4.932   5.948  18.720  0.00  0.00    +0.000 NA
ENDROOT
BRANCH   7  10
ATOM     10  C   UNL     1       2.211   7.361  19.363  0.00  0.00    +0.000 A 
ATOM     11  C   UNL     1       1.582   8.130  20.354  0.00  0.00    +0.000 A 
ATOM     12  C   UNL     1       1.123   9.414  20.060  0.00  0.00    +0.000 A 
ATOM     13  C   UNL     1       1.271   9.929  18.776  0.00  0.00    +0.000 A 
ATOM     14  C   UNL     1       1.887   9.169  17.784  0.00  0.00    +0.000 A 
ATOM     15  C   UNL     1       2.364   7.891  18.078  0.00  0.00    +0.000 A 
ENDBRANCH   7  10
BRANCH   3  16
ATOM     16  O   UNL     1       4.870   1.998  19.929  0.00  0.00    +0.000 OA
ATOM     17  H   UNL     1       5.391   2.044  20.751  0.00  0.00    +0.000 HD
ENDBRANCH   3  16
BRANCH   1  18
ATOM     18  S   UNL     1       7.312   5.590  17.545  0.00  0.00    +0.000 S 
BRANCH  18  19
ATOM     19  C   UNL     1       7.930   7.017  18.512  0.00  0.00    +0.000 C 
BRANCH  19  21
ATOM     20  O   UNL     1       6.972   8.471  16.819  0.00  0.00    +0.000 OA
ATOM     21  C   UNL     1       7.703   8.339  17.793  0.00  0.00    +0.000 C 
BRANCH  21  22
ATOM     22  C   UNL     1       8.436   9.550  18.268  0.00  0.00    +0.000 A 
ATOM     23  C   UNL     1       9.216   9.565  19.429  0.00  0.00    +0.000 A 
ATOM     24  C   UNL     1       9.839  10.754  19.833  0.00  0.00    +0.000 A 
ATOM     25  C   UNL     1       9.687  11.918  19.077  0.00  0.00    +0.000 A 
ATOM     26 CL   UNL     1      10.460  13.371  19.577  0.00  0.00    +0.000 Cl
ATOM     27  C   UNL     1       8.916  11.908  17.919  0.00  0.00    +0.000 A 
ATOM     28  C   UNL     1       8.287  10.726  17.519  0.00  0.00    +0.000 A 
ENDBRANCH  21  22
ENDBRANCH  19  21
ENDBRANCH  18  19
ENDBRANCH   1  18
TORSDOF 6
ENDMDL
MODEL 5
REMARK VINA RESULT:      -8.1      1.647      2.001
REMARK  Name = 
REMARK  6 active torsions:
REMARK  status: ('A' for Active; 'I' for Inactive)
REMARK    1  A    between atoms: C_2  and  C_3
REMARK    2  A    between atoms: C_2  and  C_21
REMARK    3  A    between atoms: C_3  and  S_4
REMARK    4  A    between atoms: S_4  and  C_5
REMARK    5  A    between atoms: C_7  and  O_8
REMARK    6  A    between atoms: N_12  and  C_13
REMARK                            x       y       z     vdW  Elec       q    Type
REMARK                         _______ _______ _______ _____ _____    ______ ____
ROOT
ATOM      1  C   UNL     1       2.077   6.030  19.676  0.00  0.00    +0.000 A 
ATOM      2  N   UNL     1       1.340   5.219  20.466  0.00  0.00    +0.000 NA
ATOM      3  C   UNL     1       1.537   3.901  20.351  0.00  0.00    +0.000 A 
ATOM      4  C   UNL     1       2.476   3.384  19.483  0.00  0.00    +0.000 A 
ATOM      5  C   UNL     1       2.981   2.133  19.107  0.00  0.00    +0.000 A 
ATOM      6  N   UNL     1       3.922   2.224  18.168  0.00  0.00    +0.000 NA
ATOM      7  N   UNL     1       4.084   3.570  17.972  0.00  0.00    +0.000 N 
ATOM      8  C   UNL     1       3.186   4.307  18.739  0.00  0.00    +0.000 A 
ATOM      9  N   UNL     1       3.021   5.647  18.798  0.00  0.00    +0.000 NA
ENDROOT
BRANCH   7  10
ATOM     10  C   UNL     1       5.103   4.041  17.096  0.00  0.00    +0.000 A 
ATOM     11  C   UNL     1       4.876   4.030  15.711  0.00  0.00    +0.000 A 
ATOM     12  C   UNL     1       5.869   4.467  14.833  0.00  0.00    +0.000 A 
ATOM     13  C   UNL     1       7.095   4.900  15.329  0.00  0.00    +0.000 A 
ATOM     14  C   UNL     1       7.331   4.907  16.701  0.00  0.00    +0.000 A 
ATOM     15  C   UNL     1       6.336   4.487  17.585  0.00  0.00    +0.000 A 
ENDBRANCH   7  10
BRANCH   3  16
ATOM     16  O   UNL     1       0.780   3.113  21.169  0.00  0.00    +0.000 OA
ATOM     17  H   UNL     1       1.464   2.540  21.561  0.00  0.00    +0.000 HD
ENDBRANCH   3  16
BRANCH   1  18
ATOM     18  S   UNL     1       1.911   7.785  19.971  0.00  0.00    +0.000 S 
BRANCH  18  19
ATOM     19  C   UNL     1       1.819   8.430  18.259  0.00  0.00    +0.000 C 
BRANCH  19  21
ATOM     20  O   UNL     1       2.327  10.801  18.132  0.00  0.00    +0.000 OA
ATOM     21  C   UNL     1       1.487   9.914  18.222  0.00  0.00    +0.000 C 
BRANCH  21  22
ATOM     22  C   UNL     1       0.059  10.333  18.337  0.00  0.00    +0.000 A 
ATOM     23  C   UNL     1      -0.973   9.741  17.602  0.00  0.00    +0.000 A 
ATOM     24  C   UNL     1      -2.285  10.219  17.735  0.00  0.00    +0.000 A 
ATOM     25  C   UNL     1      -2.561  11.279  18.599  0.00  0.00    +0.000 A 
ATOM     26 CL   UNL     1      -4.174  11.856  18.759  0.00  0.00    +0.000 Cl
ATOM     27  C   UNL     1      -1.539  11.870  19.336  0.00  0.00    +0.000 A 
ATOM     28  C   UNL     1      -0.231  11.400  19.201  0.00  0.00    +0.000 A 
ENDBRANCH  21  22
ENDBRANCH  19  21
ENDBRANCH  18  19
ENDBRANCH   1  18
TORSDOF 6
ENDMDL
MODEL 6
REMARK VINA RESULT:      -8.0      2.322      2.908
REMARK  Name = 
REMARK  6 active torsions:
REMARK  status: ('A' for Active; 'I' for Inactive)
REMARK    1  A    between atoms: C_2  and  C_3
REMARK    2  A    between atoms: C_2  and  C_21
REMARK    3  A    between atoms: C_3  and  S_4
REMARK    4  A    between atoms: S_4  and  C_5
REMARK    5  A    between atoms: C_7  and  O_8
REMARK    6  A    between atoms: N_12  and  C_13
REMARK                            x       y       z     vdW  Elec       q    Type
REMARK                         _______ _______ _______ _____ _____    ______ ____
ROOT
ATOM      1  C   UNL     1       2.147   6.109  19.668  0.00  0.00    +0.000 A 
ATOM      2  N   UNL     1       1.408   5.318  20.477  0.00  0.00    +0.000 NA
ATOM      3  C   UNL     1       1.596   3.996  20.385  0.00  0.00    +0.000 A 
ATOM      4  C   UNL     1       2.529   3.458  19.523  0.00  0.00    +0.000 A 
ATOM      5  C   UNL     1       3.024   2.197  19.169  0.00  0.00    +0.000 A 
ATOM      6  N   UNL     1       3.962   2.264  18.225  0.00  0.00    +0.000 NA
ATOM      7  N   UNL     1       4.132   3.605  18.003  0.00  0.00    +0.000 N 
ATOM      8  C   UNL     1       3.241   4.362  18.760  0.00  0.00    +0.000 A 
ATOM      9  N   UNL     1       3.086   5.704  18.795  0.00  0.00    +0.000 NA
ENDROOT
BRANCH   7  10
ATOM     10  C   UNL     1       5.151   4.053  17.115  0.00  0.00    +0.000 A 
ATOM     11  C   UNL     1       4.888   4.098  15.737  0.00  0.00    +0.000 A 
ATOM     12  C   UNL     1       5.879   4.513  14.847  0.00  0.00    +0.000 A 
ATOM     13  C   UNL     1       7.138   4.869  15.322  0.00  0.00    +0.000 A 
ATOM     14  C   UNL     1       7.409   4.820  16.687  0.00  0.00    +0.000 A 
ATOM     15  C   UNL     1       6.416   4.422  17.584  0.00  0.00    +0.000 A 
ENDBRANCH   7  10
BRANCH   3  16
ATOM     16  O   UNL     1       0.837   3.228  21.220  0.00  0.00    +0.000 OA
ATOM     17  H   UNL     1       1.089   2.333  20.930  0.00  0.00    +0.000 HD
ENDBRANCH   3  16
BRANCH   1  18
ATOM     18  S   UNL     1       1.994   7.870  19.931  0.00  0.00    +0.000 S 
BRANCH  18  19
ATOM     19  C   UNL     1       0.891   7.920  21.392  0.00  0.00    +0.000 C 
BRANCH  19  21
ATOM     20  O   UNL     1       1.923   9.491  22.931  0.00  0.00    +0.000 OA
ATOM     21  C   UNL     1       1.010   9.230  22.156  0.00  0.00    +0.000 C 
BRANCH  21  22
ATOM     22  C   UNL     1      -0.061  10.257  21.991  0.00  0.00    +0.000 A 
ATOM     23  C   UNL     1      -0.278  10.950  20.795  0.00  0.00    +0.000 A 
ATOM     24  C   UNL     1      -1.277  11.931  20.731  0.00  0.00    +0.000 A 
ATOM     25  C   UNL     1      -2.056  12.214  21.854  0.00  0.00    +0.000 A 
ATOM     26 CL   UNL     1      -3.284  13.416  21.765  0.00  0.00    +0.000 Cl
ATOM     27  C   UNL     1      -1.848  11.526  23.046  0.00  0.00    +0.000 A 
ATOM     28  C   UNL     1      -0.848  10.553  23.114  0.00  0.00    +0.000 A 
ENDBRANCH  21  22
ENDBRANCH  19  21
ENDBRANCH  18  19
ENDBRANCH   1  18
TORSDOF 6
ENDMDL
MODEL 7
REMARK VINA RESULT:      -8.0      4.332      7.563
REMARK  Name = 
REMARK  6 active torsions:
REMARK  status: ('A' for Active; 'I' for Inactive)
REMARK    1  A    between atoms: C_2  and  C_3
REMARK    2  A    between atoms: C_2  and  C_21
REMARK    3  A    between atoms: C_3  and  S_4
REMARK    4  A    between atoms: S_4  and  C_5
REMARK    5  A    between atoms: C_7  and  O_8
REMARK    6  A    between atoms: N_12  and  C_13
REMARK                            x       y       z     vdW  Elec       q    Type
REMARK                         _______ _______ _______ _____ _____    ______ ____
ROOT
ATOM      1  C   UNL     1       5.753   5.421  18.053  0.00  0.00    +0.000 A 
ATOM      2  N   UNL     1       5.870   4.134  18.450  0.00  0.00    +0.000 NA
ATOM      3  C   UNL     1       4.920   3.650  19.258  0.00  0.00    +0.000 A 
ATOM      4  C   UNL     1       3.844   4.419  19.650  0.00  0.00    +0.000 A 
ATOM      5  C   UNL     1       2.684   4.284  20.422  0.00  0.00    +0.000 A 
ATOM      6  N   UNL     1       1.969   5.407  20.471  0.00  0.00    +0.000 NA
ATOM      7  N   UNL     1       2.643   6.280  19.657  0.00  0.00    +0.000 N 
ATOM      8  C   UNL     1       3.817   5.713  19.167  0.00  0.00    +0.000 A 
ATOM      9  N   UNL     1       4.753   6.264  18.363  0.00  0.00    +0.000 NA
ENDROOT
BRANCH   7  10
ATOM     10  C   UNL     1       2.095   7.566  19.389  0.00  0.00    +0.000 A 
ATOM     11  C   UNL     1       2.231   8.115  18.104  0.00  0.00    +0.000 A 
ATOM     12  C   UNL     1       1.720   9.383  17.825  0.00  0.00    +0.000 A 
ATOM     13  C   UNL     1       1.090  10.115  18.826  0.00  0.00    +0.000 A 
ATOM     14  C   UNL     1       0.958   9.582  20.105  0.00  0.00    +0.000 A 
ATOM     15  C   UNL     1       1.452   8.307  20.386  0.00  0.00    +0.000 A 
ENDBRANCH   7  10
BRANCH   3  16
ATOM     16  O   UNL     1       5.068   2.346  19.634  0.00  0.00    +0.000 OA
ATOM     17  H   UNL     1       4.416   1.911  19.056  0.00  0.00    +0.000 HD
ENDBRANCH   3  16
BRANCH   1  18
ATOM     18  S   UNL     1       6.943   5.986  16.845  0.00  0.00    +0.000 S 
BRANCH  18  19
ATOM     19  C   UNL     1       7.008   7.778  17.217  0.00  0.00    +0.000 C 
BRANCH  19  21
ATOM     20  O   UNL     1       8.612   7.288  18.974  0.00  0.00    +0.000 OA
ATOM     21  C   UNL     1       8.086   8.113  18.237  0.00  0.00    +0.000 C 
BRANCH  21  22
ATOM     22  C   UNL     1       8.515   9.535  18.386  0.00  0.00    +0.000 A 
ATOM     23  C   UNL     1       8.105  10.552  17.518  0.00  0.00    +0.000 A 
ATOM     24  C   UNL     1       8.586  11.857  17.699  0.00  0.00    +0.000 A 
ATOM     25  C   UNL     1       9.467  12.142  18.744  0.00  0.00    +0.000 A 
ATOM     26 CL   UNL     1      10.047  13.746  18.962  0.00  0.00    +0.000 Cl
ATOM     27  C   UNL     1       9.875  11.135  19.613  0.00  0.00    +0.000 A 
ATOM     28  C   UNL     1       9.403   9.833  19.430  0.00  0.00    +0.000 A 
ENDBRANCH  21  22
ENDBRANCH  19  21
ENDBRANCH  18  19
ENDBRANCH   1  18
TORSDOF 6
ENDMDL
MODEL 8
REMARK VINA RESULT:      -7.9      1.020      1.423
REMARK  Name = 
REMARK  6 active torsions:
REMARK  status: ('A' for Active; 'I' for Inactive)
REMARK    1  A    between atoms: C_2  and  C_3
REMARK    2  A    between atoms: C_2  and  C_21
REMARK    3  A    between atoms: C_3  and  S_4
REMARK    4  A    between atoms: S_4  and  C_5
REMARK    5  A    between atoms: C_7  and  O_8
REMARK    6  A    between atoms: N_12  and  C_13
REMARK                            x       y       z     vdW  Elec       q    Type
REMARK                         _______ _______ _______ _____ _____    ______ ____
ROOT
ATOM      1  C   UNL     1       1.686   6.064  20.331  0.00  0.00    +0.000 A 
ATOM      2  N   UNL     1       1.063   4.962  20.803  0.00  0.00    +0.000 NA
ATOM      3  C   UNL     1       1.695   3.791  20.669  0.00  0.00    +0.000 A 
ATOM      4  C   UNL     1       2.948   3.708  20.099  0.00  0.00    +0.000 A 
ATOM      5  C   UNL     1       3.909   2.729  19.815  0.00  0.00    +0.000 A 
ATOM      6  N   UNL     1       4.989   3.232  19.219  0.00  0.00    +0.000 NA
ATOM      7  N   UNL     1       4.758   4.582  19.169  0.00  0.00    +0.000 N 
ATOM      8  C   UNL     1       3.499   4.900  19.670  0.00  0.00    +0.000 A 
ATOM      9  N   UNL     1       2.904   6.110  19.763  0.00  0.00    +0.000 NA
ENDROOT
BRANCH   7  10
ATOM     10  C   UNL     1       5.770   5.457  18.681  0.00  0.00    +0.000 A 
ATOM     11  C   UNL     1       7.003   5.519  19.348  0.00  0.00    +0.000 A 
ATOM     12  C   UNL     1       8.001   6.385  18.900  0.00  0.00    +0.000 A 
ATOM     13  C   UNL     1       7.769   7.203  17.798  0.00  0.00    +0.000 A 
ATOM     14  C   UNL     1       6.545   7.154  17.135  0.00  0.00    +0.000 A 
ATOM     15  C   UNL     1       5.550   6.277  17.569  0.00  0.00    +0.000 A 
ENDBRANCH   7  10
BRANCH   3  16
ATOM     16  O   UNL     1       1.038   2.700  21.162  0.00  0.00    +0.000 OA
ATOM     17  H   UNL     1       1.422   2.640  22.055  0.00  0.00    +0.000 HD
ENDBRANCH   3  16
BRANCH   1  18
ATOM     18  S   UNL     1       0.894   7.628  20.674  0.00  0.00    +0.000 S 
BRANCH  18  19
ATOM     19  C   UNL     1       1.987   8.790  19.775  0.00  0.00    +0.000 C 
BRANCH  19  21
ATOM     20  O   UNL     1       1.883   9.153  17.375  0.00  0.00    +0.000 OA
ATOM     21  C   UNL     1       1.362   9.279  18.477  0.00  0.00    +0.000 C 
BRANCH  21  22
ATOM     22  C   UNL     1       0.049   9.988  18.536  0.00  0.00    +0.000 A 
ATOM     23  C   UNL     1      -0.262  10.940  19.512  0.00  0.00    +0.000 A 
ATOM     24  C   UNL     1      -1.532  11.533  19.526  0.00  0.00    +0.000 A 
ATOM     25  C   UNL     1      -2.482  11.179  18.566  0.00  0.00    +0.000 A 
ATOM     26 CL   UNL     1      -4.037  11.915  18.587  0.00  0.00    +0.000 Cl
ATOM     27  C   UNL     1      -2.177  10.236  17.590  0.00  0.00    +0.000 A 
ATOM     28  C   UNL     1      -0.915   9.639  17.579  0.00  0.00    +0.000 A 
ENDBRANCH  21  22
ENDBRANCH  19  21
ENDBRANCH  18  19
ENDBRANCH   1  18
TORSDOF 6
ENDMDL
MODEL 9
REMARK VINA RESULT:      -7.8      3.818      5.861
REMARK  Name = 
REMARK  6 active torsions:
REMARK  status: ('A' for Active; 'I' for Inactive)
REMARK    1  A    between atoms: C_2  and  C_3
REMARK    2  A    between atoms: C_2  and  C_21
REMARK    3  A    between atoms: C_3  and  S_4
REMARK    4  A    between atoms: S_4  and  C_5
REMARK    5  A    between atoms: C_7  and  O_8
REMARK    6  A    between atoms: N_12  and  C_13
REMARK                            x       y       z     vdW  Elec       q    Type
REMARK                         _______ _______ _______ _____ _____    ______ ____
ROOT
ATOM      1  C   UNL     1       4.781   3.165  18.167  0.00  0.00    +0.000 A 
ATOM      2  N   UNL     1       5.261   3.903  19.191  0.00  0.00    +0.000 NA
ATOM      3  C   UNL     1       6.180   4.833  18.904  0.00  0.00    +0.000 A 
ATOM      4  C   UNL     1       6.602   5.054  17.609  0.00  0.00    +0.000 A 
ATOM      5  C   UNL     1       7.477   5.905  16.923  0.00  0.00    +0.000 A 
ATOM      6  N   UNL     1       7.501   5.663  15.613  0.00  0.00    +0.000 NA
ATOM      7  N   UNL     1       6.571   4.673  15.428  0.00  0.00    +0.000 N 
ATOM      8  C   UNL     1       6.028   4.255  16.640  0.00  0.00    +0.000 A 
ATOM      9  N   UNL     1       5.110   3.290  16.869  0.00  0.00    +0.000 NA
ENDROOT
BRANCH   7  10
ATOM     10  C   UNL     1       6.255   4.235  14.111  0.00  0.00    +0.000 A 
ATOM     11  C   UNL     1       7.259   4.227  13.131  0.00  0.00    +0.000 A 
ATOM     12  C   UNL     1       6.966   3.821  11.828  0.00  0.00    +0.000 A 
ATOM     13  C   UNL     1       5.670   3.439  11.493  0.00  0.00    +0.000 A 
ATOM     14  C   UNL     1       4.666   3.452  12.458  0.00  0.00    +0.000 A 
ATOM     15  C   UNL     1       4.957   3.840  13.766  0.00  0.00    +0.000 A 
ENDBRANCH   7  10
BRANCH   3  16
ATOM     16  O   UNL     1       6.639   5.563  19.962  0.00  0.00    +0.000 OA
ATOM     17  H   UNL     1       6.276   5.054  20.710  0.00  0.00    +0.000 HD
ENDBRANCH   3  16
BRANCH   1  18
ATOM     18  S   UNL     1       3.439   2.051  18.557  0.00  0.00    +0.000 S 
BRANCH  18  19
ATOM     19  C   UNL     1       2.026   3.212  18.657  0.00  0.00    +0.000 C 
BRANCH  19  21
ATOM     20  O   UNL     1       2.294   3.871  20.980  0.00  0.00    +0.000 OA
ATOM     21  C   UNL     1       2.174   4.199  19.805  0.00  0.00    +0.000 C 
BRANCH  21  22
ATOM     22  C   UNL     1       2.139   5.661  19.504  0.00  0.00    +0.000 A 
ATOM     23  C   UNL     1       1.763   6.626  20.444  0.00  0.00    +0.000 A 
ATOM     24  C   UNL     1       1.714   7.977  20.072  0.00  0.00    +0.000 A 
ATOM     25  C   UNL     1       2.043   8.359  18.771  0.00  0.00    +0.000 A 
ATOM     26 CL   UNL     1       1.986  10.020  18.325  0.00  0.00    +0.000 Cl
ATOM     27  C   UNL     1       2.423   7.404  17.833  0.00  0.00    +0.000 A 
ATOM     28  C   UNL     1       2.465   6.057  18.199  0.00  0.00    +0.000 A 
ENDBRANCH  21  22
ENDBRANCH  19  21
ENDBRANCH  18  19
ENDBRANCH   1  18
TORSDOF 6
ENDMDL
