MODEL 1
REMARK VINA RESULT:      -8.0      0.000      0.000
REMARK  Name = 
REMARK  12 active torsions:
REMARK  status: ('A' for Active; 'I' for Inactive)
REMARK    1  A    between atoms: C_6  and  C_7
REMARK    2  A    between atoms: C_11  and  O_12
REMARK    3  A    between atoms: O_12  and  C_13
REMARK    4  A    between atoms: C_13  and  C_14
REMARK    5  A    between atoms: C_14  and  C_15
REMARK    6  A    between atoms: C_15  and  C_16
REMARK    7  A    between atoms: C_16  and  C_17
REMARK    8  A    between atoms: C_17  and  C_18
REMARK    9  A    between atoms: N_24  and  C1*_25
REMARK   10  A    between atoms: C3*_27  and  O3*_28
REMARK   11  A    between atoms: C4*_29  and  C5*_30
REMARK   12  A    between atoms: C5*_30  and  O5*_31
REMARK                            x       y       z     vdW  Elec       q    Type
REMARK                         _______ _______ _______ _____ _____    ______ ____
ROOT
ATOM      1  O   UNL     1       3.290   2.759  19.866  0.00  0.00    +0.000 OA
ATOM      2  C   UNL     1       3.069   3.964  19.793  0.00  0.00    +0.000 A 
ATOM      3  N   UNL     1       2.195   4.574  20.687  0.00  0.00    +0.000 NA
ATOM      4  C   UNL     1       2.000   5.831  20.524  0.00  0.00    +0.000 A 
ATOM      5  O   UNL     1       1.171   6.608  21.304  0.00  0.00    +0.000 OA
ATOM      6  C   UNL     1       1.256   7.903  20.722  0.00  0.00    +0.000 A 
ATOM      7  C   UNL     1       2.083   7.999  19.673  0.00  0.00    +0.000 A 
ATOM      8  C   UNL     1       2.584   6.696  19.507  0.00  0.00    +0.000 A 
ATOM      9  C   UNL     1       3.428   6.106  18.674  0.00  0.00    +0.000 A 
ATOM     10  N   UNL     1       3.698   4.751  18.807  0.00  0.00    +0.000 N 
ENDROOT
BRANCH   6  11
ATOM     11  C   UNL     1       0.443   8.984  21.302  0.00  0.00    +0.000 A 
ATOM     12  C   UNL     1       0.250   9.083  22.684  0.00  0.00    +0.000 A 
ATOM     13  C   UNL     1      -0.488  10.142  23.223  0.00  0.00    +0.000 A 
ATOM     14  C   UNL     1      -1.104  11.067  22.380  0.00  0.00    +0.000 A 
ATOM     15  C   UNL     1      -0.986  10.941  21.000  0.00  0.00    +0.000 A 
ATOM     16  C   UNL     1      -0.173   9.934  20.469  0.00  0.00    +0.000 A 
BRANCH  15  17
ATOM     17  O   UNL     1      -1.682  11.857  20.255  0.00  0.00    +0.000 OA
BRANCH  17  18
ATOM     18  C   UNL     1      -0.974  12.354  19.115  0.00  0.00    +0.000 C 
BRANCH  18  19
ATOM     19  C   UNL     1      -1.714  11.943  17.846  0.00  0.00    +0.000 C 
BRANCH  19  20
ATOM     20  C   UNL     1      -2.075  10.460  17.904  0.00  0.00    +0.000 C 
BRANCH  20  21
ATOM     21  C   UNL     1      -3.470  10.203  17.345  0.00  0.00    +0.000 C 
BRANCH  21  22
ATOM     22  C   UNL     1      -3.754  11.096  16.141  0.00  0.00    +0.000 C 
BRANCH  22  23
ATOM     23  C   UNL     1      -3.370  10.406  14.846  0.00  0.00    +0.000 C 
ATOM     24  F   UNL     1      -2.743   9.237  15.146  0.00  0.00    +0.000 F 
ENDBRANCH  22  23
ENDBRANCH  21  22
ENDBRANCH  20  21
ENDBRANCH  19  20
ENDBRANCH  18  19
ENDBRANCH  17  18
ENDBRANCH  15  17
ENDBRANCH   6  11
BRANCH  10  25
ATOM     25  C1* UNL     1       4.673   4.095  17.932  0.00  0.00    +0.000 C 
ATOM     26  C2* UNL     1       4.772   4.680  16.528  0.00  0.00    +0.000 C 
ATOM     27  C3* UNL     1       6.207   4.385  16.147  0.00  0.00    +0.000 C 
ATOM     28  C4* UNL     1       6.958   4.472  17.475  0.00  0.00    +0.000 C 
ATOM     29  O4* UNL     1       5.994   4.183  18.514  0.00  0.00    +0.000 OA
BRANCH  27  30
ATOM     30  O3* UNL     1       6.292   3.074  15.590  0.00  0.00    +0.000 OA
ATOM     31  H3* UNL     1       5.844   3.054  14.725  0.00  0.00    +0.000 HD
ENDBRANCH  27  30
BRANCH  28  32
ATOM     32  C5* UNL     1       7.542   5.867  17.719  0.00  0.00    +0.000 C 
BRANCH  32  33
ATOM     33  O5* UNL     1       7.207   6.763  16.658  0.00  0.00    +0.000 OA
ATOM     34  H5* UNL     1       6.234   6.798  16.606  0.00  0.00    +0.000 HD
ENDBRANCH  32  33
ENDBRANCH  28  32
ENDBRANCH  10  25
TORSDOF 12
ENDMDL
MODEL 2
REMARK VINA RESULT:      -7.8      1.153      1.308
REMARK  Name = 
REMARK  12 active torsions:
REMARK  status: ('A' for Active; 'I' for Inactive)
REMARK    1  A    between atoms: C_6  and  C_7
REMARK    2  A    between atoms: C_11  and  O_12
REMARK    3  A    between atoms: O_12  and  C_13
REMARK    4  A    between atoms: C_13  and  C_14
REMARK    5  A    between atoms: C_14  and  C_15
REMARK    6  A    between atoms: C_15  and  C_16
REMARK    7  A    between atoms: C_16  and  C_17
REMARK    8  A    between atoms: C_17  and  C_18
REMARK    9  A    between atoms: N_24  and  C1*_25
REMARK   10  A    between atoms: C3*_27  and  O3*_28
REMARK   11  A    between atoms: C4*_29  and  C5*_30
REMARK   12  A    between atoms: C5*_30  and  O5*_31
REMARK                            x       y       z     vdW  Elec       q    Type
REMARK                         _______ _______ _______ _____ _____    ______ ____
ROOT
ATOM      1  O   UNL     1       3.408   3.447  19.142  0.00  0.00    +0.000 OA
ATOM      2  C   UNL     1       3.108   4.636  19.143  0.00  0.00    +0.000 A 
ATOM      3  N   UNL     1       2.398   5.181  20.208  0.00  0.00    +0.000 NA
ATOM      4  C   UNL     1       2.102   6.426  20.116  0.00  0.00    +0.000 A 
ATOM      5  O   UNL     1       1.403   7.142  21.065  0.00  0.00    +0.000 OA
ATOM      6  C   UNL     1       1.295   8.447  20.508  0.00  0.00    +0.000 A 
ATOM      7  C   UNL     1       1.888   8.605  19.317  0.00  0.00    +0.000 A 
ATOM      8  C   UNL     1       2.420   7.338  19.024  0.00  0.00    +0.000 A 
ATOM      9  C   UNL     1       3.112   6.809  18.026  0.00  0.00    +0.000 A 
ATOM     10  N   UNL     1       3.481   5.472  18.070  0.00  0.00    +0.000 N 
ENDROOT
BRANCH   6  11
ATOM     11  C   UNL     1       0.554   9.469  21.264  0.00  0.00    +0.000 A 
ATOM     12  C   UNL     1      -0.241   9.124  22.362  0.00  0.00    +0.000 A 
ATOM     13  C   UNL     1      -0.902  10.112  23.098  0.00  0.00    +0.000 A 
ATOM     14  C   UNL     1      -0.837  11.446  22.695  0.00  0.00    +0.000 A 
ATOM     15  C   UNL     1      -0.114  11.799  21.561  0.00  0.00    +0.000 A 
ATOM     16  C   UNL     1       0.619  10.820  20.882  0.00  0.00    +0.000 A 
BRANCH  15  17
ATOM     17  O   UNL     1      -0.165  13.122  21.207  0.00  0.00    +0.000 OA
BRANCH  17  18
ATOM     18  C   UNL     1      -0.538  13.357  19.845  0.00  0.00    +0.000 C 
BRANCH  18  19
ATOM     19  C   UNL     1      -1.848  12.633  19.551  0.00  0.00    +0.000 C 
BRANCH  19  20
ATOM     20  C   UNL     1      -1.788  11.974  18.175  0.00  0.00    +0.000 C 
BRANCH  20  21
ATOM     21  C   UNL     1      -2.022  10.470  18.265  0.00  0.00    +0.000 C 
BRANCH  21  22
ATOM     22  C   UNL     1      -1.953   9.818  16.887  0.00  0.00    +0.000 C 
BRANCH  22  23
ATOM     23  C   UNL     1      -2.694  10.645  15.855  0.00  0.00    +0.000 C 
ATOM     24  F   UNL     1      -3.481   9.816  15.117  0.00  0.00    +0.000 F 
ENDBRANCH  22  23
ENDBRANCH  21  22
ENDBRANCH  20  21
ENDBRANCH  19  20
ENDBRANCH  18  19
ENDBRANCH  17  18
ENDBRANCH  15  17
ENDBRANCH   6  11
BRANCH  10  25
ATOM     25  C1* UNL     1       4.297   4.887  17.003  0.00  0.00    +0.000 C 
ATOM     26  C2* UNL     1       5.006   5.898  16.110  0.00  0.00    +0.000 C 
ATOM     27  C3* UNL     1       6.235   5.137  15.662  0.00  0.00    +0.000 C 
ATOM     28  C4* UNL     1       6.563   4.244  16.857  0.00  0.00    +0.000 C 
ATOM     29  O4* UNL     1       5.322   4.043  17.574  0.00  0.00    +0.000 OA
BRANCH  27  30
ATOM     30  O3* UNL     1       5.921   4.361  14.506  0.00  0.00    +0.000 OA
ATOM     31  H3* UNL     1       5.034   4.598  14.182  0.00  0.00    +0.000 HD
ENDBRANCH  27  30
BRANCH  28  32
ATOM     32  C5* UNL     1       7.579   4.892  17.802  0.00  0.00    +0.000 C 
BRANCH  32  33
ATOM     33  O5* UNL     1       7.129   4.852  19.157  0.00  0.00    +0.000 OA
ATOM     34  H5* UNL     1       6.618   4.029  19.267  0.00  0.00    +0.000 HD
ENDBRANCH  32  33
ENDBRANCH  28  32
ENDBRANCH  10  25
TORSDOF 12
ENDMDL
MODEL 3
REMARK VINA RESULT:      -7.7      1.835      2.011
REMARK  Name = 
REMARK  12 active torsions:
REMARK  status: ('A' for Active; 'I' for Inactive)
REMARK    1  A    between atoms: C_6  and  C_7
REMARK    2  A    between atoms: C_11  and  O_12
REMARK    3  A    between atoms: O_12  and  C_13
REMARK    4  A    between atoms: C_13  and  C_14
REMARK    5  A    between atoms: C_14  and  C_15
REMARK    6  A    between atoms: C_15  and  C_16
REMARK    7  A    between atoms: C_16  and  C_17
REMARK    8  A    between atoms: C_17  and  C_18
REMARK    9  A    between atoms: N_24  and  C1*_25
REMARK   10  A    between atoms: C3*_27  and  O3*_28
REMARK   11  A    between atoms: C4*_29  and  C5*_30
REMARK   12  A    between atoms: C5*_30  and  O5*_31
REMARK                            x       y       z     vdW  Elec       q    Type
REMARK                         _______ _______ _______ _____ _____    ______ ____
ROOT
ATOM      1  O   UNL     1       3.133   2.951  19.903  0.00  0.00    +0.000 OA
ATOM      2  C   UNL     1       2.931   4.158  19.819  0.00  0.00    +0.000 A 
ATOM      3  N   UNL     1       2.054   4.787  20.696  0.00  0.00    +0.000 NA
ATOM      4  C   UNL     1       1.880   6.046  20.521  0.00  0.00    +0.000 A 
ATOM      5  O   UNL     1       1.051   6.841  21.284  0.00  0.00    +0.000 OA
ATOM      6  C   UNL     1       1.163   8.130  20.694  0.00  0.00    +0.000 A 
ATOM      7  C   UNL     1       2.008   8.207  19.657  0.00  0.00    +0.000 A 
ATOM      8  C   UNL     1       2.492   6.896  19.507  0.00  0.00    +0.000 A 
ATOM      9  C   UNL     1       3.339   6.287  18.691  0.00  0.00    +0.000 A 
ATOM     10  N   UNL     1       3.587   4.929  18.837  0.00  0.00    +0.000 N 
ENDROOT
BRANCH   6  11
ATOM     11  C   UNL     1       0.359   9.227  21.255  0.00  0.00    +0.000 A 
ATOM     12  C   UNL     1      -0.130   9.171  22.565  0.00  0.00    +0.000 A 
ATOM     13  C   UNL     1      -0.855  10.241  23.099  0.00  0.00    +0.000 A 
ATOM     14  C   UNL     1      -1.165  11.343  22.302  0.00  0.00    +0.000 A 
ATOM     15  C   UNL     1      -0.753  11.383  20.974  0.00  0.00    +0.000 A 
ATOM     16  C   UNL     1       0.049  10.352  20.472  0.00  0.00    +0.000 A 
BRANCH  15  17
ATOM     17  O   UNL     1      -1.164  12.474  20.254  0.00  0.00    +0.000 OA
BRANCH  17  18
ATOM     18  C   UNL     1      -2.474  12.354  19.691  0.00  0.00    +0.000 C 
BRANCH  18  19
ATOM     19  C   UNL     1      -2.369  11.738  18.299  0.00  0.00    +0.000 C 
BRANCH  19  20
ATOM     20  C   UNL     1      -3.755  11.358  17.785  0.00  0.00    +0.000 C 
BRANCH  20  21
ATOM     21  C   UNL     1      -4.856  11.948  18.659  0.00  0.00    +0.000 C 
BRANCH  21  22
ATOM     22  C   UNL     1      -6.122  11.099  18.598  0.00  0.00    +0.000 C 
BRANCH  22  23
ATOM     23  C   UNL     1      -7.341  11.905  19.002  0.00  0.00    +0.000 C 
ATOM     24  F   UNL     1      -7.785  11.448  20.204  0.00  0.00    +0.000 F 
ENDBRANCH  22  23
ENDBRANCH  21  22
ENDBRANCH  20  21
ENDBRANCH  19  20
ENDBRANCH  18  19
ENDBRANCH  17  18
ENDBRANCH  15  17
ENDBRANCH   6  11
BRANCH  10  25
ATOM     25  C1* UNL     1       4.564   4.253  17.981  0.00  0.00    +0.000 C 
ATOM     26  C2* UNL     1       4.843   4.946  16.652  0.00  0.00    +0.000 C 
ATOM     27  C3* UNL     1       6.269   4.534  16.357  0.00  0.00    +0.000 C 
ATOM     28  C4* UNL     1       6.907   4.422  17.742  0.00  0.00    +0.000 C 
ATOM     29  O4* UNL     1       5.831   4.147  18.670  0.00  0.00    +0.000 OA
BRANCH  27  30
ATOM     30  O3* UNL     1       6.272   3.276  15.683  0.00  0.00    +0.000 OA
ATOM     31  H3* UNL     1       6.925   2.683  16.096  0.00  0.00    +0.000 HD
ENDBRANCH  27  30
BRANCH  28  32
ATOM     32  C5* UNL     1       7.602   5.720  18.164  0.00  0.00    +0.000 C 
BRANCH  32  33
ATOM     33  O5* UNL     1       8.113   5.627  19.495  0.00  0.00    +0.000 OA
ATOM     34  H5* UNL     1       8.758   6.349  19.608  0.00  0.00    +0.000 HD
ENDBRANCH  32  33
ENDBRANCH  28  32
ENDBRANCH  10  25
TORSDOF 12
ENDMDL
MODEL 4
REMARK VINA RESULT:      -7.7      3.253      9.141
REMARK  Name = 
REMARK  12 active torsions:
REMARK  status: ('A' for Active; 'I' for Inactive)
REMARK    1  A    between atoms: C_6  and  C_7
REMARK    2  A    between atoms: C_11  and  O_12
REMARK    3  A    between atoms: O_12  and  C_13
REMARK    4  A    between atoms: C_13  and  C_14
REMARK    5  A    between atoms: C_14  and  C_15
REMARK    6  A    between atoms: C_15  and  C_16
REMARK    7  A    between atoms: C_16  and  C_17
REMARK    8  A    between atoms: C_17  and  C_18
REMARK    9  A    between atoms: N_24  and  C1*_25
REMARK   10  A    between atoms: C3*_27  and  O3*_28
REMARK   11  A    between atoms: C4*_29  and  C5*_30
REMARK   12  A    between atoms: C5*_30  and  O5*_31
REMARK                            x       y       z     vdW  Elec       q    Type
REMARK                         _______ _______ _______ _____ _____    ______ ____
ROOT
ATOM      1  O   UNL     1       0.013   8.654  21.558  0.00  0.00    +0.000 OA
ATOM      2  C   UNL     1       0.757   8.474  20.599  0.00  0.00    +0.000 A 
ATOM      3  N   UNL     1       1.679   7.433  20.611  0.00  0.00    +0.000 NA
ATOM      4  C   UNL     1       2.436   7.332  19.580  0.00  0.00    +0.000 A 
ATOM      5  O   UNL     1       3.409   6.371  19.407  0.00  0.00    +0.000 OA
ATOM      6  C   UNL     1       3.993   6.687  18.149  0.00  0.00    +0.000 A 
ATOM      7  C   UNL     1       3.448   7.737  17.520  0.00  0.00    +0.000 A 
ATOM      8  C   UNL     1       2.446   8.184  18.398  0.00  0.00    +0.000 A 
ATOM      9  C   UNL     1       1.550   9.160  18.393  0.00  0.00    +0.000 A 
ATOM     10  N   UNL     1       0.687   9.314  19.469  0.00  0.00    +0.000 N 
ENDROOT
BRANCH   6  11
ATOM     11  C   UNL     1       5.115   5.862  17.674  0.00  0.00    +0.000 A 
ATOM     12  C   UNL     1       6.324   5.809  18.375  0.00  0.00    +0.000 A 
ATOM     13  C   UNL     1       7.364   4.985  17.935  0.00  0.00    +0.000 A 
ATOM     14  C   UNL     1       7.234   4.267  16.746  0.00  0.00    +0.000 A 
ATOM     15  C   UNL     1       6.068   4.366  15.994  0.00  0.00    +0.000 A 
ATOM     16  C   UNL     1       4.996   5.120  16.486  0.00  0.00    +0.000 A 
BRANCH  15  17
ATOM     17  O   UNL     1       6.060   3.678  14.809  0.00  0.00    +0.000 OA
BRANCH  17  18
ATOM     18  C   UNL     1       5.479   4.392  13.713  0.00  0.00    +0.000 C 
BRANCH  18  19
ATOM     19  C   UNL     1       5.952   3.771  12.403  0.00  0.00    +0.000 C 
BRANCH  19  20
ATOM     20  C   UNL     1       5.161   2.498  12.107  0.00  0.00    +0.000 C 
BRANCH  20  21
ATOM     21  C   UNL     1       4.345   2.633  10.826  0.00  0.00    +0.000 C 
BRANCH  21  22
ATOM     22  C   UNL     1       3.618   3.973  10.775  0.00  0.00    +0.000 C 
BRANCH  22  23
ATOM     23  C   UNL     1       2.948   4.180   9.430  0.00  0.00    +0.000 C 
ATOM     24  F   UNL     1       1.919   5.055   9.587  0.00  0.00    +0.000 F 
ENDBRANCH  22  23
ENDBRANCH  21  22
ENDBRANCH  20  21
ENDBRANCH  19  20
ENDBRANCH  18  19
ENDBRANCH  17  18
ENDBRANCH  15  17
ENDBRANCH   6  11
BRANCH  10  25
ATOM     25  C1* UNL     1      -0.347  10.351  19.453  0.00  0.00    +0.000 C 
ATOM     26  C2* UNL     1       0.001  11.593  18.643  0.00  0.00    +0.000 C 
ATOM     27  C3* UNL     1      -1.359  12.088  18.196  0.00  0.00    +0.000 C 
ATOM     28  C4* UNL     1      -2.171  10.805  18.026  0.00  0.00    +0.000 C 
ATOM     29  O4* UNL     1      -1.570   9.817  18.895  0.00  0.00    +0.000 OA
BRANCH  27  30
ATOM     30  O3* UNL     1      -1.918  12.924  19.208  0.00  0.00    +0.000 OA
ATOM     31  H3* UNL     1      -2.854  12.694  19.345  0.00  0.00    +0.000 HD
ENDBRANCH  27  30
BRANCH  28  32
ATOM     32  C5* UNL     1      -2.133  10.283  16.586  0.00  0.00    +0.000 C 
BRANCH  32  33
ATOM     33  O5* UNL     1      -2.520  11.295  15.655  0.00  0.00    +0.000 OA
ATOM     34  H5* UNL     1      -1.705  11.637  15.245  0.00  0.00    +0.000 HD
ENDBRANCH  32  33
ENDBRANCH  28  32
ENDBRANCH  10  25
TORSDOF 12
ENDMDL
MODEL 5
REMARK VINA RESULT:      -7.7      2.303      3.148
REMARK  Name = 
REMARK  12 active torsions:
REMARK  status: ('A' for Active; 'I' for Inactive)
REMARK    1  A    between atoms: C_6  and  C_7
REMARK    2  A    between atoms: C_11  and  O_12
REMARK    3  A    between atoms: O_12  and  C_13
REMARK    4  A    between atoms: C_13  and  C_14
REMARK    5  A    between atoms: C_14  and  C_15
REMARK    6  A    between atoms: C_15  and  C_16
REMARK    7  A    between atoms: C_16  and  C_17
REMARK    8  A    between atoms: C_17  and  C_18
REMARK    9  A    between atoms: N_24  and  C1*_25
REMARK   10  A    between atoms: C3*_27  and  O3*_28
REMARK   11  A    between atoms: C4*_29  and  C5*_30
REMARK   12  A    between atoms: C5*_30  and  O5*_31
REMARK                            x       y       z     vdW  Elec       q    Type
REMARK                         _______ _______ _______ _____ _____    ______ ____
ROOT
ATOM      1  O   UNL     1       3.370   3.002  19.927  0.00  0.00    +0.000 OA
ATOM      2  C   UNL     1       3.123   4.199  19.820  0.00  0.00    +0.000 A 
ATOM      3  N   UNL     1       2.249   4.819  20.706  0.00  0.00    +0.000 NA
ATOM      4  C   UNL     1       2.025   6.066  20.506  0.00  0.00    +0.000 A 
ATOM      5  O   UNL     1       1.190   6.850  21.274  0.00  0.00    +0.000 OA
ATOM      6  C   UNL     1       1.240   8.128  20.650  0.00  0.00    +0.000 A 
ATOM      7  C   UNL     1       2.052   8.207  19.587  0.00  0.00    +0.000 A 
ATOM      8  C   UNL     1       2.578   6.911  19.455  0.00  0.00    +0.000 A 
ATOM      9  C   UNL     1       3.423   6.312  18.630  0.00  0.00    +0.000 A 
ATOM     10  N   UNL     1       3.723   4.967  18.800  0.00  0.00    +0.000 N 
ENDROOT
BRANCH   6  11
ATOM     11  C   UNL     1       0.413   9.209  21.207  0.00  0.00    +0.000 A 
ATOM     12  C   UNL     1      -0.103   9.131  22.504  0.00  0.00    +0.000 A 
ATOM     13  C   UNL     1      -0.850  10.187  23.036  0.00  0.00    +0.000 A 
ATOM     14  C   UNL     1      -1.153  11.298  22.248  0.00  0.00    +0.000 A 
ATOM     15  C   UNL     1      -0.713  11.359  20.929  0.00  0.00    +0.000 A 
ATOM     16  C   UNL     1       0.110  10.342  20.432  0.00  0.00    +0.000 A 
BRANCH  15  17
ATOM     17  O   UNL     1      -1.118  12.455  20.215  0.00  0.00    +0.000 OA
BRANCH  17  18
ATOM     18  C   UNL     1      -0.915  12.350  18.802  0.00  0.00    +0.000 C 
BRANCH  18  19
ATOM     19  C   UNL     1      -0.130  13.565  18.316  0.00  0.00    +0.000 C 
BRANCH  19  20
ATOM     20  C   UNL     1       1.369  13.281  18.371  0.00  0.00    +0.000 C 
BRANCH  20  21
ATOM     21  C   UNL     1       2.101  14.307  19.229  0.00  0.00    +0.000 C 
BRANCH  21  22
ATOM     22  C   UNL     1       3.512  14.556  18.705  0.00  0.00    +0.000 C 
BRANCH  22  23
ATOM     23  C   UNL     1       3.492  15.467  17.493  0.00  0.00    +0.000 C 
ATOM     24  F   UNL     1       2.562  16.438  17.695  0.00  0.00    +0.000 F 
ENDBRANCH  22  23
ENDBRANCH  21  22
ENDBRANCH  20  21
ENDBRANCH  19  20
ENDBRANCH  18  19
ENDBRANCH  17  18
ENDBRANCH  15  17
ENDBRANCH   6  11
BRANCH  10  25
ATOM     25  C1* UNL     1       4.699   4.305  17.933  0.00  0.00    +0.000 C 
ATOM     26  C2* UNL     1       4.773   4.852  16.513  0.00  0.00    +0.000 C 
ATOM     27  C3* UNL     1       6.209   4.571  16.124  0.00  0.00    +0.000 C 
ATOM     28  C4* UNL     1       6.973   4.707  17.441  0.00  0.00    +0.000 C 
ATOM     29  O4* UNL     1       6.024   4.431  18.498  0.00  0.00    +0.000 OA
BRANCH  27  30
ATOM     30  O3* UNL     1       6.311   3.247  15.602  0.00  0.00    +0.000 OA
ATOM     31  H3* UNL     1       7.014   3.211  14.929  0.00  0.00    +0.000 HD
ENDBRANCH  27  30
BRANCH  28  32
ATOM     32  C5* UNL     1       7.535   6.118  17.639  0.00  0.00    +0.000 C 
BRANCH  32  33
ATOM     33  O5* UNL     1       7.538   6.854  16.415  0.00  0.00    +0.000 OA
ATOM     34  H5* UNL     1       7.455   6.208  15.690  0.00  0.00    +0.000 HD
ENDBRANCH  32  33
ENDBRANCH  28  32
ENDBRANCH  10  25
TORSDOF 12
ENDMDL
MODEL 6
REMARK VINA RESULT:      -7.6      3.417      9.558
REMARK  Name = 
REMARK  12 active torsions:
REMARK  status: ('A' for Active; 'I' for Inactive)
REMARK    1  A    between atoms: C_6  and  C_7
REMARK    2  A    between atoms: C_11  and  O_12
REMARK    3  A    between atoms: O_12  and  C_13
REMARK    4  A    between atoms: C_13  and  C_14
REMARK    5  A    between atoms: C_14  and  C_15
REMARK    6  A    between atoms: C_15  and  C_16
REMARK    7  A    between atoms: C_16  and  C_17
REMARK    8  A    between atoms: C_17  and  C_18
REMARK    9  A    between atoms: N_24  and  C1*_25
REMARK   10  A    between atoms: C3*_27  and  O3*_28
REMARK   11  A    between atoms: C4*_29  and  C5*_30
REMARK   12  A    between atoms: C5*_30  and  O5*_31
REMARK                            x       y       z     vdW  Elec       q    Type
REMARK                         _______ _______ _______ _____ _____    ______ ____
ROOT
ATOM      1  O   UNL     1       0.760  12.390  18.306  0.00  0.00    +0.000 OA
ATOM      2  C   UNL     1       0.848  11.359  18.964  0.00  0.00    +0.000 A 
ATOM      3  N   UNL     1       1.574  10.276  18.480  0.00  0.00    +0.000 NA
ATOM      4  C   UNL     1       1.592   9.227  19.218  0.00  0.00    +0.000 A 
ATOM      5  O   UNL     1       2.252   8.057  18.910  0.00  0.00    +0.000 OA
ATOM      6  C   UNL     1       1.954   7.190  19.998  0.00  0.00    +0.000 A 
ATOM      7  C   UNL     1       1.195   7.731  20.961  0.00  0.00    +0.000 A 
ATOM      8  C   UNL     1       0.938   9.036  20.507  0.00  0.00    +0.000 A 
ATOM      9  C   UNL     1       0.266  10.082  20.964  0.00  0.00    +0.000 A 
ATOM     10  N   UNL     1       0.220  11.254  20.222  0.00  0.00    +0.000 N 
ENDROOT
BRANCH   6  11
ATOM     11  C   UNL     1       2.482   5.818  19.962  0.00  0.00    +0.000 A 
ATOM     12  C   UNL     1       1.697   4.728  20.354  0.00  0.00    +0.000 A 
ATOM     13  C   UNL     1       2.199   3.425  20.271  0.00  0.00    +0.000 A 
ATOM     14  C   UNL     1       3.517   3.206  19.870  0.00  0.00    +0.000 A 
ATOM     15  C   UNL     1       4.337   4.283  19.549  0.00  0.00    +0.000 A 
ATOM     16  C   UNL     1       3.803   5.576  19.547  0.00  0.00    +0.000 A 
BRANCH  15  17
ATOM     17  O   UNL     1       5.634   3.973  19.233  0.00  0.00    +0.000 OA
BRANCH  17  18
ATOM     18  C   UNL     1       6.413   5.081  18.772  0.00  0.00    +0.000 C 
BRANCH  18  19
ATOM     19  C   UNL     1       7.110   4.698  17.471  0.00  0.00    +0.000 C 
BRANCH  19  20
ATOM     20  C   UNL     1       6.841   5.753  16.399  0.00  0.00    +0.000 C 
BRANCH  20  21
ATOM     21  C   UNL     1       5.804   5.272  15.391  0.00  0.00    +0.000 C 
BRANCH  21  22
ATOM     22  C   UNL     1       6.133   3.870  14.887  0.00  0.00    +0.000 C 
BRANCH  22  23
ATOM     23  C   UNL     1       6.258   3.848  13.376  0.00  0.00    +0.000 C 
ATOM     24  F   UNL     1       7.152   4.801  12.999  0.00  0.00    +0.000 F 
ENDBRANCH  22  23
ENDBRANCH  21  22
ENDBRANCH  20  21
ENDBRANCH  19  20
ENDBRANCH  18  19
ENDBRANCH  17  18
ENDBRANCH  15  17
ENDBRANCH   6  11
BRANCH  10  25
ATOM     25  C1* UNL     1      -0.468  12.438  20.741  0.00  0.00    +0.000 C 
ATOM     26  C2* UNL     1      -1.934  12.555  20.342  0.00  0.00    +0.000 C 
ATOM     27  C3* UNL     1      -2.531  13.328  21.499  0.00  0.00    +0.000 C 
ATOM     28  C4* UNL     1      -1.709  12.868  22.702  0.00  0.00    +0.000 C 
ATOM     29  O4* UNL     1      -0.428  12.438  22.186  0.00  0.00    +0.000 OA
BRANCH  27  30
ATOM     30  O3* UNL     1      -2.374  14.727  21.269  0.00  0.00    +0.000 OA
ATOM     31  H3* UNL     1      -2.890  15.229  21.925  0.00  0.00    +0.000 HD
ENDBRANCH  27  30
BRANCH  28  32
ATOM     32  C5* UNL     1      -2.365  11.694  23.436  0.00  0.00    +0.000 C 
BRANCH  32  33
ATOM     33  O5* UNL     1      -3.660  12.046  23.927  0.00  0.00    +0.000 OA
ATOM     34  H5* UNL     1      -3.545  12.357  24.844  0.00  0.00    +0.000 HD
ENDBRANCH  32  33
ENDBRANCH  28  32
ENDBRANCH  10  25
TORSDOF 12
ENDMDL
MODEL 7
REMARK VINA RESULT:      -7.5      2.899      8.995
REMARK  Name = 
REMARK  12 active torsions:
REMARK  status: ('A' for Active; 'I' for Inactive)
REMARK    1  A    between atoms: C_6  and  C_7
REMARK    2  A    between atoms: C_11  and  O_12
REMARK    3  A    between atoms: O_12  and  C_13
REMARK    4  A    between atoms: C_13  and  C_14
REMARK    5  A    between atoms: C_14  and  C_15
REMARK    6  A    between atoms: C_15  and  C_16
REMARK    7  A    between atoms: C_16  and  C_17
REMARK    8  A    between atoms: C_17  and  C_18
REMARK    9  A    between atoms: N_24  and  C1*_25
REMARK   10  A    between atoms: C3*_27  and  O3*_28
REMARK   11  A    between atoms: C4*_29  and  C5*_30
REMARK   12  A    between atoms: C5*_30  and  O5*_31
REMARK                            x       y       z     vdW  Elec       q    Type
REMARK                         _______ _______ _______ _____ _____    ______ ____
ROOT
ATOM      1  O   UNL     1      -0.033   9.459  22.739  0.00  0.00    +0.000 OA
ATOM      2  C   UNL     1       0.450   9.304  21.622  0.00  0.00    +0.000 A 
ATOM      3  N   UNL     1       1.199   8.169  21.330  0.00  0.00    +0.000 NA
ATOM      4  C   UNL     1       1.690   8.100  20.147  0.00  0.00    +0.000 A 
ATOM      5  O   UNL     1       2.459   7.059  19.672  0.00  0.00    +0.000 OA
ATOM      6  C   UNL     1       2.791   7.447  18.344  0.00  0.00    +0.000 A 
ATOM      7  C   UNL     1       2.272   8.619  17.951  0.00  0.00    +0.000 A 
ATOM      8  C   UNL     1       1.559   9.076  19.072  0.00  0.00    +0.000 A 
ATOM      9  C   UNL     1       0.828  10.142  19.358  0.00  0.00    +0.000 A 
ATOM     10  N   UNL     1       0.252  10.271  20.615  0.00  0.00    +0.000 N 
ENDROOT
BRANCH   6  11
ATOM     11  C   UNL     1       3.655   6.558  17.553  0.00  0.00    +0.000 A 
ATOM     12  C   UNL     1       4.465   7.059  16.528  0.00  0.00    +0.000 A 
ATOM     13  C   UNL     1       5.315   6.208  15.815  0.00  0.00    +0.000 A 
ATOM     14  C   UNL     1       5.305   4.836  16.067  0.00  0.00    +0.000 A 
ATOM     15  C   UNL     1       4.450   4.309  17.030  0.00  0.00    +0.000 A 
ATOM     16  C   UNL     1       3.669   5.175  17.803  0.00  0.00    +0.000 A 
BRANCH  15  17
ATOM     17  O   UNL     1       4.463   2.945  17.158  0.00  0.00    +0.000 OA
BRANCH  17  18
ATOM     18  C   UNL     1       4.153   2.470  18.472  0.00  0.00    +0.000 C 
BRANCH  18  19
ATOM     19  C   UNL     1       2.827   1.718  18.434  0.00  0.00    +0.000 C 
BRANCH  19  20
ATOM     20  C   UNL     1       2.087   1.888  19.759  0.00  0.00    +0.000 C 
BRANCH  20  21
ATOM     21  C   UNL     1       2.872   2.764  20.729  0.00  0.00    +0.000 C 
BRANCH  21  22
ATOM     22  C   UNL     1       2.048   3.969  21.173  0.00  0.00    +0.000 C 
BRANCH  22  23
ATOM     23  C   UNL     1       0.746   4.055  20.402  0.00  0.00    +0.000 C 
ATOM     24  F   UNL     1       1.013   4.509  19.148  0.00  0.00    +0.000 F 
ENDBRANCH  22  23
ENDBRANCH  21  22
ENDBRANCH  20  21
ENDBRANCH  19  20
ENDBRANCH  18  19
ENDBRANCH  17  18
ENDBRANCH  15  17
ENDBRANCH   6  11
BRANCH  10  25
ATOM     25  C1* UNL     1      -0.606  11.416  20.928  0.00  0.00    +0.000 C 
ATOM     26  C2* UNL     1       0.124  12.636  21.475  0.00  0.00    +0.000 C 
ATOM     27  C3* UNL     1      -0.760  13.780  21.024  0.00  0.00    +0.000 C 
ATOM     28  C4* UNL     1      -1.329  13.292  19.692  0.00  0.00    +0.000 C 
ATOM     29  O4* UNL     1      -1.306  11.846  19.738  0.00  0.00    +0.000 OA
BRANCH  27  30
ATOM     30  O3* UNL     1      -1.795  13.989  21.983  0.00  0.00    +0.000 OA
ATOM     31  H3* UNL     1      -1.420  14.375  22.795  0.00  0.00    +0.000 HD
ENDBRANCH  27  30
BRANCH  28  32
ATOM     32  C5* UNL     1      -0.490  13.761  18.499  0.00  0.00    +0.000 C 
BRANCH  32  33
ATOM     33  O5* UNL     1       0.227  14.958  18.806  0.00  0.00    +0.000 OA
ATOM     34  H5* UNL     1       0.906  15.072  18.116  0.00  0.00    +0.000 HD
ENDBRANCH  32  33
ENDBRANCH  28  32
ENDBRANCH  10  25
TORSDOF 12
ENDMDL
MODEL 8
REMARK VINA RESULT:      -7.5      3.159      9.396
REMARK  Name = 
REMARK  12 active torsions:
REMARK  status: ('A' for Active; 'I' for Inactive)
REMARK    1  A    between atoms: C_6  and  C_7
REMARK    2  A    between atoms: C_11  and  O_12
REMARK    3  A    between atoms: O_12  and  C_13
REMARK    4  A    between atoms: C_13  and  C_14
REMARK    5  A    between atoms: C_14  and  C_15
REMARK    6  A    between atoms: C_15  and  C_16
REMARK    7  A    between atoms: C_16  and  C_17
REMARK    8  A    between atoms: C_17  and  C_18
REMARK    9  A    between atoms: N_24  and  C1*_25
REMARK   10  A    between atoms: C3*_27  and  O3*_28
REMARK   11  A    between atoms: C4*_29  and  C5*_30
REMARK   12  A    between atoms: C5*_30  and  O5*_31
REMARK                            x       y       z     vdW  Elec       q    Type
REMARK                         _______ _______ _______ _____ _____    ______ ____
ROOT
ATOM      1  O   UNL     1      -0.692  10.582  23.050  0.00  0.00    +0.000 OA
ATOM      2  C   UNL     1      -0.185  10.270  21.977  0.00  0.00    +0.000 A 
ATOM      3  N   UNL     1       0.571   9.108  21.867  0.00  0.00    +0.000 NA
ATOM      4  C   UNL     1       1.086   8.871  20.717  0.00  0.00    +0.000 A 
ATOM      5  O   UNL     1       1.866   7.776  20.413  0.00  0.00    +0.000 OA
ATOM      6  C   UNL     1       2.225   7.969  19.050  0.00  0.00    +0.000 A 
ATOM      7  C   UNL     1       1.713   9.069  18.481  0.00  0.00    +0.000 A 
ATOM      8  C   UNL     1       0.976   9.680  19.509  0.00  0.00    +0.000 A 
ATOM      9  C   UNL     1       0.238  10.774  19.624  0.00  0.00    +0.000 A 
ATOM     10  N   UNL     1      -0.364  11.080  20.836  0.00  0.00    +0.000 N 
ENDROOT
BRANCH   6  11
ATOM     11  C   UNL     1       3.106   6.979  18.412  0.00  0.00    +0.000 A 
ATOM     12  C   UNL     1       3.825   7.288  17.253  0.00  0.00    +0.000 A 
ATOM     13  C   UNL     1       4.694   6.351  16.685  0.00  0.00    +0.000 A 
ATOM     14  C   UNL     1       4.793   5.069  17.227  0.00  0.00    +0.000 A 
ATOM     15  C   UNL     1       4.028   4.718  18.334  0.00  0.00    +0.000 A 
ATOM     16  C   UNL     1       3.230   5.687  18.952  0.00  0.00    +0.000 A 
BRANCH  15  17
ATOM     17  O   UNL     1       4.142   3.418  18.751  0.00  0.00    +0.000 OA
BRANCH  17  18
ATOM     18  C   UNL     1       3.900   2.445  17.730  0.00  0.00    +0.000 C 
BRANCH  18  19
ATOM     19  C   UNL     1       2.401   2.181  17.634  0.00  0.00    +0.000 C 
BRANCH  19  20
ATOM     20  C   UNL     1       1.817   1.941  19.024  0.00  0.00    +0.000 C 
BRANCH  20  21
ATOM     21  C   UNL     1       0.684   2.914  19.330  0.00  0.00    +0.000 C 
BRANCH  21  22
ATOM     22  C   UNL     1       0.950   3.682  20.621  0.00  0.00    +0.000 C 
BRANCH  22  23
ATOM     23  C   UNL     1       1.454   2.758  21.712  0.00  0.00    +0.000 C 
ATOM     24  F   UNL     1       2.748   3.072  21.985  0.00  0.00    +0.000 F 
ENDBRANCH  22  23
ENDBRANCH  21  22
ENDBRANCH  20  21
ENDBRANCH  19  20
ENDBRANCH  18  19
ENDBRANCH  17  18
ENDBRANCH  15  17
ENDBRANCH   6  11
BRANCH  10  25
ATOM     25  C1* UNL     1      -1.231  12.254  20.964  0.00  0.00    +0.000 C 
ATOM     26  C2* UNL     1      -1.168  13.229  19.794  0.00  0.00    +0.000 C 
ATOM     27  C3* UNL     1      -2.549  13.849  19.806  0.00  0.00    +0.000 C 
ATOM     28  C4* UNL     1      -3.448  12.717  20.300  0.00  0.00    +0.000 C 
ATOM     29  O4* UNL     1      -2.610  11.837  21.085  0.00  0.00    +0.000 OA
BRANCH  27  30
ATOM     30  O3* UNL     1      -2.567  14.955  20.706  0.00  0.00    +0.000 OA
ATOM     31  H3* UNL     1      -2.282  15.763  20.242  0.00  0.00    +0.000 HD
ENDBRANCH  27  30
BRANCH  28  32
ATOM     32  C5* UNL     1      -4.058  11.916  19.145  0.00  0.00    +0.000 C 
BRANCH  32  33
ATOM     33  O5* UNL     1      -4.903  12.734  18.334  0.00  0.00    +0.000 OA
ATOM     34  H5* UNL     1      -4.588  13.653  18.425  0.00  0.00    +0.000 HD
ENDBRANCH  32  33
ENDBRANCH  28  32
ENDBRANCH  10  25
TORSDOF 12
ENDMDL
MODEL 9
REMARK VINA RESULT:      -7.5      3.411      9.492
REMARK  Name = 
REMARK  12 active torsions:
REMARK  status: ('A' for Active; 'I' for Inactive)
REMARK    1  A    between atoms: C_6  and  C_7
REMARK    2  A    between atoms: C_11  and  O_12
REMARK    3  A    between atoms: O_12  and  C_13
REMARK    4  A    between atoms: C_13  and  C_14
REMARK    5  A    between atoms: C_14  and  C_15
REMARK    6  A    between atoms: C_15  and  C_16
REMARK    7  A    between atoms: C_16  and  C_17
REMARK    8  A    between atoms: C_17  and  C_18
REMARK    9  A    between atoms: N_24  and  C1*_25
REMARK   10  A    between atoms: C3*_27  and  O3*_28
REMARK   11  A    between atoms: C4*_29  and  C5*_30
REMARK   12  A    between atoms: C5*_30  and  O5*_31
REMARK                            x       y       z     vdW  Elec       q    Type
REMARK                         _______ _______ _______ _____ _____    ______ ____
ROOT
ATOM      1  O   UNL     1      -2.421  11.907  18.437  0.00  0.00    +0.000 OA
ATOM      2  C   UNL     1      -1.454  11.254  18.819  0.00  0.00    +0.000 A 
ATOM      3  N   UNL     1      -0.769  10.429  17.934  0.00  0.00    +0.000 NA
ATOM      4  C   UNL     1       0.211   9.762  18.421  0.00  0.00    +0.000 A 
ATOM      5  O   UNL     1       1.007   8.892  17.706  0.00  0.00    +0.000 OA
ATOM      6  C   UNL     1       1.917   8.377  18.670  0.00  0.00    +0.000 A 
ATOM      7  C   UNL     1       1.772   8.872  19.907  0.00  0.00    +0.000 A 
ATOM      8  C   UNL     1       0.691   9.764  19.798  0.00  0.00    +0.000 A 
ATOM      9  C   UNL     1       0.041  10.569  20.625  0.00  0.00    +0.000 A 
ATOM     10  N   UNL     1      -1.019  11.333  20.158  0.00  0.00    +0.000 N 
ENDROOT
BRANCH   6  11
ATOM     11  C   UNL     1       2.898   7.370  18.236  0.00  0.00    +0.000 A 
ATOM     12  C   UNL     1       3.812   7.643  17.213  0.00  0.00    +0.000 A 
ATOM     13  C   UNL     1       4.768   6.692  16.842  0.00  0.00    +0.000 A 
ATOM     14  C   UNL     1       4.768   5.430  17.438  0.00  0.00    +0.000 A 
ATOM     15  C   UNL     1       3.818   5.114  18.404  0.00  0.00    +0.000 A 
ATOM     16  C   UNL     1       2.923   6.099  18.835  0.00  0.00    +0.000 A 
BRANCH  15  17
ATOM     17  O   UNL     1       3.856   3.830  18.881  0.00  0.00    +0.000 OA
BRANCH  17  18
ATOM     18  C   UNL     1       3.964   2.824  17.868  0.00  0.00    +0.000 C 
BRANCH  18  19
ATOM     19  C   UNL     1       2.591   2.203  17.630  0.00  0.00    +0.000 C 
BRANCH  19  20
ATOM     20  C   UNL     1       1.930   1.861  18.963  0.00  0.00    +0.000 C 
BRANCH  20  21
ATOM     21  C   UNL     1       0.642   2.651  19.167  0.00  0.00    +0.000 C 
BRANCH  21  22
ATOM     22  C   UNL     1       0.774   3.629  20.331  0.00  0.00    +0.000 C 
BRANCH  22  23
ATOM     23  C   UNL     1       1.650   3.057  21.428  0.00  0.00    +0.000 C 
ATOM     24  F   UNL     1       2.445   4.049  21.911  0.00  0.00    +0.000 F 
ENDBRANCH  22  23
ENDBRANCH  21  22
ENDBRANCH  20  21
ENDBRANCH  19  20
ENDBRANCH  18  19
ENDBRANCH  17  18
ENDBRANCH  15  17
ENDBRANCH   6  11
BRANCH  10  25
ATOM     25  C1* UNL     1      -1.711  12.271  21.045  0.00  0.00    +0.000 C 
ATOM     26  C2* UNL     1      -1.472  12.042  22.533  0.00  0.00    +0.000 C 
ATOM     27  C3* UNL     1      -1.630  13.433  23.110  0.00  0.00    +0.000 C 
ATOM     28  C4* UNL     1      -1.115  14.346  21.998  0.00  0.00    +0.000 C 
ATOM     29  O4* UNL     1      -1.288  13.623  20.757  0.00  0.00    +0.000 OA
BRANCH  27  30
ATOM     30  O3* UNL     1      -3.008  13.681  23.386  0.00  0.00    +0.000 OA
ATOM     31  H3* UNL     1      -3.563  13.238  22.718  0.00  0.00    +0.000 HD
ENDBRANCH  27  30
BRANCH  28  32
ATOM     32  C5* UNL     1       0.370  14.683  22.169  0.00  0.00    +0.000 C 
BRANCH  32  33
ATOM     33  O5* UNL     1       0.597  15.440  23.359  0.00  0.00    +0.000 OA
ATOM     34  H5* UNL     1      -0.080  15.171  24.006  0.00  0.00    +0.000 HD
ENDBRANCH  32  33
ENDBRANCH  28  32
ENDBRANCH  10  25
TORSDOF 12
ENDMDL
