MODEL 1
REMARK VINA RESULT:      -8.4      0.000      0.000
REMARK  Name = 
REMARK  4 active torsions:
REMARK  status: ('A' for Active; 'I' for Inactive)
REMARK    1  A    between atoms: C_1  and  C_2
REMARK    2  A    between atoms: C_5  and  C_6
REMARK    3  A    between atoms: C_10  and  C_11
REMARK    4  A    between atoms: C_15  and  C_16
REMARK                            x       y       z     vdW  Elec       q    Type
REMARK                         _______ _______ _______ _____ _____    ______ ____
ROOT
ATOM      1  C   UNL     1      -0.520  11.438  21.533  0.00  0.00    +0.000 A 
ATOM      2  N   UNL     1       0.435  10.554  21.793  0.00  0.00    +0.000 NA
ATOM      3  C   UNL     1       0.752   9.965  20.579  0.00  0.00    +0.000 A 
ATOM      4  C   UNL     1       1.668   8.936  20.271  0.00  0.00    +0.000 A 
ATOM      5  C   UNL     1       1.778   8.525  18.929  0.00  0.00    +0.000 A 
ATOM      6  C   UNL     1       1.010   9.178  17.937  0.00  0.00    +0.000 A 
ATOM      7  C   UNL     1       0.107  10.190  18.224  0.00  0.00    +0.000 A 
ATOM      8  C   UNL     1       0.005  10.537  19.562  0.00  0.00    +0.000 A 
ATOM      9  N   UNL     1      -0.785  11.456  20.189  0.00  0.00    +0.000 N 
ATOM     10  H   UNL     1      -1.450  12.064  19.733  0.00  0.00    +0.000 HD
ENDROOT
BRANCH   5  11
ATOM     11  C   UNL     1       2.598   7.397  18.471  0.00  0.00    +0.000 A 
ATOM     12  N   UNL     1       3.679   7.552  17.726  0.00  0.00    +0.000 NA
ATOM     13  C   UNL     1       4.062   6.308  17.341  0.00  0.00    +0.000 A 
ATOM     14  C   UNL     1       4.990   5.946  16.362  0.00  0.00    +0.000 A 
ATOM     15  C   UNL     1       5.123   4.587  16.066  0.00  0.00    +0.000 A 
ATOM     16  C   UNL     1       4.497   3.615  16.862  0.00  0.00    +0.000 A 
ATOM     17  C   UNL     1       3.580   3.972  17.863  0.00  0.00    +0.000 A 
ATOM     18  C   UNL     1       3.325   5.336  18.001  0.00  0.00    +0.000 A 
ATOM     19  N   UNL     1       2.342   6.054  18.647  0.00  0.00    +0.000 N 
ATOM     20  H   UNL     1       1.503   5.664  19.049  0.00  0.00    +0.000 HD
BRANCH  15  21
ATOM     21  C   UNL     1       5.788   4.205  14.855  0.00  0.00    +0.000 C 
ATOM     22  N   UNL     1       6.391   3.956  13.897  0.00  0.00    +0.000 NA
ENDBRANCH  15  21
ENDBRANCH   5  11
BRANCH   1  27
ATOM     23  C   UNL     1      -3.365  15.081  25.018  0.00  0.00    +0.000 C 
ATOM     24  C   UNL     1      -2.605  14.129  24.144  0.00  0.00    +0.000 A 
ATOM     25  C   UNL     1      -1.344  14.458  23.635  0.00  0.00    +0.000 A 
ATOM     26  C   UNL     1      -0.652  13.565  22.809  0.00  0.00    +0.000 A 
ATOM     27  C   UNL     1      -1.211  12.334  22.465  0.00  0.00    +0.000 A 
ATOM     28  C   UNL     1      -2.470  11.996  22.998  0.00  0.00    +0.000 A 
ATOM     29  C   UNL     1      -3.159  12.886  23.825  0.00  0.00    +0.000 A 
ENDBRANCH   1  27
TORSDOF 3
ENDMDL
MODEL 2
REMARK VINA RESULT:      -8.3      1.879     10.661
REMARK  Name = 
REMARK  4 active torsions:
REMARK  status: ('A' for Active; 'I' for Inactive)
REMARK    1  A    between atoms: C_1  and  C_2
REMARK    2  A    between atoms: C_5  and  C_6
REMARK    3  A    between atoms: C_10  and  C_11
REMARK    4  A    between atoms: C_15  and  C_16
REMARK                            x       y       z     vdW  Elec       q    Type
REMARK                         _______ _______ _______ _____ _____    ______ ____
ROOT
ATOM      1  C   UNL     1       3.103   7.011  18.113  0.00  0.00    +0.000 A 
ATOM      2  N   UNL     1       2.575   8.203  17.866  0.00  0.00    +0.000 NA
ATOM      3  C   UNL     1       1.851   8.543  18.999  0.00  0.00    +0.000 A 
ATOM      4  C   UNL     1       1.058   9.677  19.274  0.00  0.00    +0.000 A 
ATOM      5  C   UNL     1       0.422   9.755  20.527  0.00  0.00    +0.000 A 
ATOM      6  C   UNL     1       0.629   8.728  21.476  0.00  0.00    +0.000 A 
ATOM      7  C   UNL     1       1.406   7.608  21.221  0.00  0.00    +0.000 A 
ATOM      8  C   UNL     1       1.983   7.556  19.962  0.00  0.00    +0.000 A 
ATOM      9  N   UNL     1       2.771   6.607  19.379  0.00  0.00    +0.000 N 
ATOM     10  H   UNL     1       3.075   5.750  19.817  0.00  0.00    +0.000 HD
ENDROOT
BRANCH   5  11
ATOM     11  C   UNL     1      -0.520  10.811  20.915  0.00  0.00    +0.000 A 
ATOM     12  N   UNL     1      -0.981  10.945  22.147  0.00  0.00    +0.000 NA
ATOM     13  C   UNL     1      -1.957  11.887  22.093  0.00  0.00    +0.000 A 
ATOM     14  C   UNL     1      -2.906  12.215  23.064  0.00  0.00    +0.000 A 
ATOM     15  C   UNL     1      -3.888  13.147  22.721  0.00  0.00    +0.000 A 
ATOM     16  C   UNL     1      -3.802  13.871  21.522  0.00  0.00    +0.000 A 
ATOM     17  C   UNL     1      -2.836  13.564  20.552  0.00  0.00    +0.000 A 
ATOM     18  C   UNL     1      -1.991  12.494  20.847  0.00  0.00    +0.000 A 
ATOM     19  N   UNL     1      -1.128  11.733  20.089  0.00  0.00    +0.000 N 
ATOM     20  H   UNL     1      -1.066  11.750  19.082  0.00  0.00    +0.000 HD
BRANCH  15  21
ATOM     21  C   UNL     1      -5.060  13.250  23.540  0.00  0.00    +0.000 C 
ATOM     22  N   UNL     1      -6.055  13.298  24.133  0.00  0.00    +0.000 NA
ENDBRANCH  15  21
ENDBRANCH   5  11
BRANCH   1  27
ATOM     23  C   UNL     1       6.301   3.792  14.517  0.00  0.00    +0.000 C 
ATOM     24  C   UNL     1       5.496   4.618  15.477  0.00  0.00    +0.000 A 
ATOM     25  C   UNL     1       4.677   4.020  16.441  0.00  0.00    +0.000 A 
ATOM     26  C   UNL     1       3.922   4.804  17.321  0.00  0.00    +0.000 A 
ATOM     27  C   UNL     1       3.959   6.196  17.246  0.00  0.00    +0.000 A 
ATOM     28  C   UNL     1       4.802   6.795  16.290  0.00  0.00    +0.000 A 
ATOM     29  C   UNL     1       5.560   6.013  15.414  0.00  0.00    +0.000 A 
ENDBRANCH   1  27
TORSDOF 3
ENDMDL
MODEL 3
REMARK VINA RESULT:      -8.1      2.047     10.675
REMARK  Name = 
REMARK  4 active torsions:
REMARK  status: ('A' for Active; 'I' for Inactive)
REMARK    1  A    between atoms: C_1  and  C_2
REMARK    2  A    between atoms: C_5  and  C_6
REMARK    3  A    between atoms: C_10  and  C_11
REMARK    4  A    between atoms: C_15  and  C_16
REMARK                            x       y       z     vdW  Elec       q    Type
REMARK                         _______ _______ _______ _____ _____    ______ ____
ROOT
ATOM      1  C   UNL     1       2.603   7.325  18.649  0.00  0.00    +0.000 A 
ATOM      2  N   UNL     1       2.003   8.462  18.320  0.00  0.00    +0.000 NA
ATOM      3  C   UNL     1       1.341   8.888  19.460  0.00  0.00    +0.000 A 
ATOM      4  C   UNL     1       0.514  10.012  19.674  0.00  0.00    +0.000 A 
ATOM      5  C   UNL     1      -0.041  10.194  20.955  0.00  0.00    +0.000 A 
ATOM      6  C   UNL     1       0.277   9.281  21.986  0.00  0.00    +0.000 A 
ATOM      7  C   UNL     1       1.088   8.173  21.792  0.00  0.00    +0.000 A 
ATOM      8  C   UNL     1       1.583   8.014  20.507  0.00  0.00    +0.000 A 
ATOM      9  N   UNL     1       2.376   7.042  19.969  0.00  0.00    +0.000 N 
ATOM     10  H   UNL     1       2.748   6.248  20.470  0.00  0.00    +0.000 HD
ENDROOT
BRANCH   5  11
ATOM     11  C   UNL     1      -1.006  11.245  21.299  0.00  0.00    +0.000 A 
ATOM     12  N   UNL     1      -1.546  11.358  22.501  0.00  0.00    +0.000 NA
ATOM     13  C   UNL     1      -2.515  12.303  22.400  0.00  0.00    +0.000 A 
ATOM     14  C   UNL     1      -3.526  12.616  23.312  0.00  0.00    +0.000 A 
ATOM     15  C   UNL     1      -4.481  13.557  22.922  0.00  0.00    +0.000 A 
ATOM     16  C   UNL     1      -4.315  14.302  21.745  0.00  0.00    +0.000 A 
ATOM     17  C   UNL     1      -3.288  14.010  20.834  0.00  0.00    +0.000 A 
ATOM     18  C   UNL     1      -2.466  12.932  21.165  0.00  0.00    +0.000 A 
ATOM     19  N   UNL     1      -1.556  12.183  20.451  0.00  0.00    +0.000 N 
ATOM     20  H   UNL     1      -1.428  12.218  19.452  0.00  0.00    +0.000 HD
BRANCH  15  21
ATOM     21  C   UNL     1      -5.705  13.648  23.664  0.00  0.00    +0.000 C 
ATOM     22  N   UNL     1      -6.732  13.668  24.201  0.00  0.00    +0.000 NA
ENDBRANCH  15  21
ENDBRANCH   5  11
BRANCH   1  27
ATOM     23  C   UNL     1       6.062   3.886  15.530  0.00  0.00    +0.000 C 
ATOM     24  C   UNL     1       5.148   4.786  16.306  0.00  0.00    +0.000 A 
ATOM     25  C   UNL     1       5.300   6.177  16.275  0.00  0.00    +0.000 A 
ATOM     26  C   UNL     1       4.448   7.004  17.015  0.00  0.00    +0.000 A 
ATOM     27  C   UNL     1       3.439   6.460  17.810  0.00  0.00    +0.000 A 
ATOM     28  C   UNL     1       3.274   5.061  17.821  0.00  0.00    +0.000 A 
ATOM     29  C   UNL     1       4.122   4.235  17.079  0.00  0.00    +0.000 A 
ENDBRANCH   1  27
TORSDOF 3
ENDMDL
MODEL 4
REMARK VINA RESULT:      -8.0      2.555     10.904
REMARK  Name = 
REMARK  4 active torsions:
REMARK  status: ('A' for Active; 'I' for Inactive)
REMARK    1  A    between atoms: C_1  and  C_2
REMARK    2  A    between atoms: C_5  and  C_6
REMARK    3  A    between atoms: C_10  and  C_11
REMARK    4  A    between atoms: C_15  and  C_16
REMARK                            x       y       z     vdW  Elec       q    Type
REMARK                         _______ _______ _______ _____ _____    ______ ____
ROOT
ATOM      1  C   UNL     1       1.898   7.980  19.621  0.00  0.00    +0.000 A 
ATOM      2  N   UNL     1       1.198   9.037  19.229  0.00  0.00    +0.000 NA
ATOM      3  C   UNL     1       0.593   9.539  20.371  0.00  0.00    +0.000 A 
ATOM      4  C   UNL     1      -0.292  10.626  20.537  0.00  0.00    +0.000 A 
ATOM      5  C   UNL     1      -0.763  10.907  21.833  0.00  0.00    +0.000 A 
ATOM      6  C   UNL     1      -0.306  10.129  22.922  0.00  0.00    +0.000 A 
ATOM      7  C   UNL     1       0.563   9.059  22.775  0.00  0.00    +0.000 A 
ATOM      8  C   UNL     1       0.972   8.797  21.477  0.00  0.00    +0.000 A 
ATOM      9  N   UNL     1       1.789   7.824  20.977  0.00  0.00    +0.000 N 
ATOM     10  H   UNL     1       2.252   7.112  21.523  0.00  0.00    +0.000 HD
ENDROOT
BRANCH   5  11
ATOM     11  C   UNL     1      -1.770  11.927  22.147  0.00  0.00    +0.000 A 
ATOM     12  N   UNL     1      -2.511  11.891  23.241  0.00  0.00    +0.000 NA
ATOM     13  C   UNL     1      -3.446  12.866  23.106  0.00  0.00    +0.000 A 
ATOM     14  C   UNL     1      -4.599  13.080  23.864  0.00  0.00    +0.000 A 
ATOM     15  C   UNL     1      -5.470  14.089  23.448  0.00  0.00    +0.000 A 
ATOM     16  C   UNL     1      -5.100  14.982  22.431  0.00  0.00    +0.000 A 
ATOM     17  C   UNL     1      -3.930  14.788  21.680  0.00  0.00    +0.000 A 
ATOM     18  C   UNL     1      -3.181  13.655  21.996  0.00  0.00    +0.000 A 
ATOM     19  N   UNL     1      -2.162  12.985  21.354  0.00  0.00    +0.000 N 
ATOM     20  H   UNL     1      -1.861  13.151  20.406  0.00  0.00    +0.000 HD
BRANCH  15  21
ATOM     21  C   UNL     1      -6.804  14.111  23.973  0.00  0.00    +0.000 C 
ATOM     22  N   UNL     1      -7.911  14.148  24.314  0.00  0.00    +0.000 NA
ENDBRANCH  15  21
ENDBRANCH   5  11
BRANCH   1  27
ATOM     23  C   UNL     1       4.986   4.427  16.251  0.00  0.00    +0.000 C 
ATOM     24  C   UNL     1       4.211   5.343  17.151  0.00  0.00    +0.000 A 
ATOM     25  C   UNL     1       3.426   4.841  18.195  0.00  0.00    +0.000 A 
ATOM     26  C   UNL     1       2.698   5.706  19.019  0.00  0.00    +0.000 A 
ATOM     27  C   UNL     1       2.728   7.085  18.809  0.00  0.00    +0.000 A 
ATOM     28  C   UNL     1       3.538   7.588  17.772  0.00  0.00    +0.000 A 
ATOM     29  C   UNL     1       4.268   6.725  16.951  0.00  0.00    +0.000 A 
ENDBRANCH   1  27
TORSDOF 3
ENDMDL
MODEL 5
REMARK VINA RESULT:      -8.0      1.814      2.573
REMARK  Name = 
REMARK  4 active torsions:
REMARK  status: ('A' for Active; 'I' for Inactive)
REMARK    1  A    between atoms: C_1  and  C_2
REMARK    2  A    between atoms: C_5  and  C_6
REMARK    3  A    between atoms: C_10  and  C_11
REMARK    4  A    between atoms: C_15  and  C_16
REMARK                            x       y       z     vdW  Elec       q    Type
REMARK                         _______ _______ _______ _____ _____    ______ ____
ROOT
ATOM      1  C   UNL     1      -0.713  11.850  22.183  0.00  0.00    +0.000 A 
ATOM      2  N   UNL     1      -0.246  10.672  22.578  0.00  0.00    +0.000 NA
ATOM      3  C   UNL     1       0.332  10.095  21.458  0.00  0.00    +0.000 A 
ATOM      4  C   UNL     1       0.945   8.835  21.290  0.00  0.00    +0.000 A 
ATOM      5  C   UNL     1       1.446   8.505  20.016  0.00  0.00    +0.000 A 
ATOM      6  C   UNL     1       1.360   9.451  18.969  0.00  0.00    +0.000 A 
ATOM      7  C   UNL     1       0.761  10.692  19.119  0.00  0.00    +0.000 A 
ATOM      8  C   UNL     1       0.250  10.961  20.379  0.00  0.00    +0.000 A 
ATOM      9  N   UNL     1      -0.412  12.052  20.862  0.00  0.00    +0.000 N 
ATOM     10  H   UNL     1      -0.631  12.883  20.333  0.00  0.00    +0.000 HD
ENDROOT
BRANCH   5  11
ATOM     11  C   UNL     1       2.005   7.196  19.658  0.00  0.00    +0.000 A 
ATOM     12  N   UNL     1       1.890   6.130  20.431  0.00  0.00    +0.000 NA
ATOM     13  C   UNL     1       2.678   5.170  19.884  0.00  0.00    +0.000 A 
ATOM     14  C   UNL     1       3.087   3.956  20.441  0.00  0.00    +0.000 A 
ATOM     15  C   UNL     1       4.002   3.188  19.718  0.00  0.00    +0.000 A 
ATOM     16  C   UNL     1       4.337   3.526  18.397  0.00  0.00    +0.000 A 
ATOM     17  C   UNL     1       3.910   4.732  17.822  0.00  0.00    +0.000 A 
ATOM     18  C   UNL     1       3.155   5.569  18.644  0.00  0.00    +0.000 A 
ATOM     19  N   UNL     1       2.786   6.894  18.562  0.00  0.00    +0.000 N 
ATOM     20  H   UNL     1       3.148   7.560  17.898  0.00  0.00    +0.000 HD
BRANCH  15  21
ATOM     21  C   UNL     1       4.704   2.134  20.390  0.00  0.00    +0.000 C 
ATOM     22  N   UNL     1       5.268   1.332  21.009  0.00  0.00    +0.000 NA
ENDBRANCH  15  21
ENDBRANCH   5  11
BRANCH   1  27
ATOM     23  C   UNL     1      -3.587  15.942  25.100  0.00  0.00    +0.000 C 
ATOM     24  C   UNL     1      -2.821  14.876  24.374  0.00  0.00    +0.000 A 
ATOM     25  C   UNL     1      -1.526  15.108  23.898  0.00  0.00    +0.000 A 
ATOM     26  C   UNL     1      -0.828  14.108  23.211  0.00  0.00    +0.000 A 
ATOM     27  C   UNL     1      -1.414  12.865  22.975  0.00  0.00    +0.000 A 
ATOM     28  C   UNL     1      -2.709  12.626  23.476  0.00  0.00    +0.000 A 
ATOM     29  C   UNL     1      -3.404  13.623  24.166  0.00  0.00    +0.000 A 
ENDBRANCH   1  27
TORSDOF 3
ENDMDL
MODEL 6
REMARK VINA RESULT:      -8.0      1.057      1.229
REMARK  Name = 
REMARK  4 active torsions:
REMARK  status: ('A' for Active; 'I' for Inactive)
REMARK    1  A    between atoms: C_1  and  C_2
REMARK    2  A    between atoms: C_5  and  C_6
REMARK    3  A    between atoms: C_10  and  C_11
REMARK    4  A    between atoms: C_15  and  C_16
REMARK                            x       y       z     vdW  Elec       q    Type
REMARK                         _______ _______ _______ _____ _____    ______ ____
ROOT
ATOM      1  C   UNL     1      -0.862  11.163  20.829  0.00  0.00    +0.000 A 
ATOM      2  N   UNL     1      -0.411   9.936  21.058  0.00  0.00    +0.000 NA
ATOM      3  C   UNL     1       0.512   9.675  20.057  0.00  0.00    +0.000 A 
ATOM      4  C   UNL     1       1.268   8.515  19.786  0.00  0.00    +0.000 A 
ATOM      5  C   UNL     1       2.136   8.530  18.678  0.00  0.00    +0.000 A 
ATOM      6  C   UNL     1       2.253   9.708  17.905  0.00  0.00    +0.000 A 
ATOM      7  C   UNL     1       1.518  10.856  18.157  0.00  0.00    +0.000 A 
ATOM      8  C   UNL     1       0.651  10.783  19.236  0.00  0.00    +0.000 A 
ATOM      9  N   UNL     1      -0.224  11.700  19.743  0.00  0.00    +0.000 N 
ATOM     10  H   UNL     1      -0.367  12.632  19.383  0.00  0.00    +0.000 HD
ENDROOT
BRANCH   5  11
ATOM     11  C   UNL     1       2.899   7.370  18.205  0.00  0.00    +0.000 A 
ATOM     12  N   UNL     1       3.981   7.480  17.453  0.00  0.00    +0.000 NA
ATOM     13  C   UNL     1       4.303   6.223  17.055  0.00  0.00    +0.000 A 
ATOM     14  C   UNL     1       5.206   5.826  16.066  0.00  0.00    +0.000 A 
ATOM     15  C   UNL     1       5.274   4.466  15.759  0.00  0.00    +0.000 A 
ATOM     16  C   UNL     1       4.608   3.517  16.551  0.00  0.00    +0.000 A 
ATOM     17  C   UNL     1       3.716   3.907  17.562  0.00  0.00    +0.000 A 
ATOM     18  C   UNL     1       3.526   5.281  17.713  0.00  0.00    +0.000 A 
ATOM     19  N   UNL     1       2.582   6.038  18.372  0.00  0.00    +0.000 N 
ATOM     20  H   UNL     1       1.729   5.684  18.776  0.00  0.00    +0.000 HD
BRANCH  15  21
ATOM     21  C   UNL     1       5.911   4.063  14.540  0.00  0.00    +0.000 C 
ATOM     22  N   UNL     1       6.348   3.750  13.512  0.00  0.00    +0.000 NA
ENDBRANCH  15  21
ENDBRANCH   5  11
BRANCH   1  27
ATOM     23  C   UNL     1      -4.931  13.978  23.833  0.00  0.00    +0.000 C 
ATOM     24  C   UNL     1      -3.859  13.281  23.050  0.00  0.00    +0.000 A 
ATOM     25  C   UNL     1      -3.790  13.390  21.657  0.00  0.00    +0.000 A 
ATOM     26  C   UNL     1      -2.792  12.723  20.938  0.00  0.00    +0.000 A 
ATOM     27  C   UNL     1      -1.853  11.926  21.594  0.00  0.00    +0.000 A 
ATOM     28  C   UNL     1      -1.911  11.837  22.998  0.00  0.00    +0.000 A 
ATOM     29  C   UNL     1      -2.906  12.506  23.717  0.00  0.00    +0.000 A 
ENDBRANCH   1  27
TORSDOF 3
ENDMDL
MODEL 7
REMARK VINA RESULT:      -7.9      1.617      2.438
REMARK  Name = 
REMARK  4 active torsions:
REMARK  status: ('A' for Active; 'I' for Inactive)
REMARK    1  A    between atoms: C_1  and  C_2
REMARK    2  A    between atoms: C_5  and  C_6
REMARK    3  A    between atoms: C_10  and  C_11
REMARK    4  A    between atoms: C_15  and  C_16
REMARK                            x       y       z     vdW  Elec       q    Type
REMARK                         _______ _______ _______ _____ _____    ______ ____
ROOT
ATOM      1  C   UNL     1      -0.132  10.296  20.405  0.00  0.00    +0.000 A 
ATOM      2  N   UNL     1       0.570  10.254  19.280  0.00  0.00    +0.000 NA
ATOM      3  C   UNL     1       1.303   9.079  19.331  0.00  0.00    +0.000 A 
ATOM      4  C   UNL     1       2.245   8.546  18.425  0.00  0.00    +0.000 A 
ATOM      5  C   UNL     1       2.850   7.315  18.743  0.00  0.00    +0.000 A 
ATOM      6  C   UNL     1       2.469   6.639  19.925  0.00  0.00    +0.000 A 
ATOM      7  C   UNL     1       1.546   7.149  20.824  0.00  0.00    +0.000 A 
ATOM      8  C   UNL     1       1.002   8.379  20.488  0.00  0.00    +0.000 A 
ATOM      9  N   UNL     1       0.101   9.167  21.143  0.00  0.00    +0.000 N 
ATOM     10  H   UNL     1      -0.336   8.945  22.026  0.00  0.00    +0.000 HD
ENDROOT
BRANCH   5  11
ATOM     11  C   UNL     1       3.925   6.692  17.962  0.00  0.00    +0.000 A 
ATOM     12  N   UNL     1       4.069   6.881  16.662  0.00  0.00    +0.000 NA
ATOM     13  C   UNL     1       5.030   6.014  16.250  0.00  0.00    +0.000 A 
ATOM     14  C   UNL     1       5.378   5.653  14.947  0.00  0.00    +0.000 A 
ATOM     15  C   UNL     1       6.328   4.643  14.787  0.00  0.00    +0.000 A 
ATOM     16  C   UNL     1       7.050   4.155  15.888  0.00  0.00    +0.000 A 
ATOM     17  C   UNL     1       6.722   4.532  17.200  0.00  0.00    +0.000 A 
ATOM     18  C   UNL     1       5.636   5.397  17.335  0.00  0.00    +0.000 A 
ATOM     19  N   UNL     1       4.857   5.778  18.406  0.00  0.00    +0.000 N 
ATOM     20  H   UNL     1       4.871   5.350  19.318  0.00  0.00    +0.000 HD
BRANCH  15  21
ATOM     21  C   UNL     1       6.455   4.009  13.508  0.00  0.00    +0.000 C 
ATOM     22  N   UNL     1       6.471   3.519  12.457  0.00  0.00    +0.000 NA
ENDBRANCH  15  21
ENDBRANCH   5  11
BRANCH   1  27
ATOM     23  C   UNL     1      -4.028  14.193  22.181  0.00  0.00    +0.000 C 
ATOM     24  C   UNL     1      -2.996  13.212  21.712  0.00  0.00    +0.000 A 
ATOM     25  C   UNL     1      -2.761  13.000  20.349  0.00  0.00    +0.000 A 
ATOM     26  C   UNL     1      -1.803  12.072  19.926  0.00  0.00    +0.000 A 
ATOM     27  C   UNL     1      -1.074  11.327  20.853  0.00  0.00    +0.000 A 
ATOM     28  C   UNL     1      -1.296  11.559  22.224  0.00  0.00    +0.000 A 
ATOM     29  C   UNL     1      -2.249  12.490  22.647  0.00  0.00    +0.000 A 
ENDBRANCH   1  27
TORSDOF 3
ENDMDL
MODEL 8
REMARK VINA RESULT:      -7.9      1.779     10.659
REMARK  Name = 
REMARK  4 active torsions:
REMARK  status: ('A' for Active; 'I' for Inactive)
REMARK    1  A    between atoms: C_1  and  C_2
REMARK    2  A    between atoms: C_5  and  C_6
REMARK    3  A    between atoms: C_10  and  C_11
REMARK    4  A    between atoms: C_15  and  C_16
REMARK                            x       y       z     vdW  Elec       q    Type
REMARK                         _______ _______ _______ _____ _____    ______ ____
ROOT
ATOM      1  C   UNL     1       2.928   7.165  18.228  0.00  0.00    +0.000 A 
ATOM      2  N   UNL     1       2.534   8.407  17.976  0.00  0.00    +0.000 NA
ATOM      3  C   UNL     1       1.825   8.817  19.094  0.00  0.00    +0.000 A 
ATOM      4  C   UNL     1       1.149  10.029  19.357  0.00  0.00    +0.000 A 
ATOM      5  C   UNL     1       0.497  10.169  20.597  0.00  0.00    +0.000 A 
ATOM      6  C   UNL     1       0.574   9.124  21.545  0.00  0.00    +0.000 A 
ATOM      7  C   UNL     1       1.235   7.929  21.302  0.00  0.00    +0.000 A 
ATOM      8  C   UNL     1       1.832   7.820  20.055  0.00  0.00    +0.000 A 
ATOM      9  N   UNL     1       2.528   6.795  19.485  0.00  0.00    +0.000 N 
ATOM     10  H   UNL     1       2.730   5.909  19.925  0.00  0.00    +0.000 HD
ENDROOT
BRANCH   5  11
ATOM     11  C   UNL     1      -0.337  11.317  20.970  0.00  0.00    +0.000 A 
ATOM     12  N   UNL     1      -0.009  12.161  21.933  0.00  0.00    +0.000 NA
ATOM     13  C   UNL     1      -1.085  12.965  22.124  0.00  0.00    +0.000 A 
ATOM     14  C   UNL     1      -1.336  13.851  23.174  0.00  0.00    +0.000 A 
ATOM     15  C   UNL     1      -2.580  14.483  23.206  0.00  0.00    +0.000 A 
ATOM     16  C   UNL     1      -3.463  14.385  22.119  0.00  0.00    +0.000 A 
ATOM     17  C   UNL     1      -3.207  13.515  21.048  0.00  0.00    +0.000 A 
ATOM     18  C   UNL     1      -2.043  12.752  21.144  0.00  0.00    +0.000 A 
ATOM     19  N   UNL     1      -1.583  11.639  20.474  0.00  0.00    +0.000 N 
ATOM     20  H   UNL     1      -2.127  11.074  19.841  0.00  0.00    +0.000 HD
BRANCH  15  21
ATOM     21  C   UNL     1      -3.006  15.113  24.422  0.00  0.00    +0.000 C 
ATOM     22  N   UNL     1      -3.265  15.653  25.414  0.00  0.00    +0.000 NA
ENDBRANCH  15  21
ENDBRANCH   5  11
BRANCH   1  27
ATOM     23  C   UNL     1       6.201   3.607  15.043  0.00  0.00    +0.000 C 
ATOM     24  C   UNL     1       5.333   4.537  15.838  0.00  0.00    +0.000 A 
ATOM     25  C   UNL     1       5.469   5.926  15.733  0.00  0.00    +0.000 A 
ATOM     26  C   UNL     1       4.661   6.781  16.490  0.00  0.00    +0.000 A 
ATOM     27  C   UNL     1       3.714   6.267  17.376  0.00  0.00    +0.000 A 
ATOM     28  C   UNL     1       3.563   4.869  17.462  0.00  0.00    +0.000 A 
ATOM     29  C   UNL     1       4.367   4.015  16.703  0.00  0.00    +0.000 A 
ENDBRANCH   1  27
TORSDOF 3
ENDMDL
MODEL 9
REMARK VINA RESULT:      -7.8      1.834     10.528
REMARK  Name = 
REMARK  4 active torsions:
REMARK  status: ('A' for Active; 'I' for Inactive)
REMARK    1  A    between atoms: C_1  and  C_2
REMARK    2  A    between atoms: C_5  and  C_6
REMARK    3  A    between atoms: C_10  and  C_11
REMARK    4  A    between atoms: C_15  and  C_16
REMARK                            x       y       z     vdW  Elec       q    Type
REMARK                         _______ _______ _______ _____ _____    ______ ____
ROOT
ATOM      1  C   UNL     1       3.058   6.994  18.175  0.00  0.00    +0.000 A 
ATOM      2  N   UNL     1       2.517   8.184  17.944  0.00  0.00    +0.000 NA
ATOM      3  C   UNL     1       1.799   8.505  19.085  0.00  0.00    +0.000 A 
ATOM      4  C   UNL     1       0.998   9.630  19.376  0.00  0.00    +0.000 A 
ATOM      5  C   UNL     1       0.369   9.690  20.635  0.00  0.00    +0.000 A 
ATOM      6  C   UNL     1       0.592   8.655  21.572  0.00  0.00    +0.000 A 
ATOM      7  C   UNL     1       1.376   7.544  21.301  0.00  0.00    +0.000 A 
ATOM      8  C   UNL     1       1.946   7.510  20.037  0.00  0.00    +0.000 A 
ATOM      9  N   UNL     1       2.738   6.574  19.439  0.00  0.00    +0.000 N 
ATOM     10  H   UNL     1       3.052   5.715  19.867  0.00  0.00    +0.000 HD
ENDROOT
BRANCH   5  11
ATOM     11  C   UNL     1      -0.580  10.733  21.040  0.00  0.00    +0.000 A 
ATOM     12  N   UNL     1      -1.160  11.550  20.178  0.00  0.00    +0.000 NA
ATOM     13  C   UNL     1      -1.809  12.489  20.913  0.00  0.00    +0.000 A 
ATOM     14  C   UNL     1      -2.367  13.696  20.488  0.00  0.00    +0.000 A 
ATOM     15  C   UNL     1      -2.881  14.552  21.464  0.00  0.00    +0.000 A 
ATOM     16  C   UNL     1      -3.013  14.124  22.795  0.00  0.00    +0.000 A 
ATOM     17  C   UNL     1      -2.476  12.901  23.225  0.00  0.00    +0.000 A 
ATOM     18  C   UNL     1      -1.797  12.158  22.259  0.00  0.00    +0.000 A 
ATOM     19  N   UNL     1      -0.934  11.085  22.325  0.00  0.00    +0.000 N 
ATOM     20  H   UNL     1      -0.521  10.720  23.169  0.00  0.00    +0.000 HD
BRANCH  15  21
ATOM     21  C   UNL     1      -3.137  15.920  21.121  0.00  0.00    +0.000 C 
ATOM     22  N   UNL     1      -3.305  17.049  20.922  0.00  0.00    +0.000 NA
ENDBRANCH  15  21
ENDBRANCH   5  11
BRANCH   1  27
ATOM     23  C   UNL     1       6.260   3.842  14.525  0.00  0.00    +0.000 C 
ATOM     24  C   UNL     1       5.454   4.650  15.498  0.00  0.00    +0.000 A 
ATOM     25  C   UNL     1       4.641   4.035  16.456  0.00  0.00    +0.000 A 
ATOM     26  C   UNL     1       3.885   4.802  17.349  0.00  0.00    +0.000 A 
ATOM     27  C   UNL     1       3.915   6.195  17.294  0.00  0.00    +0.000 A 
ATOM     28  C   UNL     1       4.752   6.812  16.343  0.00  0.00    +0.000 A 
ATOM     29  C   UNL     1       5.511   6.046  15.454  0.00  0.00    +0.000 A 
ENDBRANCH   1  27
TORSDOF 3
ENDMDL
