MODEL 1
REMARK VINA RESULT:      -7.1      0.000      0.000
REMARK  Name = 
REMARK  4 active torsions:
REMARK  status: ('A' for Active; 'I' for Inactive)
REMARK    1  A    between atoms: C_1  and  S_2
REMARK    2  A    between atoms: S_2  and  C_5
REMARK    3  A    between atoms: C_5  and  C_6
REMARK    4  A    between atoms: C_16  and  C_17
REMARK                            x       y       z     vdW  Elec       q    Type
REMARK                         _______ _______ _______ _____ _____    ______ ____
ROOT
ATOM      1  C   UNL     1       4.625   5.477  17.896  0.00  0.00    +0.000 A 
ATOM      2  N   UNL     1       3.934   5.594  19.065  0.00  0.00    +0.000 NA
ATOM      3  C   UNL     1       2.912   4.774  19.325  0.00  0.00    +0.000 A 
ATOM      4  C   UNL     1       2.248   4.876  20.542  0.00  0.00    +0.000 A 
ATOM      5  C   UNL     1       1.163   4.054  20.859  0.00  0.00    +0.000 A 
ATOM      6  C   UNL     1       0.715   3.114  19.939  0.00  0.00    +0.000 A 
ATOM      7  C   UNL     1       1.374   2.987  18.720  0.00  0.00    +0.000 A 
ATOM      8  C   UNL     1       2.489   3.804  18.412  0.00  0.00    +0.000 A 
ATOM      9  N   UNL     1       3.216   3.662  17.207  0.00  0.00    +0.000 N 
ATOM     10  O   UNL     1       2.839   2.740  16.384  0.00  0.00    +0.000 OA
ATOM     11  C   UNL     1       4.313   4.490  16.955  0.00  0.00    +0.000 A 
ENDROOT
BRANCH  11  12
ATOM     12  C   UNL     1       5.140   4.227  15.750  0.00  0.00    +0.000 C 
ATOM     13  N   UNL     1       5.973   3.147  15.745  0.00  0.00    +0.000 N 
ATOM     14  O   UNL     1       5.137   4.984  14.786  0.00  0.00    +0.000 OA
ATOM     15  H   UNL     1       5.984   2.508  16.548  0.00  0.00    +0.000 HD
ATOM     16  H   UNL     1       6.568   2.960  14.951  0.00  0.00    +0.000 HD
ENDBRANCH  11  12
BRANCH   1  17
ATOM     17  C   UNL     1       5.719   6.497  17.764  0.00  0.00    +0.000 C 
BRANCH  17  19
ATOM     18  C   UNL     1       8.314   7.239  18.622  0.00  0.00    +0.000 C 
ATOM     19  S   UNL     1       7.226   5.838  18.459  0.00  0.00    +0.000 S 
ATOM     20  O   UNL     1       7.843   4.931  17.509  0.00  0.00    +0.000 OA
ATOM     21  O   UNL     1       6.924   5.396  19.810  0.00  0.00    +0.000 OA
ENDBRANCH  17  19
ENDBRANCH   1  17
TORSDOF 3
ENDMDL
MODEL 2
REMARK VINA RESULT:      -7.0      2.056      3.112
REMARK  Name = 
REMARK  4 active torsions:
REMARK  status: ('A' for Active; 'I' for Inactive)
REMARK    1  A    between atoms: C_1  and  S_2
REMARK    2  A    between atoms: S_2  and  C_5
REMARK    3  A    between atoms: C_5  and  C_6
REMARK    4  A    between atoms: C_16  and  C_17
REMARK                            x       y       z     vdW  Elec       q    Type
REMARK                         _______ _______ _______ _____ _____    ______ ____
ROOT
ATOM      1  C   UNL     1       4.527   5.442  17.932  0.00  0.00    +0.000 A 
ATOM      2  N   UNL     1       3.189   5.247  17.762  0.00  0.00    +0.000 NA
ATOM      3  C   UNL     1       2.588   4.192  18.319  0.00  0.00    +0.000 A 
ATOM      4  C   UNL     1       1.214   4.035  18.174  0.00  0.00    +0.000 A 
ATOM      5  C   UNL     1       0.538   2.942  18.722  0.00  0.00    +0.000 A 
ATOM      6  C   UNL     1       1.243   1.970  19.420  0.00  0.00    +0.000 A 
ATOM      7  C   UNL     1       2.618   2.116  19.588  0.00  0.00    +0.000 A 
ATOM      8  C   UNL     1       3.297   3.238  19.053  0.00  0.00    +0.000 A 
ATOM      9  N   UNL     1       4.681   3.445  19.254  0.00  0.00    +0.000 N 
ATOM     10  O   UNL     1       5.322   2.575  19.963  0.00  0.00    +0.000 OA
ATOM     11  C   UNL     1       5.302   4.573  18.709  0.00  0.00    +0.000 A 
ENDROOT
BRANCH  11  12
ATOM     12  C   UNL     1       6.722   4.837  19.051  0.00  0.00    +0.000 C 
ATOM     13  N   UNL     1       7.699   4.316  18.255  0.00  0.00    +0.000 N 
ATOM     14  O   UNL     1       7.040   5.460  20.058  0.00  0.00    +0.000 OA
ATOM     15  H   UNL     1       7.443   3.791  17.411  0.00  0.00    +0.000 HD
ATOM     16  H   UNL     1       8.675   4.454  18.479  0.00  0.00    +0.000 HD
ENDBRANCH  11  12
BRANCH   1  17
ATOM     17  C   UNL     1       5.033   6.659  17.215  0.00  0.00    +0.000 C 
BRANCH  17  19
ATOM     18  C   UNL     1       5.289   4.474  15.432  0.00  0.00    +0.000 C 
ATOM     19  S   UNL     1       5.796   6.164  15.679  0.00  0.00    +0.000 S 
ATOM     20  O   UNL     1       7.239   6.154  15.834  0.00  0.00    +0.000 OA
ATOM     21  O   UNL     1       5.175   6.935  14.616  0.00  0.00    +0.000 OA
ENDBRANCH  17  19
ENDBRANCH   1  17
TORSDOF 3
ENDMDL
MODEL 3
REMARK VINA RESULT:      -7.0      1.990      3.663
REMARK  Name = 
REMARK  4 active torsions:
REMARK  status: ('A' for Active; 'I' for Inactive)
REMARK    1  A    between atoms: C_1  and  S_2
REMARK    2  A    between atoms: S_2  and  C_5
REMARK    3  A    between atoms: C_5  and  C_6
REMARK    4  A    between atoms: C_16  and  C_17
REMARK                            x       y       z     vdW  Elec       q    Type
REMARK                         _______ _______ _______ _____ _____    ______ ____
ROOT
ATOM      1  C   UNL     1       5.448   3.860  16.745  0.00  0.00    +0.000 A 
ATOM      2  N   UNL     1       4.109   3.605  16.762  0.00  0.00    +0.000 NA
ATOM      3  C   UNL     1       3.371   3.961  17.817  0.00  0.00    +0.000 A 
ATOM      4  C   UNL     1       2.000   3.736  17.798  0.00  0.00    +0.000 A 
ATOM      5  C   UNL     1       1.184   4.074  18.881  0.00  0.00    +0.000 A 
ATOM      6  C   UNL     1       1.743   4.639  20.020  0.00  0.00    +0.000 A 
ATOM      7  C   UNL     1       3.113   4.885  20.054  0.00  0.00    +0.000 A 
ATOM      8  C   UNL     1       3.934   4.564  18.946  0.00  0.00    +0.000 A 
ATOM      9  N   UNL     1       5.318   4.853  18.926  0.00  0.00    +0.000 N 
ATOM     10  O   UNL     1       5.823   5.441  19.959  0.00  0.00    +0.000 OA
ATOM     11  C   UNL     1       6.082   4.521  17.804  0.00  0.00    +0.000 A 
ENDROOT
BRANCH  11  12
ATOM     12  C   UNL     1       7.500   4.960  17.754  0.00  0.00    +0.000 C 
ATOM     13  N   UNL     1       7.774   6.279  17.540  0.00  0.00    +0.000 N 
ATOM     14  O   UNL     1       8.427   4.162  17.841  0.00  0.00    +0.000 OA
ATOM     15  H   UNL     1       7.006   6.953  17.463  0.00  0.00    +0.000 HD
ATOM     16  H   UNL     1       8.729   6.601  17.472  0.00  0.00    +0.000 HD
ENDBRANCH  11  12
BRANCH   1  17
ATOM     17  C   UNL     1       6.117   3.367  15.496  0.00  0.00    +0.000 C 
BRANCH  17  19
ATOM     18  C   UNL     1       6.306   4.057  12.755  0.00  0.00    +0.000 C 
ATOM     19  S   UNL     1       6.401   4.744  14.396  0.00  0.00    +0.000 S 
ATOM     20  O   UNL     1       7.755   5.235  14.571  0.00  0.00    +0.000 OA
ATOM     21  O   UNL     1       5.268   5.645  14.527  0.00  0.00    +0.000 OA
ENDBRANCH  17  19
ENDBRANCH   1  17
TORSDOF 3
ENDMDL
MODEL 4
REMARK VINA RESULT:      -6.9      2.561      5.220
REMARK  Name = 
REMARK  4 active torsions:
REMARK  status: ('A' for Active; 'I' for Inactive)
REMARK    1  A    between atoms: C_1  and  S_2
REMARK    2  A    between atoms: S_2  and  C_5
REMARK    3  A    between atoms: C_5  and  C_6
REMARK    4  A    between atoms: C_16  and  C_17
REMARK                            x       y       z     vdW  Elec       q    Type
REMARK                         _______ _______ _______ _____ _____    ______ ____
ROOT
ATOM      1  C   UNL     1       4.508   3.775  18.985  0.00  0.00    +0.000 A 
ATOM      2  N   UNL     1       5.697   4.193  19.503  0.00  0.00    +0.000 NA
ATOM      3  C   UNL     1       6.342   5.227  18.955  0.00  0.00    +0.000 A 
ATOM      4  C   UNL     1       7.530   5.670  19.526  0.00  0.00    +0.000 A 
ATOM      5  C   UNL     1       8.253   6.735  18.983  0.00  0.00    +0.000 A 
ATOM      6  C   UNL     1       7.795   7.371  17.837  0.00  0.00    +0.000 A 
ATOM      7  C   UNL     1       6.600   6.951  17.258  0.00  0.00    +0.000 A 
ATOM      8  C   UNL     1       5.856   5.887  17.823  0.00  0.00    +0.000 A 
ATOM      9  N   UNL     1       4.612   5.474  17.294  0.00  0.00    +0.000 N 
ATOM     10  O   UNL     1       4.155   6.113  16.268  0.00  0.00    +0.000 OA
ATOM     11  C   UNL     1       3.915   4.422  17.894  0.00  0.00    +0.000 A 
ENDROOT
BRANCH  11  12
ATOM     12  C   UNL     1       2.551   4.102  17.404  0.00  0.00    +0.000 C 
ATOM     13  N   UNL     1       1.520   4.933  17.732  0.00  0.00    +0.000 N 
ATOM     14  O   UNL     1       2.317   3.083  16.764  0.00  0.00    +0.000 OA
ATOM     15  H   UNL     1       1.706   5.787  18.269  0.00  0.00    +0.000 HD
ATOM     16  H   UNL     1       0.577   4.724  17.437  0.00  0.00    +0.000 HD
ENDBRANCH  11  12
BRANCH   1  17
ATOM     17  C   UNL     1       3.944   2.588  19.710  0.00  0.00    +0.000 C 
BRANCH  17  19
ATOM     18  C   UNL     1       1.154   2.526  20.193  0.00  0.00    +0.000 C 
ATOM     19  S   UNL     1       2.690   3.140  20.855  0.00  0.00    +0.000 S 
ATOM     20  O   UNL     1       2.612   4.589  20.830  0.00  0.00    +0.000 OA
ATOM     21  O   UNL     1       2.905   2.435  22.107  0.00  0.00    +0.000 OA
ENDBRANCH  17  19
ENDBRANCH   1  17
TORSDOF 3
ENDMDL
MODEL 5
REMARK VINA RESULT:      -6.9      2.322      3.234
REMARK  Name = 
REMARK  4 active torsions:
REMARK  status: ('A' for Active; 'I' for Inactive)
REMARK    1  A    between atoms: C_1  and  S_2
REMARK    2  A    between atoms: S_2  and  C_5
REMARK    3  A    between atoms: C_5  and  C_6
REMARK    4  A    between atoms: C_16  and  C_17
REMARK                            x       y       z     vdW  Elec       q    Type
REMARK                         _______ _______ _______ _____ _____    ______ ____
ROOT
ATOM      1  C   UNL     1       4.011   4.609  17.943  0.00  0.00    +0.000 A 
ATOM      2  N   UNL     1       3.648   5.922  17.912  0.00  0.00    +0.000 NA
ATOM      3  C   UNL     1       2.853   6.422  18.862  0.00  0.00    +0.000 A 
ATOM      4  C   UNL     1       2.531   7.775  18.841  0.00  0.00    +0.000 A 
ATOM      5  C   UNL     1       1.691   8.345  19.801  0.00  0.00    +0.000 A 
ATOM      6  C   UNL     1       1.145   7.553  20.802  0.00  0.00    +0.000 A 
ATOM      7  C   UNL     1       1.466   6.199  20.849  0.00  0.00    +0.000 A 
ATOM      8  C   UNL     1       2.337   5.628  19.890  0.00  0.00    +0.000 A 
ATOM      9  N   UNL     1       2.728   4.270  19.942  0.00  0.00    +0.000 N 
ATOM     10  O   UNL     1       2.273   3.552  20.915  0.00  0.00    +0.000 OA
ATOM     11  C   UNL     1       3.595   3.758  18.974  0.00  0.00    +0.000 A 
ENDROOT
BRANCH  11  12
ATOM     12  C   UNL     1       4.098   2.370  19.132  0.00  0.00    +0.000 C 
ATOM     13  N   UNL     1       5.123   2.135  20.001  0.00  0.00    +0.000 N 
ATOM     14  O   UNL     1       3.657   1.443  18.462  0.00  0.00    +0.000 OA
ATOM     15  H   UNL     1       5.500   2.905  20.564  0.00  0.00    +0.000 HD
ATOM     16  H   UNL     1       5.504   1.206  20.108  0.00  0.00    +0.000 HD
ENDBRANCH  11  12
BRANCH   1  17
ATOM     17  C   UNL     1       4.882   4.220  16.784  0.00  0.00    +0.000 C 
BRANCH  17  19
ATOM     18  C   UNL     1       6.512   6.523  17.028  0.00  0.00    +0.000 C 
ATOM     19  S   UNL     1       6.558   4.743  17.104  0.00  0.00    +0.000 S 
ATOM     20  O   UNL     1       7.421   4.296  16.027  0.00  0.00    +0.000 OA
ATOM     21  O   UNL     1       6.864   4.402  18.483  0.00  0.00    +0.000 OA
ENDBRANCH  17  19
ENDBRANCH   1  17
TORSDOF 3
ENDMDL
MODEL 6
REMARK VINA RESULT:      -6.7      2.461      3.520
REMARK  Name = 
REMARK  4 active torsions:
REMARK  status: ('A' for Active; 'I' for Inactive)
REMARK    1  A    between atoms: C_1  and  S_2
REMARK    2  A    between atoms: S_2  and  C_5
REMARK    3  A    between atoms: C_5  and  C_6
REMARK    4  A    between atoms: C_16  and  C_17
REMARK                            x       y       z     vdW  Elec       q    Type
REMARK                         _______ _______ _______ _____ _____    ______ ____
ROOT
ATOM      1  C   UNL     1       3.710   5.007  17.755  0.00  0.00    +0.000 A 
ATOM      2  N   UNL     1       3.298   6.306  17.738  0.00  0.00    +0.000 NA
ATOM      3  C   UNL     1       2.617   6.809  18.771  0.00  0.00    +0.000 A 
ATOM      4  C   UNL     1       2.246   8.149  18.757  0.00  0.00    +0.000 A 
ATOM      5  C   UNL     1       1.519   8.721  19.804  0.00  0.00    +0.000 A 
ATOM      6  C   UNL     1       1.137   7.942  20.888  0.00  0.00    +0.000 A 
ATOM      7  C   UNL     1       1.510   6.601  20.928  0.00  0.00    +0.000 A 
ATOM      8  C   UNL     1       2.268   6.030  19.878  0.00  0.00    +0.000 A 
ATOM      9  N   UNL     1       2.712   4.688  19.914  0.00  0.00    +0.000 N 
ATOM     10  O   UNL     1       2.414   3.985  20.956  0.00  0.00    +0.000 OA
ATOM     11  C   UNL     1       3.464   4.175  18.853  0.00  0.00    +0.000 A 
ENDROOT
BRANCH  11  12
ATOM     12  C   UNL     1       4.032   2.809  18.980  0.00  0.00    +0.000 C 
ATOM     13  N   UNL     1       5.177   2.637  19.701  0.00  0.00    +0.000 N 
ATOM     14  O   UNL     1       3.535   1.846  18.408  0.00  0.00    +0.000 OA
ATOM     15  H   UNL     1       5.603   3.437  20.181  0.00  0.00    +0.000 HD
ATOM     16  H   UNL     1       5.603   1.724  19.780  0.00  0.00    +0.000 HD
ENDBRANCH  11  12
BRANCH   1  17
ATOM     17  C   UNL     1       4.435   4.611  16.502  0.00  0.00    +0.000 C 
BRANCH  17  19
ATOM     18  C   UNL     1       6.950   4.427  15.212  0.00  0.00    +0.000 C 
ATOM     19  S   UNL     1       6.118   5.203  16.583  0.00  0.00    +0.000 S 
ATOM     20  O   UNL     1       6.749   4.710  17.794  0.00  0.00    +0.000 OA
ATOM     21  O   UNL     1       6.092   6.626  16.293  0.00  0.00    +0.000 OA
ENDBRANCH  17  19
ENDBRANCH   1  17
TORSDOF 3
ENDMDL
MODEL 7
REMARK VINA RESULT:      -6.7      2.050      3.711
REMARK  Name = 
REMARK  4 active torsions:
REMARK  status: ('A' for Active; 'I' for Inactive)
REMARK    1  A    between atoms: C_1  and  S_2
REMARK    2  A    between atoms: S_2  and  C_5
REMARK    3  A    between atoms: C_5  and  C_6
REMARK    4  A    between atoms: C_16  and  C_17
REMARK                            x       y       z     vdW  Elec       q    Type
REMARK                         _______ _______ _______ _____ _____    ______ ____
ROOT
ATOM      1  C   UNL     1       5.951   4.265  16.986  0.00  0.00    +0.000 A 
ATOM      2  N   UNL     1       4.774   3.646  16.687  0.00  0.00    +0.000 NA
ATOM      3  C   UNL     1       3.723   3.773  17.502  0.00  0.00    +0.000 A 
ATOM      4  C   UNL     1       2.516   3.174  17.158  0.00  0.00    +0.000 A 
ATOM      5  C   UNL     1       1.392   3.261  17.982  0.00  0.00    +0.000 A 
ATOM      6  C   UNL     1       1.467   3.949  19.187  0.00  0.00    +0.000 A 
ATOM      7  C   UNL     1       2.662   4.567  19.544  0.00  0.00    +0.000 A 
ATOM      8  C   UNL     1       3.794   4.498  18.695  0.00  0.00    +0.000 A 
ATOM      9  N   UNL     1       5.005   5.161  19.000  0.00  0.00    +0.000 N 
ATOM     10  O   UNL     1       5.050   5.857  20.088  0.00  0.00    +0.000 OA
ATOM     11  C   UNL     1       6.090   5.066  18.124  0.00  0.00    +0.000 A 
ENDROOT
BRANCH  11  12
ATOM     12  C   UNL     1       7.299   5.883  18.399  0.00  0.00    +0.000 C 
ATOM     13  N   UNL     1       8.066   5.580  19.486  0.00  0.00    +0.000 N 
ATOM     14  O   UNL     1       7.593   6.854  17.712  0.00  0.00    +0.000 OA
ATOM     15  H   UNL     1       7.826   4.771  20.069  0.00  0.00    +0.000 HD
ATOM     16  H   UNL     1       8.877   6.137  19.715  0.00  0.00    +0.000 HD
ENDBRANCH  11  12
BRANCH   1  17
ATOM     17  C   UNL     1       7.024   3.990  15.973  0.00  0.00    +0.000 C 
BRANCH  17  19
ATOM     18  C   UNL     1       6.090   3.857  13.303  0.00  0.00    +0.000 C 
ATOM     19  S   UNL     1       6.734   4.986  14.521  0.00  0.00    +0.000 S 
ATOM     20  O   UNL     1       7.999   5.481  14.010  0.00  0.00    +0.000 OA
ATOM     21  O   UNL     1       5.655   5.907  14.835  0.00  0.00    +0.000 OA
ENDBRANCH  17  19
ENDBRANCH   1  17
TORSDOF 3
ENDMDL
MODEL 8
REMARK VINA RESULT:      -6.7      0.856      1.056
REMARK  Name = 
REMARK  4 active torsions:
REMARK  status: ('A' for Active; 'I' for Inactive)
REMARK    1  A    between atoms: C_1  and  S_2
REMARK    2  A    between atoms: S_2  and  C_5
REMARK    3  A    between atoms: C_5  and  C_6
REMARK    4  A    between atoms: C_16  and  C_17
REMARK                            x       y       z     vdW  Elec       q    Type
REMARK                         _______ _______ _______ _____ _____    ______ ____
ROOT
ATOM      1  C   UNL     1       4.726   5.472  17.922  0.00  0.00    +0.000 A 
ATOM      2  N   UNL     1       4.075   5.574  19.115  0.00  0.00    +0.000 NA
ATOM      3  C   UNL     1       3.034   4.781  19.382  0.00  0.00    +0.000 A 
ATOM      4  C   UNL     1       2.412   4.867  20.623  0.00  0.00    +0.000 A 
ATOM      5  C   UNL     1       1.309   4.073  20.947  0.00  0.00    +0.000 A 
ATOM      6  C   UNL     1       0.799   3.180  20.014  0.00  0.00    +0.000 A 
ATOM      7  C   UNL     1       1.416   3.069  18.771  0.00  0.00    +0.000 A 
ATOM      8  C   UNL     1       2.549   3.857  18.453  0.00  0.00    +0.000 A 
ATOM      9  N   UNL     1       3.233   3.729  17.222  0.00  0.00    +0.000 N 
ATOM     10  O   UNL     1       2.799   2.847  16.383  0.00  0.00    +0.000 OA
ATOM     11  C   UNL     1       4.350   4.526  16.961  0.00  0.00    +0.000 A 
ENDROOT
BRANCH  11  12
ATOM     12  C   UNL     1       5.130   4.274  15.722  0.00  0.00    +0.000 C 
ATOM     13  N   UNL     1       5.830   3.109  15.610  0.00  0.00    +0.000 N 
ATOM     14  O   UNL     1       5.207   5.107  14.827  0.00  0.00    +0.000 OA
ATOM     15  H   UNL     1       5.774   2.407  16.356  0.00  0.00    +0.000 HD
ATOM     16  H   UNL     1       6.393   2.923  14.792  0.00  0.00    +0.000 HD
ENDBRANCH  11  12
BRANCH   1  17
ATOM     17  C   UNL     1       5.850   6.457  17.787  0.00  0.00    +0.000 C 
BRANCH  17  19
ATOM     18  C   UNL     1       7.932   4.537  17.763  0.00  0.00    +0.000 C 
ATOM     19  S   UNL     1       7.257   5.878  18.722  0.00  0.00    +0.000 S 
ATOM     20  O   UNL     1       6.804   5.312  19.980  0.00  0.00    +0.000 OA
ATOM     21  O   UNL     1       8.254   6.934  18.706  0.00  0.00    +0.000 OA
ENDBRANCH  17  19
ENDBRANCH   1  17
TORSDOF 3
ENDMDL
MODEL 9
REMARK VINA RESULT:      -6.7      2.453      3.523
REMARK  Name = 
REMARK  4 active torsions:
REMARK  status: ('A' for Active; 'I' for Inactive)
REMARK    1  A    between atoms: C_1  and  S_2
REMARK    2  A    between atoms: S_2  and  C_5
REMARK    3  A    between atoms: C_5  and  C_6
REMARK    4  A    between atoms: C_16  and  C_17
REMARK                            x       y       z     vdW  Elec       q    Type
REMARK                         _______ _______ _______ _____ _____    ______ ____
ROOT
ATOM      1  C   UNL     1       3.890   4.556  17.605  0.00  0.00    +0.000 A 
ATOM      2  N   UNL     1       3.546   5.870  17.495  0.00  0.00    +0.000 NA
ATOM      3  C   UNL     1       2.879   6.475  18.482  0.00  0.00    +0.000 A 
ATOM      4  C   UNL     1       2.578   7.828  18.373  0.00  0.00    +0.000 A 
ATOM      5  C   UNL     1       1.869   8.505  19.368  0.00  0.00    +0.000 A 
ATOM      6  C   UNL     1       1.434   7.821  20.496  0.00  0.00    +0.000 A 
ATOM      7  C   UNL     1       1.737   6.469  20.630  0.00  0.00    +0.000 A 
ATOM      8  C   UNL     1       2.477   5.791  19.632  0.00  0.00    +0.000 A 
ATOM      9  N   UNL     1       2.850   4.433  19.764  0.00  0.00    +0.000 N 
ATOM     10  O   UNL     1       2.504   3.818  20.846  0.00  0.00    +0.000 OA
ATOM     11  C   UNL     1       3.587   3.813  18.751  0.00  0.00    +0.000 A 
ENDROOT
BRANCH  11  12
ATOM     12  C   UNL     1       4.083   2.431  18.978  0.00  0.00    +0.000 C 
ATOM     13  N   UNL     1       5.106   2.235  19.858  0.00  0.00    +0.000 N 
ATOM     14  O   UNL     1       3.638   1.475  18.354  0.00  0.00    +0.000 OA
ATOM     15  H   UNL     1       5.487   3.029  20.383  0.00  0.00    +0.000 HD
ATOM     16  H   UNL     1       5.484   1.310  20.010  0.00  0.00    +0.000 HD
ENDBRANCH  11  12
BRANCH   1  17
ATOM     17  C   UNL     1       4.609   4.040  16.392  0.00  0.00    +0.000 C 
BRANCH  17  19
ATOM     18  C   UNL     1       6.936   4.778  17.829  0.00  0.00    +0.000 C 
ATOM     19  S   UNL     1       6.168   4.893  16.225  0.00  0.00    +0.000 S 
ATOM     20  O   UNL     1       5.927   6.301  15.972  0.00  0.00    +0.000 OA
ATOM     21  O   UNL     1       6.995   4.113  15.320  0.00  0.00    +0.000 OA
ENDBRANCH  17  19
ENDBRANCH   1  17
TORSDOF 3
ENDMDL
