MODEL 1
REMARK VINA RESULT:      -8.3      0.000      0.000
REMARK  Name = 
REMARK  4 active torsions:
REMARK  status: ('A' for Active; 'I' for Inactive)
REMARK    1  A    between atoms: C_1  and  N_2
REMARK    2  A    between atoms: C_16  and  O_17
REMARK    3  A    between atoms: O_17  and  C_18
REMARK    4  A    between atoms: C_21  and  O_22
REMARK                            x       y       z     vdW  Elec       q    Type
REMARK                         _______ _______ _______ _____ _____    ______ ____
ROOT
ATOM      1  C   UNL     1       1.342   2.433  19.471  0.00  0.00    +0.000 C 
ATOM      2  N   UNL     1       1.482   3.891  19.309  0.00  0.00    +0.000 NA
ATOM      3  C   UNL     1       1.355   4.251  17.873  0.00  0.00    +0.000 C 
ATOM      4  C   UNL     1       2.183   5.407  17.247  0.00  0.00    +0.000 C 
ATOM      5  C   UNL     1       3.266   5.974  18.190  0.00  0.00    +0.000 C 
ATOM      6  C   UNL     1       4.483   6.608  17.456  0.00  0.00    +0.000 C 
ATOM      7  C   UNL     1       5.538   5.598  16.995  0.00  0.00    +0.000 C 
ATOM      8  C   UNL     1       6.026   4.654  18.105  0.00  0.00    +0.000 C 
ATOM      9  C   UNL     1       5.210   4.782  19.401  0.00  0.00    +0.000 C 
ATOM     10  C   UNL     1       3.746   4.727  18.983  0.00  0.00    +0.000 C 
ATOM     11  C   UNL     1       2.705   4.361  20.023  0.00  0.00    +0.000 C 
ATOM     12  C   UNL     1       2.392   5.523  20.989  0.00  0.00    +0.000 C 
ATOM     13  C   UNL     1       2.089   6.828  20.304  0.00  0.00    +0.000 A 
ATOM     14  C   UNL     1       1.354   7.812  20.990  0.00  0.00    +0.000 A 
ATOM     15  C   UNL     1       0.956   8.986  20.346  0.00  0.00    +0.000 A 
ATOM     16  C   UNL     1       1.285   9.173  19.009  0.00  0.00    +0.000 A 
ATOM     17  C   UNL     1       2.129   8.266  18.368  0.00  0.00    +0.000 A 
ATOM     18  C   UNL     1       2.533   7.067  18.997  0.00  0.00    +0.000 A 
ENDROOT
BRANCH  16  19
ATOM     19  O   UNL     1       0.818  10.234  18.256  0.00  0.00    +0.000 OA
BRANCH  19  20
ATOM     20  C   UNL     1      -0.509  10.594  18.361  0.00  0.00    +0.000 A 
ATOM     21  C   UNL     1      -1.400   9.882  17.554  0.00  0.00    +0.000 A 
ATOM     22  C   UNL     1      -2.752  10.238  17.515  0.00  0.00    +0.000 A 
ATOM     23  C   UNL     1      -3.203  11.301  18.293  0.00  0.00    +0.000 A 
ATOM     24  C   UNL     1      -2.345  11.964  19.166  0.00  0.00    +0.000 A 
ATOM     25  C   UNL     1      -0.997  11.595  19.212  0.00  0.00    +0.000 A 
BRANCH  23  26
ATOM     26  O   UNL     1      -4.493  11.734  18.224  0.00  0.00    +0.000 OA
ATOM     27  H   UNL     1      -5.070  11.032  18.566  0.00  0.00    +0.000 HD
ENDBRANCH  23  26
ENDBRANCH  19  20
ENDBRANCH  16  19
TORSDOF 3
ENDMDL
MODEL 2
REMARK VINA RESULT:      -8.1      3.061      7.593
REMARK  Name = 
REMARK  4 active torsions:
REMARK  status: ('A' for Active; 'I' for Inactive)
REMARK    1  A    between atoms: C_1  and  N_2
REMARK    2  A    between atoms: C_16  and  O_17
REMARK    3  A    between atoms: O_17  and  C_18
REMARK    4  A    between atoms: C_21  and  O_22
REMARK                            x       y       z     vdW  Elec       q    Type
REMARK                         _______ _______ _______ _____ _____    ______ ____
ROOT
ATOM      1  C   UNL     1      -0.028  14.740  20.471  0.00  0.00    +0.000 C 
ATOM      2  N   UNL     1       0.212  13.292  20.350  0.00  0.00    +0.000 NA
ATOM      3  C   UNL     1       0.944  13.008  19.088  0.00  0.00    +0.000 C 
ATOM      4  C   UNL     1       0.674  11.718  18.264  0.00  0.00    +0.000 C 
ATOM      5  C   UNL     1      -0.540  10.907  18.763  0.00  0.00    +0.000 C 
ATOM      6  C   UNL     1      -1.229  10.047  17.664  0.00  0.00    +0.000 C 
ATOM      7  C   UNL     1      -2.217  10.819  16.785  0.00  0.00    +0.000 C 
ATOM      8  C   UNL     1      -3.274  11.605  17.578  0.00  0.00    +0.000 C 
ATOM      9  C   UNL     1      -3.000  11.620  19.090  0.00  0.00    +0.000 C 
ATOM     10  C   UNL     1      -1.533  11.999  19.248  0.00  0.00    +0.000 C 
ATOM     11  C   UNL     1      -1.062  12.551  20.579  0.00  0.00    +0.000 C 
ATOM     12  C   UNL     1      -0.902  11.457  21.656  0.00  0.00    +0.000 C 
ATOM     13  C   UNL     1      -0.098  10.266  21.209  0.00  0.00    +0.000 A 
ATOM     14  C   UNL     1       0.512   9.445  22.174  0.00  0.00    +0.000 A 
ATOM     15  C   UNL     1       1.359   8.402  21.793  0.00  0.00    +0.000 A 
ATOM     16  C   UNL     1       1.606   8.186  20.442  0.00  0.00    +0.000 A 
ATOM     17  C   UNL     1       0.897   8.907  19.482  0.00  0.00    +0.000 A 
ATOM     18  C   UNL     1       0.044   9.974  19.846  0.00  0.00    +0.000 A 
ENDROOT
BRANCH  16  19
ATOM     19  O   UNL     1       2.533   7.270  19.979  0.00  0.00    +0.000 OA
BRANCH  19  20
ATOM     20  C   UNL     1       2.114   5.991  19.679  0.00  0.00    +0.000 A 
ATOM     21  C   UNL     1       2.307   5.578  18.359  0.00  0.00    +0.000 A 
ATOM     22  C   UNL     1       1.827   4.337  17.932  0.00  0.00    +0.000 A 
ATOM     23  C   UNL     1       1.162   3.512  18.835  0.00  0.00    +0.000 A 
ATOM     24  C   UNL     1       1.037   3.871  20.174  0.00  0.00    +0.000 A 
ATOM     25  C   UNL     1       1.532   5.108  20.600  0.00  0.00    +0.000 A 
BRANCH  23  26
ATOM     26  O   UNL     1       0.606   2.332  18.442  0.00  0.00    +0.000 OA
ATOM     27  H   UNL     1       0.350   2.409  17.509  0.00  0.00    +0.000 HD
ENDBRANCH  23  26
ENDBRANCH  19  20
ENDBRANCH  16  19
TORSDOF 3
ENDMDL
MODEL 3
REMARK VINA RESULT:      -8.0      3.086      7.712
REMARK  Name = 
REMARK  4 active torsions:
REMARK  status: ('A' for Active; 'I' for Inactive)
REMARK    1  A    between atoms: C_1  and  N_2
REMARK    2  A    between atoms: C_16  and  O_17
REMARK    3  A    between atoms: O_17  and  C_18
REMARK    4  A    between atoms: C_21  and  O_22
REMARK                            x       y       z     vdW  Elec       q    Type
REMARK                         _______ _______ _______ _____ _____    ______ ____
ROOT
ATOM      1  C   UNL     1      -0.491  14.894  20.371  0.00  0.00    +0.000 C 
ATOM      2  N   UNL     1      -0.178  13.456  20.291  0.00  0.00    +0.000 NA
ATOM      3  C   UNL     1       0.604  13.180  19.057  0.00  0.00    +0.000 C 
ATOM      4  C   UNL     1       0.421  11.861  18.257  0.00  0.00    +0.000 C 
ATOM      5  C   UNL     1      -0.767  11.002  18.739  0.00  0.00    +0.000 C 
ATOM      6  C   UNL     1      -1.381  10.086  17.642  0.00  0.00    +0.000 C 
ATOM      7  C   UNL     1      -2.379  10.789  16.718  0.00  0.00    +0.000 C 
ATOM      8  C   UNL     1      -3.495  11.540  17.461  0.00  0.00    +0.000 C 
ATOM      9  C   UNL     1      -3.267  11.602  18.980  0.00  0.00    +0.000 C 
ATOM     10  C   UNL     1      -1.825  12.055  19.170  0.00  0.00    +0.000 C 
ATOM     11  C   UNL     1      -1.421  12.659  20.501  0.00  0.00    +0.000 C 
ATOM     12  C   UNL     1      -1.241  11.598  21.607  0.00  0.00    +0.000 C 
ATOM     13  C   UNL     1      -0.367  10.439  21.211  0.00  0.00    +0.000 A 
ATOM     14  C   UNL     1       0.253   9.670  22.212  0.00  0.00    +0.000 A 
ATOM     15  C   UNL     1       1.160   8.661  21.880  0.00  0.00    +0.000 A 
ATOM     16  C   UNL     1       1.457   8.427  20.542  0.00  0.00    +0.000 A 
ATOM     17  C   UNL     1       0.743   9.092  19.546  0.00  0.00    +0.000 A 
ATOM     18  C   UNL     1      -0.171  10.123  19.860  0.00  0.00    +0.000 A 
ENDROOT
BRANCH  16  19
ATOM     19  O   UNL     1       2.440   7.548  20.128  0.00  0.00    +0.000 OA
BRANCH  19  20
ATOM     20  C   UNL     1       2.068   6.307  19.654  0.00  0.00    +0.000 A 
ATOM     21  C   UNL     1       1.509   5.437  20.593  0.00  0.00    +0.000 A 
ATOM     22  C   UNL     1       1.192   4.124  20.234  0.00  0.00    +0.000 A 
ATOM     23  C   UNL     1       1.429   3.694  18.931  0.00  0.00    +0.000 A 
ATOM     24  C   UNL     1       1.904   4.573  17.962  0.00  0.00    +0.000 A 
ATOM     25  C   UNL     1       2.207   5.890  18.323  0.00  0.00    +0.000 A 
BRANCH  23  26
ATOM     26  O   UNL     1       1.211   2.401  18.560  0.00  0.00    +0.000 OA
ATOM     27  H   UNL     1       1.250   1.843  19.354  0.00  0.00    +0.000 HD
ENDBRANCH  23  26
ENDBRANCH  19  20
ENDBRANCH  16  19
TORSDOF 3
ENDMDL
MODEL 4
REMARK VINA RESULT:      -8.0      1.376      1.652
REMARK  Name = 
REMARK  4 active torsions:
REMARK  status: ('A' for Active; 'I' for Inactive)
REMARK    1  A    between atoms: C_1  and  N_2
REMARK    2  A    between atoms: C_16  and  O_17
REMARK    3  A    between atoms: O_17  and  C_18
REMARK    4  A    between atoms: C_21  and  O_22
REMARK                            x       y       z     vdW  Elec       q    Type
REMARK                         _______ _______ _______ _____ _____    ______ ____
ROOT
ATOM      1  C   UNL     1       3.493   1.773  18.487  0.00  0.00    +0.000 C 
ATOM      2  N   UNL     1       3.327   3.235  18.415  0.00  0.00    +0.000 NA
ATOM      3  C   UNL     1       3.388   3.678  16.997  0.00  0.00    +0.000 C 
ATOM      4  C   UNL     1       4.034   5.033  16.596  0.00  0.00    +0.000 C 
ATOM      5  C   UNL     1       4.769   5.737  17.756  0.00  0.00    +0.000 C 
ATOM      6  C   UNL     1       5.925   6.676  17.305  0.00  0.00    +0.000 C 
ATOM      7  C   UNL     1       7.247   5.957  17.021  0.00  0.00    +0.000 C 
ATOM      8  C   UNL     1       7.723   5.050  18.166  0.00  0.00    +0.000 C 
ATOM      9  C   UNL     1       6.674   4.891  19.279  0.00  0.00    +0.000 C 
ATOM     10  C   UNL     1       5.364   4.560  18.578  0.00  0.00    +0.000 C 
ATOM     11  C   UNL     1       4.259   3.894  19.375  0.00  0.00    +0.000 C 
ATOM     12  C   UNL     1       3.519   4.877  20.306  0.00  0.00    +0.000 C 
ATOM     13  C   UNL     1       3.060   6.140  19.629  0.00  0.00    +0.000 A 
ATOM     14  C   UNL     1       2.009   6.883  20.195  0.00  0.00    +0.000 A 
ATOM     15  C   UNL     1       1.481   7.994  19.533  0.00  0.00    +0.000 A 
ATOM     16  C   UNL     1       2.000   8.358  18.296  0.00  0.00    +0.000 A 
ATOM     17  C   UNL     1       3.130   7.710  17.799  0.00  0.00    +0.000 A 
ATOM     18  C   UNL     1       3.672   6.577  18.447  0.00  0.00    +0.000 A 
ENDROOT
BRANCH  16  19
ATOM     19  O   UNL     1       1.452   9.354  17.509  0.00  0.00    +0.000 OA
BRANCH  19  20
ATOM     20  C   UNL     1       0.458  10.151  18.038  0.00  0.00    +0.000 A 
ATOM     21  C   UNL     1      -0.848   9.827  17.664  0.00  0.00    +0.000 A 
ATOM     22  C   UNL     1      -1.916  10.634  18.068  0.00  0.00    +0.000 A 
ATOM     23  C   UNL     1      -1.667  11.757  18.852  0.00  0.00    +0.000 A 
ATOM     24  C   UNL     1      -0.383  12.045  19.304  0.00  0.00    +0.000 A 
ATOM     25  C   UNL     1       0.680  11.226  18.909  0.00  0.00    +0.000 A 
BRANCH  23  26
ATOM     26  O   UNL     1      -2.667  12.616  19.199  0.00  0.00    +0.000 OA
ATOM     27  H   UNL     1      -2.322  13.522  19.155  0.00  0.00    +0.000 HD
ENDBRANCH  23  26
ENDBRANCH  19  20
ENDBRANCH  16  19
TORSDOF 3
ENDMDL
MODEL 5
REMARK VINA RESULT:      -7.7      0.889      1.114
REMARK  Name = 
REMARK  4 active torsions:
REMARK  status: ('A' for Active; 'I' for Inactive)
REMARK    1  A    between atoms: C_1  and  N_2
REMARK    2  A    between atoms: C_16  and  O_17
REMARK    3  A    between atoms: O_17  and  C_18
REMARK    4  A    between atoms: C_21  and  O_22
REMARK                            x       y       z     vdW  Elec       q    Type
REMARK                         _______ _______ _______ _____ _____    ______ ____
ROOT
ATOM      1  C   UNL     1       1.377   2.246  19.560  0.00  0.00    +0.000 C 
ATOM      2  N   UNL     1       1.527   3.697  19.357  0.00  0.00    +0.000 NA
ATOM      3  C   UNL     1       1.364   4.022  17.916  0.00  0.00    +0.000 C 
ATOM      4  C   UNL     1       2.187   5.153  17.239  0.00  0.00    +0.000 C 
ATOM      5  C   UNL     1       3.300   5.732  18.136  0.00  0.00    +0.000 C 
ATOM      6  C   UNL     1       4.503   6.334  17.354  0.00  0.00    +0.000 C 
ATOM      7  C   UNL     1       5.535   5.302  16.890  0.00  0.00    +0.000 C 
ATOM      8  C   UNL     1       6.044   4.381  18.010  0.00  0.00    +0.000 C 
ATOM      9  C   UNL     1       5.265   4.550  19.324  0.00  0.00    +0.000 C 
ATOM     10  C   UNL     1       3.790   4.501  18.948  0.00  0.00    +0.000 C 
ATOM     11  C   UNL     1       2.774   4.172  20.025  0.00  0.00    +0.000 C 
ATOM     12  C   UNL     1       2.499   5.361  20.969  0.00  0.00    +0.000 C 
ATOM     13  C   UNL     1       2.191   6.652  20.260  0.00  0.00    +0.000 A 
ATOM     14  C   UNL     1       1.485   7.660  20.940  0.00  0.00    +0.000 A 
ATOM     15  C   UNL     1       1.080   8.822  20.277  0.00  0.00    +0.000 A 
ATOM     16  C   UNL     1       1.375   8.971  18.928  0.00  0.00    +0.000 A 
ATOM     17  C   UNL     1       2.192   8.040  18.287  0.00  0.00    +0.000 A 
ATOM     18  C   UNL     1       2.601   6.853  18.936  0.00  0.00    +0.000 A 
ENDROOT
BRANCH  16  19
ATOM     19  O   UNL     1       0.898  10.018  18.161  0.00  0.00    +0.000 OA
BRANCH  19  20
ATOM     20  C   UNL     1       0.050  10.938  18.741  0.00  0.00    +0.000 A 
ATOM     21  C   UNL     1      -1.316  10.696  18.579  0.00  0.00    +0.000 A 
ATOM     22  C   UNL     1      -2.254  11.622  19.045  0.00  0.00    +0.000 A 
ATOM     23  C   UNL     1      -1.816  12.782  19.679  0.00  0.00    +0.000 A 
ATOM     24  C   UNL     1      -0.463  12.995  19.925  0.00  0.00    +0.000 A 
ATOM     25  C   UNL     1       0.471  12.059  19.469  0.00  0.00    +0.000 A 
BRANCH  23  26
ATOM     26  O   UNL     1      -2.691  13.748  20.075  0.00  0.00    +0.000 OA
ATOM     27  H   UNL     1      -2.200  14.420  20.576  0.00  0.00    +0.000 HD
ENDBRANCH  23  26
ENDBRANCH  19  20
ENDBRANCH  16  19
TORSDOF 3
ENDMDL
MODEL 6
REMARK VINA RESULT:      -7.7      2.914      7.626
REMARK  Name = 
REMARK  4 active torsions:
REMARK  status: ('A' for Active; 'I' for Inactive)
REMARK    1  A    between atoms: C_1  and  N_2
REMARK    2  A    between atoms: C_16  and  O_17
REMARK    3  A    between atoms: O_17  and  C_18
REMARK    4  A    between atoms: C_21  and  O_22
REMARK                            x       y       z     vdW  Elec       q    Type
REMARK                         _______ _______ _______ _____ _____    ______ ____
ROOT
ATOM      1  C   UNL     1       0.982  13.753  21.610  0.00  0.00    +0.000 C 
ATOM      2  N   UNL     1       1.109  12.438  20.957  0.00  0.00    +0.000 NA
ATOM      3  C   UNL     1       1.609  12.614  19.569  0.00  0.00    +0.000 C 
ATOM      4  C   UNL     1       1.131  11.695  18.410  0.00  0.00    +0.000 C 
ATOM      5  C   UNL     1      -0.034  10.761  18.800  0.00  0.00    +0.000 C 
ATOM      6  C   UNL     1      -0.943  10.342  17.609  0.00  0.00    +0.000 C 
ATOM      7  C   UNL     1      -2.011  11.374  17.235  0.00  0.00    +0.000 C 
ATOM      8  C   UNL     1      -2.875  11.834  18.420  0.00  0.00    +0.000 C 
ATOM      9  C   UNL     1      -2.360  11.317  19.773  0.00  0.00    +0.000 C 
ATOM     10  C   UNL     1      -0.866  11.615  19.796  0.00  0.00    +0.000 C 
ATOM     11  C   UNL     1      -0.154  11.665  21.133  0.00  0.00    +0.000 C 
ATOM     12  C   UNL     1       0.110  10.263  21.721  0.00  0.00    +0.000 C 
ATOM     13  C   UNL     1       0.757   9.304  20.759  0.00  0.00    +0.000 A 
ATOM     14  C   UNL     1       1.463   8.196  21.261  0.00  0.00    +0.000 A 
ATOM     15  C   UNL     1       2.173   7.352  20.402  0.00  0.00    +0.000 A 
ATOM     16  C   UNL     1       2.184   7.623  19.039  0.00  0.00    +0.000 A 
ATOM     17  C   UNL     1       1.375   8.636  18.525  0.00  0.00    +0.000 A 
ATOM     18  C   UNL     1       0.659   9.507  19.376  0.00  0.00    +0.000 A 
ENDROOT
BRANCH  16  19
ATOM     19  O   UNL     1       2.966   6.926  18.136  0.00  0.00    +0.000 OA
BRANCH  19  20
ATOM     20  C   UNL     1       2.965   5.548  18.178  0.00  0.00    +0.000 A 
ATOM     21  C   UNL     1       1.754   4.927  17.862  0.00  0.00    +0.000 A 
ATOM     22  C   UNL     1       1.626   3.539  17.972  0.00  0.00    +0.000 A 
ATOM     23  C   UNL     1       2.716   2.781  18.389  0.00  0.00    +0.000 A 
ATOM     24  C   UNL     1       3.953   3.374  18.623  0.00  0.00    +0.000 A 
ATOM     25  C   UNL     1       4.081   4.762  18.499  0.00  0.00    +0.000 A 
BRANCH  23  26
ATOM     26  O   UNL     1       2.611   1.437  18.589  0.00  0.00    +0.000 OA
ATOM     27  H   UNL     1       2.063   1.286  19.376  0.00  0.00    +0.000 HD
ENDBRANCH  23  26
ENDBRANCH  19  20
ENDBRANCH  16  19
TORSDOF 3
ENDMDL
MODEL 7
REMARK VINA RESULT:      -7.6      1.829      3.473
REMARK  Name = 
REMARK  4 active torsions:
REMARK  status: ('A' for Active; 'I' for Inactive)
REMARK    1  A    between atoms: C_1  and  N_2
REMARK    2  A    between atoms: C_16  and  O_17
REMARK    3  A    between atoms: O_17  and  C_18
REMARK    4  A    between atoms: C_21  and  O_22
REMARK                            x       y       z     vdW  Elec       q    Type
REMARK                         _______ _______ _______ _____ _____    ______ ____
ROOT
ATOM      1  C   UNL     1       7.244   4.751  17.752  0.00  0.00    +0.000 C 
ATOM      2  N   UNL     1       5.976   5.398  18.129  0.00  0.00    +0.000 NA
ATOM      3  C   UNL     1       5.656   5.087  19.547  0.00  0.00    +0.000 C 
ATOM      4  C   UNL     1       4.191   4.879  20.023  0.00  0.00    +0.000 C 
ATOM      5  C   UNL     1       3.167   4.819  18.870  0.00  0.00    +0.000 C 
ATOM      6  C   UNL     1       1.887   3.996  19.195  0.00  0.00    +0.000 C 
ATOM      7  C   UNL     1       2.046   2.484  19.015  0.00  0.00    +0.000 C 
ATOM      8  C   UNL     1       2.601   2.074  17.642  0.00  0.00    +0.000 C 
ATOM      9  C   UNL     1       3.073   3.273  16.804  0.00  0.00    +0.000 C 
ATOM     10  C   UNL     1       3.947   4.112  17.728  0.00  0.00    +0.000 C 
ATOM     11  C   UNL     1       4.930   5.088  17.111  0.00  0.00    +0.000 C 
ATOM     12  C   UNL     1       4.250   6.368  16.583  0.00  0.00    +0.000 C 
ATOM     13  C   UNL     1       3.326   7.027  17.571  0.00  0.00    +0.000 A 
ATOM     14  C   UNL     1       3.016   8.391  17.421  0.00  0.00    +0.000 A 
ATOM     15  C   UNL     1       2.257   9.061  18.384  0.00  0.00    +0.000 A 
ATOM     16  C   UNL     1       1.815   8.369  19.504  0.00  0.00    +0.000 A 
ATOM     17  C   UNL     1       2.002   6.989  19.587  0.00  0.00    +0.000 A 
ATOM     18  C   UNL     1       2.776   6.294  18.631  0.00  0.00    +0.000 A 
ENDROOT
BRANCH  16  19
ATOM     19  O   UNL     1       1.179   8.979  20.569  0.00  0.00    +0.000 OA
BRANCH  19  20
ATOM     20  C   UNL     1       0.515  10.169  20.356  0.00  0.00    +0.000 A 
ATOM     21  C   UNL     1      -0.691  10.079  19.657  0.00  0.00    +0.000 A 
ATOM     22  C   UNL     1      -1.389  11.238  19.305  0.00  0.00    +0.000 A 
ATOM     23  C   UNL     1      -0.876  12.481  19.665  0.00  0.00    +0.000 A 
ATOM     24  C   UNL     1       0.278  12.585  20.436  0.00  0.00    +0.000 A 
ATOM     25  C   UNL     1       0.965  11.421  20.798  0.00  0.00    +0.000 A 
BRANCH  23  26
ATOM     26  O   UNL     1      -1.480  13.638  19.272  0.00  0.00    +0.000 OA
ATOM     27  H   UNL     1      -2.440  13.533  19.374  0.00  0.00    +0.000 HD
ENDBRANCH  23  26
ENDBRANCH  19  20
ENDBRANCH  16  19
TORSDOF 3
ENDMDL
MODEL 8
REMARK VINA RESULT:      -7.5      1.914      2.478
REMARK  Name = 
REMARK  4 active torsions:
REMARK  status: ('A' for Active; 'I' for Inactive)
REMARK    1  A    between atoms: C_1  and  N_2
REMARK    2  A    between atoms: C_16  and  O_17
REMARK    3  A    between atoms: O_17  and  C_18
REMARK    4  A    between atoms: C_21  and  O_22
REMARK                            x       y       z     vdW  Elec       q    Type
REMARK                         _______ _______ _______ _____ _____    ______ ____
ROOT
ATOM      1  C   UNL     1       3.420   1.650  18.504  0.00  0.00    +0.000 C 
ATOM      2  N   UNL     1       3.290   3.114  18.409  0.00  0.00    +0.000 NA
ATOM      3  C   UNL     1       3.293   3.527  16.981  0.00  0.00    +0.000 C 
ATOM      4  C   UNL     1       3.955   4.855  16.520  0.00  0.00    +0.000 C 
ATOM      5  C   UNL     1       4.764   5.561  17.628  0.00  0.00    +0.000 C 
ATOM      6  C   UNL     1       5.922   6.458  17.100  0.00  0.00    +0.000 C 
ATOM      7  C   UNL     1       7.208   5.698  16.767  0.00  0.00    +0.000 C 
ATOM      8  C   UNL     1       7.716   4.801  17.907  0.00  0.00    +0.000 C 
ATOM      9  C   UNL     1       6.720   4.693  19.073  0.00  0.00    +0.000 C 
ATOM     10  C   UNL     1       5.367   4.385  18.444  0.00  0.00    +0.000 C 
ATOM     11  C   UNL     1       4.286   3.767  19.308  0.00  0.00    +0.000 C 
ATOM     12  C   UNL     1       3.620   4.788  20.253  0.00  0.00    +0.000 C 
ATOM     13  C   UNL     1       3.162   6.049  19.572  0.00  0.00    +0.000 A 
ATOM     14  C   UNL     1       2.160   6.832  20.174  0.00  0.00    +0.000 A 
ATOM     15  C   UNL     1       1.631   7.945  19.515  0.00  0.00    +0.000 A 
ATOM     16  C   UNL     1       2.097   8.269  18.247  0.00  0.00    +0.000 A 
ATOM     17  C   UNL     1       3.184   7.580  17.708  0.00  0.00    +0.000 A 
ATOM     18  C   UNL     1       3.726   6.446  18.353  0.00  0.00    +0.000 A 
ENDROOT
BRANCH  16  19
ATOM     19  O   UNL     1       1.538   9.265  17.466  0.00  0.00    +0.000 OA
BRANCH  19  20
ATOM     20  C   UNL     1       1.151  10.444  18.067  0.00  0.00    +0.000 A 
ATOM     21  C   UNL     1       2.143  11.419  18.197  0.00  0.00    +0.000 A 
ATOM     22  C   UNL     1       1.876  12.609  18.880  0.00  0.00    +0.000 A 
ATOM     23  C   UNL     1       0.611  12.818  19.422  0.00  0.00    +0.000 A 
ATOM     24  C   UNL     1      -0.413  11.896  19.227  0.00  0.00    +0.000 A 
ATOM     25  C   UNL     1      -0.144  10.712  18.530  0.00  0.00    +0.000 A 
BRANCH  23  26
ATOM     26  O   UNL     1       0.331  13.925  20.165  0.00  0.00    +0.000 OA
ATOM     27  H   UNL     1       1.120  14.491  20.181  0.00  0.00    +0.000 HD
ENDBRANCH  23  26
ENDBRANCH  19  20
ENDBRANCH  16  19
TORSDOF 3
ENDMDL
MODEL 9
REMARK VINA RESULT:      -7.5      1.737      2.506
REMARK  Name = 
REMARK  4 active torsions:
REMARK  status: ('A' for Active; 'I' for Inactive)
REMARK    1  A    between atoms: C_1  and  N_2
REMARK    2  A    between atoms: C_16  and  O_17
REMARK    3  A    between atoms: O_17  and  C_18
REMARK    4  A    between atoms: C_21  and  O_22
REMARK                            x       y       z     vdW  Elec       q    Type
REMARK                         _______ _______ _______ _____ _____    ______ ____
ROOT
ATOM      1  C   UNL     1       1.409   2.407  19.622  0.00  0.00    +0.000 C 
ATOM      2  N   UNL     1       1.526   3.861  19.415  0.00  0.00    +0.000 NA
ATOM      3  C   UNL     1       1.362   4.177  17.972  0.00  0.00    +0.000 C 
ATOM      4  C   UNL     1       2.160   5.325  17.295  0.00  0.00    +0.000 C 
ATOM      5  C   UNL     1       3.257   5.932  18.195  0.00  0.00    +0.000 C 
ATOM      6  C   UNL     1       4.449   6.559  17.415  0.00  0.00    +0.000 C 
ATOM      7  C   UNL     1       5.506   5.549  16.959  0.00  0.00    +0.000 C 
ATOM      8  C   UNL     1       6.031   4.644  18.084  0.00  0.00    +0.000 C 
ATOM      9  C   UNL     1       5.243   4.799  19.394  0.00  0.00    +0.000 C 
ATOM     10  C   UNL     1       3.771   4.715  19.012  0.00  0.00    +0.000 C 
ATOM     11  C   UNL     1       2.759   4.367  20.086  0.00  0.00    +0.000 C 
ATOM     12  C   UNL     1       2.453   5.552  21.025  0.00  0.00    +0.000 C 
ATOM     13  C   UNL     1       2.118   6.833  20.311  0.00  0.00    +0.000 A 
ATOM     14  C   UNL     1       1.386   7.827  20.985  0.00  0.00    +0.000 A 
ATOM     15  C   UNL     1       0.959   8.977  20.317  0.00  0.00    +0.000 A 
ATOM     16  C   UNL     1       1.255   9.129  18.968  0.00  0.00    +0.000 A 
ATOM     17  C   UNL     1       2.095   8.215  18.334  0.00  0.00    +0.000 A 
ATOM     18  C   UNL     1       2.529   7.040  18.987  0.00  0.00    +0.000 A 
ENDROOT
BRANCH  16  19
ATOM     19  O   UNL     1       0.757  10.163  18.195  0.00  0.00    +0.000 OA
BRANCH  19  20
ATOM     20  C   UNL     1       0.984  11.463  18.596  0.00  0.00    +0.000 A 
ATOM     21  C   UNL     1       2.246  11.983  18.300  0.00  0.00    +0.000 A 
ATOM     22  C   UNL     1       2.606  13.256  18.751  0.00  0.00    +0.000 A 
ATOM     23  C   UNL     1       1.694  14.004  19.490  0.00  0.00    +0.000 A 
ATOM     24  C   UNL     1       0.403  13.536  19.720  0.00  0.00    +0.000 A 
ATOM     25  C   UNL     1       0.043  12.267  19.254  0.00  0.00    +0.000 A 
BRANCH  23  26
ATOM     26  O   UNL     1       2.031  15.214  20.019  0.00  0.00    +0.000 OA
ATOM     27  H   UNL     1       1.761  15.226  20.952  0.00  0.00    +0.000 HD
ENDBRANCH  23  26
ENDBRANCH  19  20
ENDBRANCH  16  19
TORSDOF 3
ENDMDL
