MODEL 1
REMARK VINA RESULT:      -7.3      0.000      0.000
REMARK  Name = 
REMARK  4 active torsions:
REMARK  status: ('A' for Active; 'I' for Inactive)
REMARK    1  A    between atoms: C_1  and  S_2
REMARK    2  A    between atoms: S_2  and  N_5
REMARK    3  A    between atoms: C_12  and  C_13
REMARK    4  A    between atoms: N_15  and  C_16
REMARK                            x       y       z     vdW  Elec       q    Type
REMARK                         _______ _______ _______ _____ _____    ______ ____
ROOT
ATOM      1  N   UNL     1       5.210   4.878  18.187  0.00  0.00    +0.000 NA
ATOM      2  C   UNL     1       4.534   3.545  18.043  0.00  0.00    +0.000 C 
ATOM      3  C   UNL     1       3.154   3.652  17.347  0.00  0.00    +0.000 C 
ATOM      4  O   UNL     1       2.368   2.490  17.692  0.00  0.00    +0.000 OA
ATOM      5  C   UNL     1       1.264   2.894  18.514  0.00  0.00    +0.000 C 
ATOM      6  C   UNL     1       1.544   4.307  18.961  0.00  0.00    +0.000 C 
ATOM      7  C   UNL     1       2.309   4.865  17.776  0.00  0.00    +0.000 C 
ATOM      8  C   UNL     1       3.140   6.125  18.020  0.00  0.00    +0.000 C 
ATOM      9  C   UNL     1       4.347   5.819  18.896  0.00  0.00    +0.000 C 
ENDROOT
BRANCH   1  11
ATOM     10  C   UNL     1       7.076   6.814  17.413  0.00  0.00    +0.000 C 
ATOM     11  S   UNL     1       6.131   5.398  16.888  0.00  0.00    +0.000 S 
ATOM     12  O   UNL     1       5.232   5.843  15.849  0.00  0.00    +0.000 OA
ATOM     13  O   UNL     1       7.104   4.358  16.639  0.00  0.00    +0.000 OA
ENDBRANCH   1  11
BRANCH   8  14
ATOM     14  C   UNL     1       2.419   7.295  18.648  0.00  0.00    +0.000 C 
ATOM     15  O   UNL     1       2.256   7.411  19.853  0.00  0.00    +0.000 OA
ATOM     16  N   UNL     1       1.997   8.220  17.704  0.00  0.00    +0.000 N 
ATOM     17  H   UNL     1       1.740   7.879  16.788  0.00  0.00    +0.000 HD
BRANCH  16  18
ATOM     18  C   UNL     1       1.488   9.484  18.058  0.00  0.00    +0.000 A 
ATOM     19  C   UNL     1       0.116   9.615  18.230  0.00  0.00    +0.000 A 
ATOM     20  C   UNL     1      -0.396  10.845  18.620  0.00  0.00    +0.000 A 
ATOM     21  C   UNL     1       0.483  11.909  18.756  0.00  0.00    +0.000 A 
ATOM     22  N   UNL     1       1.805  11.824  18.553  0.00  0.00    +0.000 NA
ATOM     23  C   UNL     1       2.294  10.604  18.212  0.00  0.00    +0.000 A 
ENDBRANCH  16  18
ENDBRANCH   8  14
TORSDOF 3
ENDMDL
MODEL 2
REMARK VINA RESULT:      -7.3      1.765      1.907
REMARK  Name = 
REMARK  4 active torsions:
REMARK  status: ('A' for Active; 'I' for Inactive)
REMARK    1  A    between atoms: C_1  and  S_2
REMARK    2  A    between atoms: S_2  and  N_5
REMARK    3  A    between atoms: C_12  and  C_13
REMARK    4  A    between atoms: N_15  and  C_16
REMARK                            x       y       z     vdW  Elec       q    Type
REMARK                         _______ _______ _______ _____ _____    ______ ____
ROOT
ATOM      1  N   UNL     1       5.251   4.565  18.914  0.00  0.00    +0.000 NA
ATOM      2  C   UNL     1       4.542   3.245  18.804  0.00  0.00    +0.000 C 
ATOM      3  C   UNL     1       3.344   3.296  17.822  0.00  0.00    +0.000 C 
ATOM      4  O   UNL     1       2.437   2.218  18.141  0.00  0.00    +0.000 OA
ATOM      5  C   UNL     1       1.213   2.765  18.650  0.00  0.00    +0.000 C 
ATOM      6  C   UNL     1       1.477   4.218  18.958  0.00  0.00    +0.000 C 
ATOM      7  C   UNL     1       2.501   4.581  17.901  0.00  0.00    +0.000 C 
ATOM      8  C   UNL     1       3.336   5.838  18.149  0.00  0.00    +0.000 C 
ATOM      9  C   UNL     1       4.316   5.621  19.294  0.00  0.00    +0.000 C 
ENDROOT
BRANCH   1  11
ATOM     10  C   UNL     1       6.642   6.636  17.648  0.00  0.00    +0.000 C 
ATOM     11  S   UNL     1       6.449   4.870  17.784  0.00  0.00    +0.000 S 
ATOM     12  O   UNL     1       5.991   4.389  16.501  0.00  0.00    +0.000 OA
ATOM     13  O   UNL     1       7.684   4.393  18.364  0.00  0.00    +0.000 OA
ENDBRANCH   1  11
BRANCH   8  14
ATOM     14  C   UNL     1       2.572   7.105  18.451  0.00  0.00    +0.000 C 
ATOM     15  O   UNL     1       2.143   7.850  17.583  0.00  0.00    +0.000 OA
ATOM     16  N   UNL     1       2.395   7.300  19.813  0.00  0.00    +0.000 N 
ATOM     17  H   UNL     1       3.115   6.964  20.438  0.00  0.00    +0.000 HD
BRANCH  16  18
ATOM     18  C   UNL     1       1.544   8.295  20.331  0.00  0.00    +0.000 A 
ATOM     19  C   UNL     1       1.089   8.156  21.635  0.00  0.00    +0.000 A 
ATOM     20  C   UNL     1       0.284   9.151  22.174  0.00  0.00    +0.000 A 
ATOM     21  C   UNL     1      -0.086  10.210  21.358  0.00  0.00    +0.000 A 
ATOM     22  N   UNL     1       0.301  10.348  20.083  0.00  0.00    +0.000 NA
ATOM     23  C   UNL     1       1.122   9.387  19.585  0.00  0.00    +0.000 A 
ENDBRANCH  16  18
ENDBRANCH   8  14
TORSDOF 3
ENDMDL
MODEL 3
REMARK VINA RESULT:      -7.2      0.910      1.173
REMARK  Name = 
REMARK  4 active torsions:
REMARK  status: ('A' for Active; 'I' for Inactive)
REMARK    1  A    between atoms: C_1  and  S_2
REMARK    2  A    between atoms: S_2  and  N_5
REMARK    3  A    between atoms: C_12  and  C_13
REMARK    4  A    between atoms: N_15  and  C_16
REMARK                            x       y       z     vdW  Elec       q    Type
REMARK                         _______ _______ _______ _____ _____    ______ ____
ROOT
ATOM      1  N   UNL     1       5.157   4.580  18.802  0.00  0.00    +0.000 NA
ATOM      2  C   UNL     1       4.437   3.289  18.544  0.00  0.00    +0.000 C 
ATOM      3  C   UNL     1       3.185   3.477  17.649  0.00  0.00    +0.000 C 
ATOM      4  O   UNL     1       2.292   2.361  17.860  0.00  0.00    +0.000 OA
ATOM      5  C   UNL     1       1.101   2.826  18.512  0.00  0.00    +0.000 C 
ATOM      6  C   UNL     1       1.390   4.219  19.011  0.00  0.00    +0.000 C 
ATOM      7  C   UNL     1       2.354   4.735  17.961  0.00  0.00    +0.000 C 
ATOM      8  C   UNL     1       3.209   5.945  18.340  0.00  0.00    +0.000 C 
ATOM      9  C   UNL     1       4.251   5.568  19.384  0.00  0.00    +0.000 C 
ENDROOT
BRANCH   1  11
ATOM     10  C   UNL     1       5.803   4.373  16.087  0.00  0.00    +0.000 C 
ATOM     11  S   UNL     1       6.291   5.050  17.662  0.00  0.00    +0.000 S 
ATOM     12  O   UNL     1       7.557   4.449  18.013  0.00  0.00    +0.000 OA
ATOM     13  O   UNL     1       6.157   6.482  17.522  0.00  0.00    +0.000 OA
ENDBRANCH   1  11
BRANCH   8  14
ATOM     14  C   UNL     1       2.470   7.153  18.865  0.00  0.00    +0.000 C 
ATOM     15  O   UNL     1       2.245   7.335  20.052  0.00  0.00    +0.000 OA
ATOM     16  N   UNL     1       2.109   8.029  17.852  0.00  0.00    +0.000 N 
ATOM     17  H   UNL     1       1.896   7.642  16.943  0.00  0.00    +0.000 HD
BRANCH  16  18
ATOM     18  C   UNL     1       1.595   9.315  18.111  0.00  0.00    +0.000 A 
ATOM     19  C   UNL     1       0.229   9.448  18.314  0.00  0.00    +0.000 A 
ATOM     20  C   UNL     1      -0.286  10.702  18.612  0.00  0.00    +0.000 A 
ATOM     21  C   UNL     1       0.584  11.783  18.626  0.00  0.00    +0.000 A 
ATOM     22  N   UNL     1       1.900  11.692  18.390  0.00  0.00    +0.000 NA
ATOM     23  C   UNL     1       2.393  10.451  18.141  0.00  0.00    +0.000 A 
ENDBRANCH  16  18
ENDBRANCH   8  14
TORSDOF 3
ENDMDL
MODEL 4
REMARK VINA RESULT:      -7.2      1.911      2.164
REMARK  Name = 
REMARK  4 active torsions:
REMARK  status: ('A' for Active; 'I' for Inactive)
REMARK    1  A    between atoms: C_1  and  S_2
REMARK    2  A    between atoms: S_2  and  N_5
REMARK    3  A    between atoms: C_12  and  C_13
REMARK    4  A    between atoms: N_15  and  C_16
REMARK                            x       y       z     vdW  Elec       q    Type
REMARK                         _______ _______ _______ _____ _____    ______ ____
ROOT
ATOM      1  N   UNL     1       5.164   4.684  19.025  0.00  0.00    +0.000 NA
ATOM      2  C   UNL     1       4.523   3.337  18.860  0.00  0.00    +0.000 C 
ATOM      3  C   UNL     1       3.354   3.357  17.841  0.00  0.00    +0.000 C 
ATOM      4  O   UNL     1       2.490   2.229  18.104  0.00  0.00    +0.000 OA
ATOM      5  C   UNL     1       1.226   2.704  18.586  0.00  0.00    +0.000 C 
ATOM      6  C   UNL     1       1.411   4.159  18.939  0.00  0.00    +0.000 C 
ATOM      7  C   UNL     1       2.449   4.598  17.925  0.00  0.00    +0.000 C 
ATOM      8  C   UNL     1       3.215   5.886  18.231  0.00  0.00    +0.000 C 
ATOM      9  C   UNL     1       4.168   5.685  19.402  0.00  0.00    +0.000 C 
ENDROOT
BRANCH   1  11
ATOM     10  C   UNL     1       6.020   4.272  16.393  0.00  0.00    +0.000 C 
ATOM     11  S   UNL     1       6.380   5.076  17.942  0.00  0.00    +0.000 S 
ATOM     12  O   UNL     1       7.618   4.520  18.437  0.00  0.00    +0.000 OA
ATOM     13  O   UNL     1       6.249   6.491  17.679  0.00  0.00    +0.000 OA
ENDBRANCH   1  11
BRANCH   8  14
ATOM     14  C   UNL     1       2.381   7.107  18.541  0.00  0.00    +0.000 C 
ATOM     15  O   UNL     1       1.804   7.757  17.682  0.00  0.00    +0.000 OA
ATOM     16  N   UNL     1       2.330   7.378  19.900  0.00  0.00    +0.000 N 
ATOM     17  H   UNL     1       3.136   7.141  20.462  0.00  0.00    +0.000 HD
BRANCH  16  18
ATOM     18  C   UNL     1       1.457   8.336  20.449  0.00  0.00    +0.000 A 
ATOM     19  C   UNL     1       0.586   7.933  21.452  0.00  0.00    +0.000 A 
ATOM     20  C   UNL     1      -0.252   8.876  22.032  0.00  0.00    +0.000 A 
ATOM     21  C   UNL     1      -0.227  10.170  21.534  0.00  0.00    +0.000 A 
ATOM     22  N   UNL     1       0.570  10.578  20.538  0.00  0.00    +0.000 NA
ATOM     23  C   UNL     1       1.412   9.652  20.009  0.00  0.00    +0.000 A 
ENDBRANCH  16  18
ENDBRANCH   8  14
TORSDOF 3
ENDMDL
MODEL 5
REMARK VINA RESULT:      -7.2      0.624      1.049
REMARK  Name = 
REMARK  4 active torsions:
REMARK  status: ('A' for Active; 'I' for Inactive)
REMARK    1  A    between atoms: C_1  and  S_2
REMARK    2  A    between atoms: S_2  and  N_5
REMARK    3  A    between atoms: C_12  and  C_13
REMARK    4  A    between atoms: N_15  and  C_16
REMARK                            x       y       z     vdW  Elec       q    Type
REMARK                         _______ _______ _______ _____ _____    ______ ____
ROOT
ATOM      1  N   UNL     1       5.146   4.780  18.366  0.00  0.00    +0.000 NA
ATOM      2  C   UNL     1       4.448   3.460  18.210  0.00  0.00    +0.000 C 
ATOM      3  C   UNL     1       3.092   3.590  17.471  0.00  0.00    +0.000 C 
ATOM      4  O   UNL     1       2.273   2.446  17.799  0.00  0.00    +0.000 OA
ATOM      5  C   UNL     1       1.152   2.877  18.584  0.00  0.00    +0.000 C 
ATOM      6  C   UNL     1       1.447   4.287  19.031  0.00  0.00    +0.000 C 
ATOM      7  C   UNL     1       2.258   4.822  17.867  0.00  0.00    +0.000 C 
ATOM      8  C   UNL     1       3.106   6.067  18.129  0.00  0.00    +0.000 C 
ATOM      9  C   UNL     1       4.280   5.743  19.044  0.00  0.00    +0.000 C 
ENDROOT
BRANCH   1  11
ATOM     10  C   UNL     1       6.638   6.947  17.413  0.00  0.00    +0.000 C 
ATOM     11  S   UNL     1       6.116   5.273  17.093  0.00  0.00    +0.000 S 
ATOM     12  O   UNL     1       5.309   5.297  15.896  0.00  0.00    +0.000 OA
ATOM     13  O   UNL     1       7.319   4.475  17.168  0.00  0.00    +0.000 OA
ENDBRANCH   1  11
BRANCH   8  14
ATOM     14  C   UNL     1       2.391   7.255  18.727  0.00  0.00    +0.000 C 
ATOM     15  O   UNL     1       2.233   7.405  19.929  0.00  0.00    +0.000 OA
ATOM     16  N   UNL     1       1.966   8.154  17.760  0.00  0.00    +0.000 N 
ATOM     17  H   UNL     1       1.704   7.789  16.855  0.00  0.00    +0.000 HD
BRANCH  16  18
ATOM     18  C   UNL     1       1.460   9.429  18.081  0.00  0.00    +0.000 A 
ATOM     19  C   UNL     1       2.356  10.485  18.182  0.00  0.00    +0.000 A 
ATOM     20  C   UNL     1       1.867  11.755  18.456  0.00  0.00    +0.000 A 
ATOM     21  C   UNL     1       0.506  11.900  18.684  0.00  0.00    +0.000 A 
ATOM     22  N   UNL     1      -0.376  10.892  18.637  0.00  0.00    +0.000 NA
ATOM     23  C   UNL     1       0.114   9.663  18.328  0.00  0.00    +0.000 A 
ENDBRANCH  16  18
ENDBRANCH   8  14
TORSDOF 3
ENDMDL
MODEL 6
REMARK VINA RESULT:      -7.1      1.812      1.988
REMARK  Name = 
REMARK  4 active torsions:
REMARK  status: ('A' for Active; 'I' for Inactive)
REMARK    1  A    between atoms: C_1  and  S_2
REMARK    2  A    between atoms: S_2  and  N_5
REMARK    3  A    between atoms: C_12  and  C_13
REMARK    4  A    between atoms: N_15  and  C_16
REMARK                            x       y       z     vdW  Elec       q    Type
REMARK                         _______ _______ _______ _____ _____    ______ ____
ROOT
ATOM      1  N   UNL     1       5.206   4.547  18.925  0.00  0.00    +0.000 NA
ATOM      2  C   UNL     1       4.537   3.206  18.830  0.00  0.00    +0.000 C 
ATOM      3  C   UNL     1       3.338   3.210  17.847  0.00  0.00    +0.000 C 
ATOM      4  O   UNL     1       2.463   2.109  18.178  0.00  0.00    +0.000 OA
ATOM      5  C   UNL     1       1.223   2.625  18.681  0.00  0.00    +0.000 C 
ATOM      6  C   UNL     1       1.444   4.088  18.974  0.00  0.00    +0.000 C 
ATOM      7  C   UNL     1       2.457   4.471  17.912  0.00  0.00    +0.000 C 
ATOM      8  C   UNL     1       3.254   5.754  18.147  0.00  0.00    +0.000 C 
ATOM      9  C   UNL     1       4.240   5.579  19.295  0.00  0.00    +0.000 C 
ENDROOT
BRANCH   1  11
ATOM     10  C   UNL     1       6.533   6.646  17.636  0.00  0.00    +0.000 C 
ATOM     11  S   UNL     1       6.395   4.876  17.792  0.00  0.00    +0.000 S 
ATOM     12  O   UNL     1       5.952   4.366  16.515  0.00  0.00    +0.000 OA
ATOM     13  O   UNL     1       7.643   4.443  18.377  0.00  0.00    +0.000 OA
ENDBRANCH   1  11
BRANCH   8  14
ATOM     14  C   UNL     1       2.452   7.001  18.436  0.00  0.00    +0.000 C 
ATOM     15  O   UNL     1       1.910   7.664  17.564  0.00  0.00    +0.000 OA
ATOM     16  N   UNL     1       2.383   7.279  19.793  0.00  0.00    +0.000 N 
ATOM     17  H   UNL     1       3.171   7.020  20.371  0.00  0.00    +0.000 HD
BRANCH  16  18
ATOM     18  C   UNL     1       1.528   8.265  20.322  0.00  0.00    +0.000 A 
ATOM     19  C   UNL     1       1.332   9.427  19.588  0.00  0.00    +0.000 A 
ATOM     20  C   UNL     1       0.459  10.389  20.077  0.00  0.00    +0.000 A 
ATOM     21  C   UNL     1      -0.129  10.174  21.315  0.00  0.00    +0.000 A 
ATOM     22  N   UNL     1       0.075   9.084  22.066  0.00  0.00    +0.000 NA
ATOM     23  C   UNL     1       0.901   8.134  21.554  0.00  0.00    +0.000 A 
ENDBRANCH  16  18
ENDBRANCH   8  14
TORSDOF 3
ENDMDL
MODEL 7
REMARK VINA RESULT:      -7.0      2.533      4.005
REMARK  Name = 
REMARK  4 active torsions:
REMARK  status: ('A' for Active; 'I' for Inactive)
REMARK    1  A    between atoms: C_1  and  S_2
REMARK    2  A    between atoms: S_2  and  N_5
REMARK    3  A    between atoms: C_12  and  C_13
REMARK    4  A    between atoms: N_15  and  C_16
REMARK                            x       y       z     vdW  Elec       q    Type
REMARK                         _______ _______ _______ _____ _____    ______ ____
ROOT
ATOM      1  N   UNL     1       2.122   3.850  17.838  0.00  0.00    +0.000 NA
ATOM      2  C   UNL     1       3.505   3.559  17.329  0.00  0.00    +0.000 C 
ATOM      3  C   UNL     1       4.607   4.215  18.200  0.00  0.00    +0.000 C 
ATOM      4  O   UNL     1       5.811   4.337  17.411  0.00  0.00    +0.000 OA
ATOM      5  C   UNL     1       6.078   5.725  17.169  0.00  0.00    +0.000 C 
ATOM      6  C   UNL     1       4.831   6.485  17.548  0.00  0.00    +0.000 C 
ATOM      7  C   UNL     1       4.283   5.641  18.682  0.00  0.00    +0.000 C 
ATOM      8  C   UNL     1       2.809   5.837  19.041  0.00  0.00    +0.000 C 
ATOM      9  C   UNL     1       1.905   5.291  17.944  0.00  0.00    +0.000 C 
ENDROOT
BRANCH   1  11
ATOM     10  C   UNL     1       0.944   3.815  20.375  0.00  0.00    +0.000 C 
ATOM     11  S   UNL     1       1.522   2.820  19.015  0.00  0.00    +0.000 S 
ATOM     12  O   UNL     1       2.616   2.015  19.507  0.00  0.00    +0.000 OA
ATOM     13  O   UNL     1       0.338   2.210  18.454  0.00  0.00    +0.000 OA
ENDBRANCH   1  11
BRANCH   8  14
ATOM     14  C   UNL     1       2.367   7.255  19.316  0.00  0.00    +0.000 C 
ATOM     15  O   UNL     1       2.427   8.148  18.484  0.00  0.00    +0.000 OA
ATOM     16  N   UNL     1       1.868   7.410  20.601  0.00  0.00    +0.000 N 
ATOM     17  H   UNL     1       2.257   6.833  21.334  0.00  0.00    +0.000 HD
BRANCH  16  18
ATOM     18  C   UNL     1       1.210   8.582  21.022  0.00  0.00    +0.000 A 
ATOM     19  C   UNL     1       0.479   9.298  20.084  0.00  0.00    +0.000 A 
ATOM     20  C   UNL     1      -0.210  10.432  20.493  0.00  0.00    +0.000 A 
ATOM     21  C   UNL     1      -0.081  10.837  21.814  0.00  0.00    +0.000 A 
ATOM     22  N   UNL     1       0.653  10.191  22.730  0.00  0.00    +0.000 NA
ATOM     23  C   UNL     1       1.287   9.061  22.322  0.00  0.00    +0.000 A 
ENDBRANCH  16  18
ENDBRANCH   8  14
TORSDOF 3
ENDMDL
MODEL 8
REMARK VINA RESULT:      -6.8      2.416      3.877
REMARK  Name = 
REMARK  4 active torsions:
REMARK  status: ('A' for Active; 'I' for Inactive)
REMARK    1  A    between atoms: C_1  and  S_2
REMARK    2  A    between atoms: S_2  and  N_5
REMARK    3  A    between atoms: C_12  and  C_13
REMARK    4  A    between atoms: N_15  and  C_16
REMARK                            x       y       z     vdW  Elec       q    Type
REMARK                         _______ _______ _______ _____ _____    ______ ____
ROOT
ATOM      1  N   UNL     1       2.618   3.702  18.110  0.00  0.00    +0.000 NA
ATOM      2  C   UNL     1       3.967   3.572  17.463  0.00  0.00    +0.000 C 
ATOM      3  C   UNL     1       5.014   4.537  18.077  0.00  0.00    +0.000 C 
ATOM      4  O   UNL     1       6.080   4.733  17.122  0.00  0.00    +0.000 OA
ATOM      5  C   UNL     1       6.054   6.089  16.657  0.00  0.00    +0.000 C 
ATOM      6  C   UNL     1       4.735   6.677  17.093  0.00  0.00    +0.000 C 
ATOM      7  C   UNL     1       4.482   5.945  18.397  0.00  0.00    +0.000 C 
ATOM      8  C   UNL     1       3.046   5.944  18.923  0.00  0.00    +0.000 C 
ATOM      9  C   UNL     1       2.147   5.084  18.045  0.00  0.00    +0.000 C 
ENDROOT
BRANCH   1  11
ATOM     10  C   UNL     1       1.095   3.598  20.455  0.00  0.00    +0.000 C 
ATOM     11  S   UNL     1       2.354   2.788  19.489  0.00  0.00    +0.000 S 
ATOM     12  O   UNL     1       3.568   2.797  20.272  0.00  0.00    +0.000 OA
ATOM     13  O   UNL     1       1.760   1.548  19.046  0.00  0.00    +0.000 OA
ENDBRANCH   1  11
BRANCH   8  14
ATOM     14  C   UNL     1       2.378   7.292  19.057  0.00  0.00    +0.000 C 
ATOM     15  O   UNL     1       2.134   8.016  18.103  0.00  0.00    +0.000 OA
ATOM     16  N   UNL     1       2.055   7.590  20.373  0.00  0.00    +0.000 N 
ATOM     17  H   UNL     1       2.656   7.231  21.102  0.00  0.00    +0.000 HD
BRANCH  16  18
ATOM     18  C   UNL     1       1.248   8.689  20.724  0.00  0.00    +0.000 A 
ATOM     19  C   UNL     1       0.851   8.816  22.049  0.00  0.00    +0.000 A 
ATOM     20  C   UNL     1       0.090   9.917  22.418  0.00  0.00    +0.000 A 
ATOM     21  C   UNL     1      -0.295  10.810  21.430  0.00  0.00    +0.000 A 
ATOM     22  N   UNL     1       0.035  10.690  20.137  0.00  0.00    +0.000 NA
ATOM     23  C   UNL     1       0.813   9.629  19.800  0.00  0.00    +0.000 A 
ENDBRANCH  16  18
ENDBRANCH   8  14
TORSDOF 3
ENDMDL
MODEL 9
REMARK VINA RESULT:      -6.8      2.023      2.099
REMARK  Name = 
REMARK  4 active torsions:
REMARK  status: ('A' for Active; 'I' for Inactive)
REMARK    1  A    between atoms: C_1  and  S_2
REMARK    2  A    between atoms: S_2  and  N_5
REMARK    3  A    between atoms: C_12  and  C_13
REMARK    4  A    between atoms: N_15  and  C_16
REMARK                            x       y       z     vdW  Elec       q    Type
REMARK                         _______ _______ _______ _____ _____    ______ ____
ROOT
ATOM      1  N   UNL     1       4.955   4.701  18.746  0.00  0.00    +0.000 NA
ATOM      2  C   UNL     1       4.226   3.400  18.925  0.00  0.00    +0.000 C 
ATOM      3  C   UNL     1       2.821   3.414  18.272  0.00  0.00    +0.000 C 
ATOM      4  O   UNL     1       2.010   2.393  18.893  0.00  0.00    +0.000 OA
ATOM      5  C   UNL     1       0.959   3.016  19.645  0.00  0.00    +0.000 C 
ATOM      6  C   UNL     1       1.310   4.478  19.759  0.00  0.00    +0.000 C 
ATOM      7  C   UNL     1       2.040   4.728  18.454  0.00  0.00    +0.000 C 
ATOM      8  C   UNL     1       2.925   5.973  18.383  0.00  0.00    +0.000 C 
ATOM      9  C   UNL     1       4.159   5.812  19.262  0.00  0.00    +0.000 C 
ENDROOT
BRANCH   1  11
ATOM     10  C   UNL     1       7.553   4.597  17.711  0.00  0.00    +0.000 C 
ATOM     11  S   UNL     1       5.835   4.882  17.333  0.00  0.00    +0.000 S 
ATOM     12  O   UNL     1       5.713   6.255  16.901  0.00  0.00    +0.000 OA
ATOM     13  O   UNL     1       5.445   3.790  16.470  0.00  0.00    +0.000 OA
ENDBRANCH   1  11
BRANCH   8  14
ATOM     14  C   UNL     1       2.276   7.283  18.763  0.00  0.00    +0.000 C 
ATOM     15  O   UNL     1       1.857   8.084  17.942  0.00  0.00    +0.000 OA
ATOM     16  N   UNL     1       2.191   7.448  20.138  0.00  0.00    +0.000 N 
ATOM     17  H   UNL     1       2.917   7.040  20.711  0.00  0.00    +0.000 HD
BRANCH  16  18
ATOM     18  C   UNL     1       1.448   8.486  20.731  0.00  0.00    +0.000 A 
ATOM     19  C   UNL     1       0.690   9.307  19.906  0.00  0.00    +0.000 A 
ATOM     20  C   UNL     1      -0.081  10.308  20.481  0.00  0.00    +0.000 A 
ATOM     21  C   UNL     1      -0.007  10.486  21.855  0.00  0.00    +0.000 A 
ATOM     22  N   UNL     1       0.748   9.739  22.671  0.00  0.00    +0.000 NA
ATOM     23  C   UNL     1       1.465   8.738  22.096  0.00  0.00    +0.000 A 
ENDBRANCH  16  18
ENDBRANCH   8  14
TORSDOF 3
ENDMDL
