MODEL 1
REMARK VINA RESULT:      -6.8      0.000      0.000
REMARK  Name = 
REMARK  4 active torsions:
REMARK  status: ('A' for Active; 'I' for Inactive)
REMARK    1  A    between atoms: C_1  and  C_2
REMARK    2  A    between atoms: C_3  and  C_4
REMARK    3  A    between atoms: N_14  and  C_15
REMARK    4  A    between atoms: N_22  and  C_23
REMARK                            x       y       z     vdW  Elec       q    Type
REMARK                         _______ _______ _______ _____ _____    ______ ____
ROOT
ATOM      1  C   UNL     1       0.188  10.521  20.146  0.00  0.00    +0.000 C 
ATOM      2  C   UNL     1      -0.420  10.279  21.538  0.00  0.00    +0.000 C 
ATOM      3  C   UNL     1       0.476   9.490  22.477  0.00  0.00    +0.000 C 
ATOM      4  O   UNL     1       0.440   9.628  23.697  0.00  0.00    +0.000 OA
ATOM      5  N   UNL     1       1.247   8.510  21.903  0.00  0.00    +0.000 N 
ATOM      6  C   UNL     1       1.491   8.414  20.571  0.00  0.00    +0.000 A 
ATOM      7  C   UNL     1       1.064   9.396  19.761  0.00  0.00    +0.000 A 
ATOM      8  C   UNL     1       1.491   9.002  18.405  0.00  0.00    +0.000 A 
ATOM      9  O   UNL     1       1.142   9.530  17.365  0.00  0.00    +0.000 OA
ATOM     10  N   UNL     1       2.289   7.876  18.553  0.00  0.00    +0.000 N 
ATOM     11  N   UNL     1       2.152   7.427  19.870  0.00  0.00    +0.000 N 
ATOM     12  H   UNL     1       1.736   7.906  22.545  0.00  0.00    +0.000 HD
ATOM     13  H   UNL     1       2.433   7.249  17.772  0.00  0.00    +0.000 HD
ENDROOT
BRANCH   1  16
ATOM     14  C   UNL     1      -0.522  13.207  18.186  0.00  0.00    +0.000 C 
ATOM     15  C   UNL     1       0.534  12.965  19.202  0.00  0.00    +0.000 A 
ATOM     16  C   UNL     1       0.808  11.888  20.037  0.00  0.00    +0.000 A 
ATOM     17  C   UNL     1       1.942  12.314  20.776  0.00  0.00    +0.000 A 
ATOM     18  N   UNL     1       2.384  13.512  20.406  0.00  0.00    +0.000 NA
ATOM     19  N   UNL     1       1.535  13.881  19.435  0.00  0.00    +0.000 N 
ATOM     20  C   UNL     1       1.785  15.107  18.713  0.00  0.00    +0.000 C 
ENDBRANCH   1  16
BRANCH  11  21
ATOM     21  C   UNL     1       2.728   6.160  20.306  0.00  0.00    +0.000 C 
ATOM     22  C   UNL     1       1.668   5.078  20.538  0.00  0.00    +0.000 C 
ATOM     23  C   UNL     1       2.420   3.758  20.453  0.00  0.00    +0.000 C 
ATOM     24  C   UNL     1       3.598   4.007  19.524  0.00  0.00    +0.000 C 
ATOM     25  C   UNL     1       3.611   5.505  19.236  0.00  0.00    +0.000 C 
ENDBRANCH  11  21
TORSDOF 2
ENDMDL
MODEL 2
REMARK VINA RESULT:      -6.5      3.858      7.063
REMARK  Name = 
REMARK  4 active torsions:
REMARK  status: ('A' for Active; 'I' for Inactive)
REMARK    1  A    between atoms: C_1  and  C_2
REMARK    2  A    between atoms: C_3  and  C_4
REMARK    3  A    between atoms: N_14  and  C_15
REMARK    4  A    between atoms: N_22  and  C_23
REMARK                            x       y       z     vdW  Elec       q    Type
REMARK                         _______ _______ _______ _____ _____    ______ ____
ROOT
ATOM      1  C   UNL     1      -0.128  11.335  18.834  0.00  0.00    +0.000 C 
ATOM      2  C   UNL     1       0.193  12.666  19.537  0.00  0.00    +0.000 C 
ATOM      3  C   UNL     1      -0.897  13.150  20.475  0.00  0.00    +0.000 C 
ATOM      4  O   UNL     1      -0.660  13.840  21.464  0.00  0.00    +0.000 OA
ATOM      5  N   UNL     1      -2.189  12.889  20.094  0.00  0.00    +0.000 N 
ATOM      6  C   UNL     1      -2.536  11.989  19.139  0.00  0.00    +0.000 A 
ATOM      7  C   UNL     1      -1.582  11.207  18.609  0.00  0.00    +0.000 A 
ATOM      8  C   UNL     1      -2.275  10.349  17.628  0.00  0.00    +0.000 A 
ATOM      9  O   UNL     1      -1.740   9.630  16.805  0.00  0.00    +0.000 OA
ATOM     10  N   UNL     1      -3.633  10.592  17.782  0.00  0.00    +0.000 N 
ATOM     11  N   UNL     1      -3.776  11.718  18.599  0.00  0.00    +0.000 N 
ATOM     12  H   UNL     1      -2.907  13.327  20.651  0.00  0.00    +0.000 HD
ATOM     13  H   UNL     1      -4.275  10.374  17.031  0.00  0.00    +0.000 HD
ENDROOT
BRANCH   1  16
ATOM     14  C   UNL     1       2.051   8.958  17.756  0.00  0.00    +0.000 C 
ATOM     15  C   UNL     1       1.381   9.178  19.062  0.00  0.00    +0.000 A 
ATOM     16  C   UNL     1       0.522  10.168  19.526  0.00  0.00    +0.000 A 
ATOM     17  C   UNL     1       0.272   9.794  20.872  0.00  0.00    +0.000 A 
ATOM     18  N   UNL     1       0.859   8.650  21.212  0.00  0.00    +0.000 NA
ATOM     19  N   UNL     1       1.506   8.279  20.098  0.00  0.00    +0.000 N 
ATOM     20  C   UNL     1       2.174   6.998  20.068  0.00  0.00    +0.000 C 
ENDBRANCH   1  16
BRANCH  11  21
ATOM     21  C   UNL     1      -5.076  12.341  18.816  0.00  0.00    +0.000 C 
ATOM     22  C   UNL     1      -5.920  12.408  17.540  0.00  0.00    +0.000 C 
ATOM     23  C   UNL     1      -7.356  12.563  18.018  0.00  0.00    +0.000 C 
ATOM     24  C   UNL     1      -7.417  11.893  19.382  0.00  0.00    +0.000 C 
ATOM     25  C   UNL     1      -5.982  11.524  19.746  0.00  0.00    +0.000 C 
ENDBRANCH  11  21
TORSDOF 2
ENDMDL
MODEL 3
REMARK VINA RESULT:      -6.5      4.760      7.430
REMARK  Name = 
REMARK  4 active torsions:
REMARK  status: ('A' for Active; 'I' for Inactive)
REMARK    1  A    between atoms: C_1  and  C_2
REMARK    2  A    between atoms: C_3  and  C_4
REMARK    3  A    between atoms: N_14  and  C_15
REMARK    4  A    between atoms: N_22  and  C_23
REMARK                            x       y       z     vdW  Elec       q    Type
REMARK                         _______ _______ _______ _____ _____    ______ ____
ROOT
ATOM      1  C   UNL     1       4.805   4.802  18.891  0.00  0.00    +0.000 C 
ATOM      2  C   UNL     1       6.148   5.342  19.413  0.00  0.00    +0.000 C 
ATOM      3  C   UNL     1       6.992   6.030  18.356  0.00  0.00    +0.000 C 
ATOM      4  O   UNL     1       7.782   6.932  18.624  0.00  0.00    +0.000 OA
ATOM      5  N   UNL     1       6.929   5.506  17.089  0.00  0.00    +0.000 N 
ATOM      6  C   UNL     1       5.963   4.652  16.665  0.00  0.00    +0.000 A 
ATOM      7  C   UNL     1       4.928   4.387  17.479  0.00  0.00    +0.000 A 
ATOM      8  C   UNL     1       4.067   3.452  16.730  0.00  0.00    +0.000 A 
ATOM      9  O   UNL     1       3.125   2.830  17.185  0.00  0.00    +0.000 OA
ATOM     10  N   UNL     1       4.595   3.368  15.449  0.00  0.00    +0.000 N 
ATOM     11  N   UNL     1       5.851   3.982  15.464  0.00  0.00    +0.000 N 
ATOM     12  H   UNL     1       7.589   5.882  16.426  0.00  0.00    +0.000 HD
ATOM     13  H   UNL     1       4.381   2.571  14.864  0.00  0.00    +0.000 HD
ENDROOT
BRANCH   1  16
ATOM     14  C   UNL     1       3.730   7.645  17.366  0.00  0.00    +0.000 C 
ATOM     15  C   UNL     1       3.266   6.928  18.580  0.00  0.00    +0.000 A 
ATOM     16  C   UNL     1       3.670   5.745  19.189  0.00  0.00    +0.000 A 
ATOM     17  C   UNL     1       2.796   5.620  20.299  0.00  0.00    +0.000 A 
ATOM     18  N   UNL     1       1.963   6.650  20.424  0.00  0.00    +0.000 NA
ATOM     19  N   UNL     1       2.278   7.443  19.390  0.00  0.00    +0.000 N 
ATOM     20  C   UNL     1       1.635   8.732  19.273  0.00  0.00    +0.000 C 
ENDBRANCH   1  16
BRANCH  11  21
ATOM     21  C   UNL     1       6.746   3.912  14.315  0.00  0.00    +0.000 C 
ATOM     22  C   UNL     1       6.020   3.530  13.022  0.00  0.00    +0.000 C 
ATOM     23  C   UNL     1       6.924   4.013  11.898  0.00  0.00    +0.000 C 
ATOM     24  C   UNL     1       7.688   5.203  12.458  0.00  0.00    +0.000 C 
ATOM     25  C   UNL     1       7.347   5.274  13.943  0.00  0.00    +0.000 C 
ENDBRANCH  11  21
TORSDOF 2
ENDMDL
MODEL 4
REMARK VINA RESULT:      -6.5      0.824      1.073
REMARK  Name = 
REMARK  4 active torsions:
REMARK  status: ('A' for Active; 'I' for Inactive)
REMARK    1  A    between atoms: C_1  and  C_2
REMARK    2  A    between atoms: C_3  and  C_4
REMARK    3  A    between atoms: N_14  and  C_15
REMARK    4  A    between atoms: N_22  and  C_23
REMARK                            x       y       z     vdW  Elec       q    Type
REMARK                         _______ _______ _______ _____ _____    ______ ____
ROOT
ATOM      1  C   UNL     1       0.484  10.367  19.843  0.00  0.00    +0.000 C 
ATOM      2  C   UNL     1      -0.199  10.267  21.218  0.00  0.00    +0.000 C 
ATOM      3  C   UNL     1       0.593   9.481  22.247  0.00  0.00    +0.000 C 
ATOM      4  O   UNL     1       0.516   9.705  23.452  0.00  0.00    +0.000 OA
ATOM      5  N   UNL     1       1.309   8.409  21.776  0.00  0.00    +0.000 N 
ATOM      6  C   UNL     1       1.602   8.204  20.466  0.00  0.00    +0.000 A 
ATOM      7  C   UNL     1       1.287   9.157  19.574  0.00  0.00    +0.000 A 
ATOM      8  C   UNL     1       1.738   8.640  18.268  0.00  0.00    +0.000 A 
ATOM      9  O   UNL     1       1.475   9.120  17.181  0.00  0.00    +0.000 OA
ATOM     10  N   UNL     1       2.441   7.471  18.528  0.00  0.00    +0.000 N 
ATOM     11  N   UNL     1       2.214   7.125  19.863  0.00  0.00    +0.000 N 
ATOM     12  H   UNL     1       1.723   7.816  22.478  0.00  0.00    +0.000 HD
ATOM     13  H   UNL     1       2.569   6.783  17.797  0.00  0.00    +0.000 HD
ENDROOT
BRANCH   1  16
ATOM     14  C   UNL     1       0.373  13.290  21.577  0.00  0.00    +0.000 C 
ATOM     15  C   UNL     1       1.127  12.877  20.367  0.00  0.00    +0.000 A 
ATOM     16  C   UNL     1       1.212  11.674  19.674  0.00  0.00    +0.000 A 
ATOM     17  C   UNL     1       2.126  11.952  18.625  0.00  0.00    +0.000 A 
ATOM     18  N   UNL     1       2.533  13.218  18.612  0.00  0.00    +0.000 NA
ATOM     19  N   UNL     1       1.900  13.769  19.658  0.00  0.00    +0.000 N 
ATOM     20  C   UNL     1       2.023  15.191  19.883  0.00  0.00    +0.000 C 
ENDBRANCH   1  16
BRANCH  11  21
ATOM     21  C   UNL     1       2.671   5.851  20.408  0.00  0.00    +0.000 C 
ATOM     22  C   UNL     1       1.530   4.849  20.605  0.00  0.00    +0.000 C 
ATOM     23  C   UNL     1       2.200   3.484  20.647  0.00  0.00    +0.000 C 
ATOM     24  C   UNL     1       3.462   3.611  19.809  0.00  0.00    +0.000 C 
ATOM     25  C   UNL     1       3.593   5.088  19.449  0.00  0.00    +0.000 C 
ENDBRANCH  11  21
TORSDOF 2
ENDMDL
MODEL 5
REMARK VINA RESULT:      -6.3      4.230      7.302
REMARK  Name = 
REMARK  4 active torsions:
REMARK  status: ('A' for Active; 'I' for Inactive)
REMARK    1  A    between atoms: C_1  and  C_2
REMARK    2  A    between atoms: C_3  and  C_4
REMARK    3  A    between atoms: N_14  and  C_15
REMARK    4  A    between atoms: N_22  and  C_23
REMARK                            x       y       z     vdW  Elec       q    Type
REMARK                         _______ _______ _______ _____ _____    ______ ____
ROOT
ATOM      1  C   UNL     1      -0.881  11.631  18.759  0.00  0.00    +0.000 C 
ATOM      2  C   UNL     1      -0.968  12.991  19.474  0.00  0.00    +0.000 C 
ATOM      3  C   UNL     1      -2.271  13.218  20.217  0.00  0.00    +0.000 C 
ATOM      4  O   UNL     1      -2.349  13.929  21.216  0.00  0.00    +0.000 OA
ATOM      5  N   UNL     1      -3.401  12.690  19.643  0.00  0.00    +0.000 N 
ATOM      6  C   UNL     1      -3.390  11.748  18.665  0.00  0.00    +0.000 A 
ATOM      7  C   UNL     1      -2.218  11.196  18.309  0.00  0.00    +0.000 A 
ATOM      8  C   UNL     1      -2.547  10.223  17.250  0.00  0.00    +0.000 A 
ATOM      9  O   UNL     1      -1.746   9.645  16.538  0.00  0.00    +0.000 OA
ATOM     10  N   UNL     1      -3.932  10.165  17.182  0.00  0.00    +0.000 N 
ATOM     11  N   UNL     1      -4.441  11.224  17.941  0.00  0.00    +0.000 N 
ATOM     12  H   UNL     1      -4.275  12.956  20.069  0.00  0.00    +0.000 HD
ATOM     13  H   UNL     1      -4.385   9.824  16.344  0.00  0.00    +0.000 HD
ENDROOT
BRANCH   1  16
ATOM     14  C   UNL     1       1.527   9.378  17.929  0.00  0.00    +0.000 C 
ATOM     15  C   UNL     1       0.840   9.677  19.211  0.00  0.00    +0.000 A 
ATOM     16  C   UNL     1      -0.114  10.622  19.570  0.00  0.00    +0.000 A 
ATOM     17  C   UNL     1      -0.323  10.381  20.953  0.00  0.00    +0.000 A 
ATOM     18  N   UNL     1       0.377   9.348  21.413  0.00  0.00    +0.000 NA
ATOM     19  N   UNL     1       1.057   8.919  20.340  0.00  0.00    +0.000 N 
ATOM     20  C   UNL     1       1.852   7.717  20.447  0.00  0.00    +0.000 C 
ENDBRANCH   1  16
BRANCH  11  21
ATOM     21  C   UNL     1      -5.862  11.551  17.936  0.00  0.00    +0.000 C 
ATOM     22  C   UNL     1      -6.422  11.776  19.343  0.00  0.00    +0.000 C 
ATOM     23  C   UNL     1      -7.688  12.596  19.142  0.00  0.00    +0.000 C 
ATOM     24  C   UNL     1      -7.469  13.399  17.869  0.00  0.00    +0.000 C 
ATOM     25  C   UNL     1      -6.164  12.895  17.261  0.00  0.00    +0.000 C 
ENDBRANCH  11  21
TORSDOF 2
ENDMDL
MODEL 6
REMARK VINA RESULT:      -6.3      1.691      1.751
REMARK  Name = 
REMARK  4 active torsions:
REMARK  status: ('A' for Active; 'I' for Inactive)
REMARK    1  A    between atoms: C_1  and  C_2
REMARK    2  A    between atoms: C_3  and  C_4
REMARK    3  A    between atoms: N_14  and  C_15
REMARK    4  A    between atoms: N_22  and  C_23
REMARK                            x       y       z     vdW  Elec       q    Type
REMARK                         _______ _______ _______ _____ _____    ______ ____
ROOT
ATOM      1  C   UNL     1      -0.666  10.930  21.098  0.00  0.00    +0.000 C 
ATOM      2  C   UNL     1      -0.821  10.338  22.509  0.00  0.00    +0.000 C 
ATOM      3  C   UNL     1       0.400   9.582  23.002  0.00  0.00    +0.000 C 
ATOM      4  O   UNL     1       0.688   9.495  24.193  0.00  0.00    +0.000 OA
ATOM      5  N   UNL     1       1.105   8.881  22.056  0.00  0.00    +0.000 N 
ATOM      6  C   UNL     1       0.979   9.067  20.717  0.00  0.00    +0.000 A 
ATOM      7  C   UNL     1       0.213  10.077  20.273  0.00  0.00    +0.000 A 
ATOM      8  C   UNL     1       0.293  10.013  18.801  0.00  0.00    +0.000 A 
ATOM      9  O   UNL     1      -0.401  10.639  18.021  0.00  0.00    +0.000 OA
ATOM     10  N   UNL     1       1.246   9.051  18.498  0.00  0.00    +0.000 N 
ATOM     11  N   UNL     1       1.545   8.361  19.677  0.00  0.00    +0.000 N 
ATOM     12  H   UNL     1       1.832   8.278  22.409  0.00  0.00    +0.000 HD
ATOM     13  H   UNL     1       1.249   8.609  17.588  0.00  0.00    +0.000 HD
ENDROOT
BRANCH   1  16
ATOM     14  C   UNL     1      -2.526  13.764  21.364  0.00  0.00    +0.000 C 
ATOM     15  C   UNL     1      -1.067  13.540  21.210  0.00  0.00    +0.000 A 
ATOM     16  C   UNL     1      -0.292  12.387  21.142  0.00  0.00    +0.000 A 
ATOM     17  C   UNL     1       1.033  12.879  21.018  0.00  0.00    +0.000 A 
ATOM     18  N   UNL     1       1.093  14.206  20.949  0.00  0.00    +0.000 NA
ATOM     19  N   UNL     1      -0.189  14.588  21.043  0.00  0.00    +0.000 N 
ATOM     20  C   UNL     1      -0.517  15.987  20.890  0.00  0.00    +0.000 C 
ENDBRANCH   1  16
BRANCH  11  21
ATOM     21  C   UNL     1       2.386   7.169  19.669  0.00  0.00    +0.000 C 
ATOM     22  C   UNL     1       1.760   6.000  20.435  0.00  0.00    +0.000 C 
ATOM     23  C   UNL     1       2.451   4.755  19.897  0.00  0.00    +0.000 C 
ATOM     24  C   UNL     1       2.856   5.086  18.469  0.00  0.00    +0.000 C 
ATOM     25  C   UNL     1       2.557   6.568  18.268  0.00  0.00    +0.000 C 
ENDBRANCH  11  21
TORSDOF 2
ENDMDL
MODEL 7
REMARK VINA RESULT:      -6.3      2.064      7.566
REMARK  Name = 
REMARK  4 active torsions:
REMARK  status: ('A' for Active; 'I' for Inactive)
REMARK    1  A    between atoms: C_1  and  C_2
REMARK    2  A    between atoms: C_3  and  C_4
REMARK    3  A    between atoms: N_14  and  C_15
REMARK    4  A    between atoms: N_22  and  C_23
REMARK                            x       y       z     vdW  Elec       q    Type
REMARK                         _______ _______ _______ _____ _____    ______ ____
ROOT
ATOM      1  C   UNL     1      -0.215  10.903  19.629  0.00  0.00    +0.000 C 
ATOM      2  C   UNL     1      -1.593  10.835  18.948  0.00  0.00    +0.000 C 
ATOM      3  C   UNL     1      -1.729  11.734  17.733  0.00  0.00    +0.000 C 
ATOM      4  O   UNL     1      -2.477  11.470  16.795  0.00  0.00    +0.000 OA
ATOM      5  N   UNL     1      -1.067  12.935  17.786  0.00  0.00    +0.000 N 
ATOM      6  C   UNL     1      -0.084  13.226  18.676  0.00  0.00    +0.000 A 
ATOM      7  C   UNL     1       0.369  12.252  19.483  0.00  0.00    +0.000 A 
ATOM      8  C   UNL     1       1.420  12.880  20.306  0.00  0.00    +0.000 A 
ATOM      9  O   UNL     1       1.952  12.386  21.283  0.00  0.00    +0.000 OA
ATOM     10  N   UNL     1       1.614  14.156  19.794  0.00  0.00    +0.000 N 
ATOM     11  N   UNL     1       0.574  14.418  18.897  0.00  0.00    +0.000 N 
ATOM     12  H   UNL     1      -1.268  13.580  17.037  0.00  0.00    +0.000 HD
ATOM     13  H   UNL     1       2.038  14.873  20.368  0.00  0.00    +0.000 HD
ENDROOT
BRANCH   1  16
ATOM     14  C   UNL     1       0.954   8.169  21.278  0.00  0.00    +0.000 C 
ATOM     15  C   UNL     1       1.179   8.675  19.900  0.00  0.00    +0.000 A 
ATOM     16  C   UNL     1       0.675   9.767  19.203  0.00  0.00    +0.000 A 
ATOM     17  C   UNL     1       1.279   9.659  17.924  0.00  0.00    +0.000 A 
ATOM     18  N   UNL     1       2.130   8.640  17.834  0.00  0.00    +0.000 NA
ATOM     19  N   UNL     1       2.075   8.070  19.047  0.00  0.00    +0.000 N 
ATOM     20  C   UNL     1       2.972   6.979  19.350  0.00  0.00    +0.000 C 
ENDBRANCH   1  16
BRANCH  11  21
ATOM     21  C   UNL     1       0.387  15.742  18.315  0.00  0.00    +0.000 C 
ATOM     22  C   UNL     1      -0.731  16.535  18.998  0.00  0.00    +0.000 C 
ATOM     23  C   UNL     1      -0.445  17.993  18.668  0.00  0.00    +0.000 C 
ATOM     24  C   UNL     1       1.061  18.091  18.480  0.00  0.00    +0.000 C 
ATOM     25  C   UNL     1       1.595  16.663  18.524  0.00  0.00    +0.000 C 
ENDBRANCH  11  21
TORSDOF 2
ENDMDL
MODEL 8
REMARK VINA RESULT:      -6.3      2.276      3.601
REMARK  Name = 
REMARK  4 active torsions:
REMARK  status: ('A' for Active; 'I' for Inactive)
REMARK    1  A    between atoms: C_1  and  C_2
REMARK    2  A    between atoms: C_3  and  C_4
REMARK    3  A    between atoms: N_14  and  C_15
REMARK    4  A    between atoms: N_22  and  C_23
REMARK                            x       y       z     vdW  Elec       q    Type
REMARK                         _______ _______ _______ _____ _____    ______ ____
ROOT
ATOM      1  C   UNL     1       0.235  11.004  20.269  0.00  0.00    +0.000 C 
ATOM      2  C   UNL     1       1.289  11.712  19.400  0.00  0.00    +0.000 C 
ATOM      3  C   UNL     1       1.896  10.832  18.323  0.00  0.00    +0.000 C 
ATOM      4  O   UNL     1       2.320  11.282  17.261  0.00  0.00    +0.000 OA
ATOM      5  N   UNL     1       2.072   9.509  18.644  0.00  0.00    +0.000 N 
ATOM      6  C   UNL     1       1.474   8.894  19.696  0.00  0.00    +0.000 A 
ATOM      7  C   UNL     1       0.556   9.569  20.406  0.00  0.00    +0.000 A 
ATOM      8  C   UNL     1       0.099   8.634  21.451  0.00  0.00    +0.000 A 
ATOM      9  O   UNL     1      -0.595   8.918  22.410  0.00  0.00    +0.000 OA
ATOM     10  N   UNL     1       0.682   7.406  21.165  0.00  0.00    +0.000 N 
ATOM     11  N   UNL     1       1.652   7.614  20.180  0.00  0.00    +0.000 N 
ATOM     12  H   UNL     1       2.595   8.961  17.977  0.00  0.00    +0.000 HD
ATOM     13  H   UNL     1       0.778   6.709  21.892  0.00  0.00    +0.000 HD
ENDROOT
BRANCH   1  16
ATOM     14  C   UNL     1      -1.555  10.001  17.559  0.00  0.00    +0.000 C 
ATOM     15  C   UNL     1      -1.872  10.926  18.676  0.00  0.00    +0.000 A 
ATOM     16  C   UNL     1      -1.164  11.311  19.810  0.00  0.00    +0.000 A 
ATOM     17  C   UNL     1      -2.049  12.200  20.473  0.00  0.00    +0.000 A 
ATOM     18  N   UNL     1      -3.177  12.411  19.801  0.00  0.00    +0.000 NA
ATOM     19  N   UNL     1      -3.042  11.651  18.704  0.00  0.00    +0.000 N 
ATOM     20  C   UNL     1      -4.052  11.721  17.673  0.00  0.00    +0.000 C 
ENDBRANCH   1  16
BRANCH  11  21
ATOM     21  C   UNL     1       2.568   6.553  19.778  0.00  0.00    +0.000 C 
ATOM     22  C   UNL     1       2.240   5.209  20.434  0.00  0.00    +0.000 C 
ATOM     23  C   UNL     1       2.894   4.161  19.546  0.00  0.00    +0.000 C 
ATOM     24  C   UNL     1       2.929   4.760  18.148  0.00  0.00    +0.000 C 
ATOM     25  C   UNL     1       2.464   6.206  18.288  0.00  0.00    +0.000 C 
ENDBRANCH  11  21
TORSDOF 2
ENDMDL
MODEL 9
REMARK VINA RESULT:      -6.3      2.207      7.638
REMARK  Name = 
REMARK  4 active torsions:
REMARK  status: ('A' for Active; 'I' for Inactive)
REMARK    1  A    between atoms: C_1  and  C_2
REMARK    2  A    between atoms: C_3  and  C_4
REMARK    3  A    between atoms: N_14  and  C_15
REMARK    4  A    between atoms: N_22  and  C_23
REMARK                            x       y       z     vdW  Elec       q    Type
REMARK                         _______ _______ _______ _____ _____    ______ ____
ROOT
ATOM      1  C   UNL     1      -1.028  11.365  20.180  0.00  0.00    +0.000 C 
ATOM      2  C   UNL     1      -2.055  11.090  19.067  0.00  0.00    +0.000 C 
ATOM      3  C   UNL     1      -1.708  11.724  17.733  0.00  0.00    +0.000 C 
ATOM      4  O   UNL     1      -2.060  11.241  16.659  0.00  0.00    +0.000 OA
ATOM      5  N   UNL     1      -1.086  12.947  17.782  0.00  0.00    +0.000 N 
ATOM      6  C   UNL     1      -0.499  13.459  18.894  0.00  0.00    +0.000 A 
ATOM      7  C   UNL     1      -0.401  12.688  19.989  0.00  0.00    +0.000 A 
ATOM      8  C   UNL     1       0.283  13.521  20.997  0.00  0.00    +0.000 A 
ATOM      9  O   UNL     1       0.401  13.257  22.180  0.00  0.00    +0.000 OA
ATOM     10  N   UNL     1       0.683  14.681  20.347  0.00  0.00    +0.000 N 
ATOM     11  N   UNL     1       0.057  14.705  19.097  0.00  0.00    +0.000 N 
ATOM     12  H   UNL     1      -0.979  13.420  16.899  0.00  0.00    +0.000 HD
ATOM     13  H   UNL     1       0.879  15.518  20.879  0.00  0.00    +0.000 HD
ENDROOT
BRANCH   1  16
ATOM     14  C   UNL     1       1.375  10.066  18.154  0.00  0.00    +0.000 C 
ATOM     15  C   UNL     1       0.882   9.670  19.497  0.00  0.00    +0.000 A 
ATOM     16  C   UNL     1      -0.070  10.217  20.351  0.00  0.00    +0.000 A 
ATOM     17  C   UNL     1      -0.037   9.364  21.484  0.00  0.00    +0.000 A 
ATOM     18  N   UNL     1       0.802   8.341  21.342  0.00  0.00    +0.000 NA
ATOM     19  N   UNL     1       1.331   8.529  20.124  0.00  0.00    +0.000 N 
ATOM     20  C   UNL     1       2.219   7.526  19.583  0.00  0.00    +0.000 C 
ENDBRANCH   1  16
BRANCH  11  21
ATOM     21  C   UNL     1       0.130  15.877  18.232  0.00  0.00    +0.000 C 
ATOM     22  C   UNL     1      -0.907  16.944  18.593  0.00  0.00    +0.000 C 
ATOM     23  C   UNL     1      -0.370  18.240  18.003  0.00  0.00    +0.000 C 
ATOM     24  C   UNL     1       1.144  18.093  17.982  0.00  0.00    +0.000 C 
ATOM     25  C   UNL     1       1.444  16.654  18.389  0.00  0.00    +0.000 C 
ENDBRANCH  11  21
TORSDOF 2
ENDMDL
