MODEL 1
REMARK VINA RESULT:      -7.8      0.000      0.000
REMARK  Name = 
REMARK  6 active torsions:
REMARK  status: ('A' for Active; 'I' for Inactive)
REMARK    1  A    between atoms: C_1  and  N_2
REMARK    2  A    between atoms: C_6  and  C_7
REMARK    3  A    between atoms: C_9  and  C_10
REMARK    4  A    between atoms: C_14  and  O_15
REMARK    5  A    between atoms: O_15  and  C_16
REMARK    6  A    between atoms: C_16  and  C_17
REMARK                            x       y       z     vdW  Elec       q    Type
REMARK                         _______ _______ _______ _____ _____    ______ ____
ROOT
ATOM      1  C   UNL     1       2.157   3.155  21.313  0.00  0.00    +0.000 C 
ATOM      2  N   UNL     1       2.359   3.470  19.895  0.00  0.00    +0.000 NA
ATOM      3  C   UNL     1       3.401   2.622  19.360  0.00  0.00    +0.000 C 
ATOM      4  S   UNL     1       3.439   2.812  17.582  0.00  0.00    +0.000 S 
ATOM      5  C   UNL     1       3.804   4.507  17.533  0.00  0.00    +0.000 C 
ATOM      6  C   UNL     1       4.656   5.005  16.608  0.00  0.00    +0.000 C 
ATOM      7  C   UNL     1       5.039   6.462  16.598  0.00  0.00    +0.000 C 
ATOM      8  C   UNL     1       3.787   7.250  16.998  0.00  0.00    +0.000 C 
ATOM      9  C   UNL     1       3.208   6.731  18.301  0.00  0.00    +0.000 C 
ATOM     10  O   UNL     1       2.761   7.515  19.133  0.00  0.00    +0.000 OA
ATOM     11  N   UNL     1       3.189   5.339  18.459  0.00  0.00    +0.000 N 
ATOM     12  C   UNL     1       2.675   4.891  19.755  0.00  0.00    +0.000 C 
ENDROOT
BRANCH   7  13
ATOM     13  C   UNL     1       6.290   6.751  17.442  0.00  0.00    +0.000 A 
ATOM     14  C   UNL     1       6.879   5.784  18.278  0.00  0.00    +0.000 A 
ATOM     15  C   UNL     1       7.983   6.084  19.076  0.00  0.00    +0.000 A 
ATOM     16  C   UNL     1       8.534   7.355  19.052  0.00  0.00    +0.000 A 
ATOM     17  C   UNL     1       8.008   8.324  18.198  0.00  0.00    +0.000 A 
ATOM     18  C   UNL     1       6.878   8.029  17.424  0.00  0.00    +0.000 A 
BRANCH  17  19
ATOM     19  O   UNL     1       8.523   9.584  18.060  0.00  0.00    +0.000 OA
BRANCH  19  20
ATOM     20  C   UNL     1       9.293  10.048  19.175  0.00  0.00    +0.000 C 
BRANCH  20  21
ATOM     21  C   UNL     1       9.525  11.529  19.041  0.00  0.00    +0.000 A 
ATOM     22  C   UNL     1      10.386  12.203  19.915  0.00  0.00    +0.000 A 
ATOM     23  C   UNL     1      10.602  13.574  19.770  0.00  0.00    +0.000 A 
ATOM     24  C   UNL     1       9.965  14.275  18.747  0.00  0.00    +0.000 A 
ATOM     25  C   UNL     1       9.124  13.607  17.859  0.00  0.00    +0.000 A 
ATOM     26  C   UNL     1       8.907  12.241  18.003  0.00  0.00    +0.000 A 
ENDBRANCH  20  21
ENDBRANCH  19  20
ENDBRANCH  17  19
ENDBRANCH   7  13
BRANCH   6  27
ATOM     27  C   UNL     1       5.208   4.069  15.544  0.00  0.00    +0.000 C 
ATOM     28  N   UNL     1       5.665   3.293  14.661  0.00  0.00    +0.000 NA
ENDBRANCH   6  27
TORSDOF 5
ENDMDL
MODEL 2
REMARK VINA RESULT:      -7.7      0.865      1.255
REMARK  Name = 
REMARK  6 active torsions:
REMARK  status: ('A' for Active; 'I' for Inactive)
REMARK    1  A    between atoms: C_1  and  N_2
REMARK    2  A    between atoms: C_6  and  C_7
REMARK    3  A    between atoms: C_9  and  C_10
REMARK    4  A    between atoms: C_14  and  O_15
REMARK    5  A    between atoms: O_15  and  C_16
REMARK    6  A    between atoms: C_16  and  C_17
REMARK                            x       y       z     vdW  Elec       q    Type
REMARK                         _______ _______ _______ _____ _____    ______ ____
ROOT
ATOM      1  C   UNL     1       1.915   3.770  21.328  0.00  0.00    +0.000 C 
ATOM      2  N   UNL     1       2.182   3.957  19.899  0.00  0.00    +0.000 NA
ATOM      3  C   UNL     1       3.203   3.022  19.477  0.00  0.00    +0.000 C 
ATOM      4  S   UNL     1       3.315   3.061  17.692  0.00  0.00    +0.000 S 
ATOM      5  C   UNL     1       3.759   4.729  17.519  0.00  0.00    +0.000 C 
ATOM      6  C   UNL     1       4.666   5.110  16.591  0.00  0.00    +0.000 C 
ATOM      7  C   UNL     1       5.116   6.543  16.476  0.00  0.00    +0.000 C 
ATOM      8  C   UNL     1       3.888   7.415  16.760  0.00  0.00    +0.000 C 
ATOM      9  C   UNL     1       3.238   7.032  18.077  0.00  0.00    +0.000 C 
ATOM     10  O   UNL     1       2.798   7.903  18.823  0.00  0.00    +0.000 OA
ATOM     11  N   UNL     1       3.150   5.661  18.348  0.00  0.00    +0.000 N 
ATOM     12  C   UNL     1       2.569   5.346  19.655  0.00  0.00    +0.000 C 
ENDROOT
BRANCH   7  13
ATOM     13  C   UNL     1       6.347   6.849  17.344  0.00  0.00    +0.000 A 
ATOM     14  C   UNL     1       6.840   5.944  18.303  0.00  0.00    +0.000 A 
ATOM     15  C   UNL     1       7.927   6.263  19.116  0.00  0.00    +0.000 A 
ATOM     16  C   UNL     1       8.557   7.491  18.985  0.00  0.00    +0.000 A 
ATOM     17  C   UNL     1       8.129   8.391  18.010  0.00  0.00    +0.000 A 
ATOM     18  C   UNL     1       7.014   8.081  17.219  0.00  0.00    +0.000 A 
BRANCH  17  19
ATOM     19  O   UNL     1       8.727   9.597  17.765  0.00  0.00    +0.000 OA
BRANCH  19  20
ATOM     20  C   UNL     1       8.649  10.540  18.840  0.00  0.00    +0.000 C 
BRANCH  20  21
ATOM     21  C   UNL     1       9.936  11.316  18.919  0.00  0.00    +0.000 A 
ATOM     22  C   UNL     1      10.476  11.930  17.783  0.00  0.00    +0.000 A 
ATOM     23  C   UNL     1      11.662  12.658  17.873  0.00  0.00    +0.000 A 
ATOM     24  C   UNL     1      12.310  12.783  19.103  0.00  0.00    +0.000 A 
ATOM     25  C   UNL     1      11.767  12.194  20.243  0.00  0.00    +0.000 A 
ATOM     26  C   UNL     1      10.585  11.467  20.153  0.00  0.00    +0.000 A 
ENDBRANCH  20  21
ENDBRANCH  19  20
ENDBRANCH  17  19
ENDBRANCH   7  13
BRANCH   6  27
ATOM     27  C   UNL     1       5.213   4.065  15.630  0.00  0.00    +0.000 C 
ATOM     28  N   UNL     1       5.666   3.199  14.835  0.00  0.00    +0.000 NA
ENDBRANCH   6  27
TORSDOF 5
ENDMDL
MODEL 3
REMARK VINA RESULT:      -7.4      6.610      9.870
REMARK  Name = 
REMARK  6 active torsions:
REMARK  status: ('A' for Active; 'I' for Inactive)
REMARK    1  A    between atoms: C_1  and  N_2
REMARK    2  A    between atoms: C_6  and  C_7
REMARK    3  A    between atoms: C_9  and  C_10
REMARK    4  A    between atoms: C_14  and  O_15
REMARK    5  A    between atoms: O_15  and  C_16
REMARK    6  A    between atoms: C_16  and  C_17
REMARK                            x       y       z     vdW  Elec       q    Type
REMARK                         _______ _______ _______ _____ _____    ______ ____
ROOT
ATOM      1  C   UNL     1      -2.723  13.924  23.893  0.00  0.00    +0.000 C 
ATOM      2  N   UNL     1      -2.502  13.746  22.455  0.00  0.00    +0.000 NA
ATOM      3  C   UNL     1      -3.395  12.722  21.957  0.00  0.00    +0.000 C 
ATOM      4  S   UNL     1      -3.321  12.716  20.170  0.00  0.00    +0.000 S 
ATOM      5  C   UNL     1      -1.637  12.336  20.004  0.00  0.00    +0.000 C 
ATOM      6  C   UNL     1      -1.210  11.497  19.032  0.00  0.00    +0.000 C 
ATOM      7  C   UNL     1       0.239  11.100  18.920  0.00  0.00    +0.000 C 
ATOM      8  C   UNL     1       1.065  12.337  19.291  0.00  0.00    +0.000 C 
ATOM      9  C   UNL     1       0.638  12.897  20.636  0.00  0.00    +0.000 C 
ATOM     10  O   UNL     1       1.480  13.320  21.423  0.00  0.00    +0.000 OA
ATOM     11  N   UNL     1      -0.740  12.925  20.885  0.00  0.00    +0.000 N 
ATOM     12  C   UNL     1      -1.097  13.418  22.216  0.00  0.00    +0.000 C 
ENDROOT
BRANCH   7  13
ATOM     13  C   UNL     1       0.570   9.831  19.721  0.00  0.00    +0.000 A 
ATOM     14  C   UNL     1      -0.032   9.539  20.959  0.00  0.00    +0.000 A 
ATOM     15  C   UNL     1       0.321   8.408  21.694  0.00  0.00    +0.000 A 
ATOM     16  C   UNL     1       1.278   7.533  21.206  0.00  0.00    +0.000 A 
ATOM     17  C   UNL     1       1.858   7.762  19.959  0.00  0.00    +0.000 A 
ATOM     18  C   UNL     1       1.526   8.918  19.240  0.00  0.00    +0.000 A 
BRANCH  17  19
ATOM     19  O   UNL     1       2.763   6.922  19.369  0.00  0.00    +0.000 OA
BRANCH  19  20
ATOM     20  C   UNL     1       2.312   6.303  18.158  0.00  0.00    +0.000 C 
BRANCH  20  21
ATOM     21  C   UNL     1       2.111   4.831  18.395  0.00  0.00    +0.000 A 
ATOM     22  C   UNL     1       2.656   3.882  17.521  0.00  0.00    +0.000 A 
ATOM     23  C   UNL     1       2.473   2.519  17.760  0.00  0.00    +0.000 A 
ATOM     24  C   UNL     1       1.752   2.099  18.878  0.00  0.00    +0.000 A 
ATOM     25  C   UNL     1       1.225   3.037  19.765  0.00  0.00    +0.000 A 
ATOM     26  C   UNL     1       1.407   4.395  19.527  0.00  0.00    +0.000 A 
ENDBRANCH  20  21
ENDBRANCH  19  20
ENDBRANCH  17  19
ENDBRANCH   7  13
BRANCH   6  27
ATOM     27  C   UNL     1      -2.218  10.974  18.022  0.00  0.00    +0.000 C 
ATOM     28  N   UNL     1      -3.055  10.540  17.185  0.00  0.00    +0.000 NA
ENDBRANCH   6  27
TORSDOF 5
ENDMDL
MODEL 4
REMARK VINA RESULT:      -7.3      6.687      9.933
REMARK  Name = 
REMARK  6 active torsions:
REMARK  status: ('A' for Active; 'I' for Inactive)
REMARK    1  A    between atoms: C_1  and  N_2
REMARK    2  A    between atoms: C_6  and  C_7
REMARK    3  A    between atoms: C_9  and  C_10
REMARK    4  A    between atoms: C_14  and  O_15
REMARK    5  A    between atoms: O_15  and  C_16
REMARK    6  A    between atoms: C_16  and  C_17
REMARK                            x       y       z     vdW  Elec       q    Type
REMARK                         _______ _______ _______ _____ _____    ______ ____
ROOT
ATOM      1  C   UNL     1      -4.421  13.797  22.336  0.00  0.00    +0.000 C 
ATOM      2  N   UNL     1      -3.891  13.493  21.004  0.00  0.00    +0.000 NA
ATOM      3  C   UNL     1      -4.482  12.263  20.524  0.00  0.00    +0.000 C 
ATOM      4  S   UNL     1      -4.053  12.055  18.800  0.00  0.00    +0.000 S 
ATOM      5  C   UNL     1      -2.330  11.992  18.991  0.00  0.00    +0.000 C 
ATOM      6  C   UNL     1      -1.583  11.140  18.251  0.00  0.00    +0.000 C 
ATOM      7  C   UNL     1      -0.095  11.021  18.456  0.00  0.00    +0.000 C 
ATOM      8  C   UNL     1       0.421  12.430  18.769  0.00  0.00    +0.000 C 
ATOM      9  C   UNL     1      -0.354  13.054  19.914  0.00  0.00    +0.000 C 
ATOM     10  O   UNL     1       0.231  13.725  20.761  0.00  0.00    +0.000 OA
ATOM     11  N   UNL     1      -1.739  12.845  19.912  0.00  0.00    +0.000 N 
ATOM     12  C   UNL     1      -2.432  13.417  21.068  0.00  0.00    +0.000 C 
ENDROOT
BRANCH   7  13
ATOM     13  C   UNL     1       0.277   9.946  19.490  0.00  0.00    +0.000 A 
ATOM     14  C   UNL     1      -0.377   9.831  20.731  0.00  0.00    +0.000 A 
ATOM     15  C   UNL     1       0.011   8.882  21.676  0.00  0.00    +0.000 A 
ATOM     16  C   UNL     1       1.057   8.015  21.401  0.00  0.00    +0.000 A 
ATOM     17  C   UNL     1       1.694   8.065  20.162  0.00  0.00    +0.000 A 
ATOM     18  C   UNL     1       1.324   9.044  19.230  0.00  0.00    +0.000 A 
BRANCH  17  19
ATOM     19  O   UNL     1       2.691   7.211  19.778  0.00  0.00    +0.000 OA
BRANCH  19  20
ATOM     20  C   UNL     1       2.344   6.314  18.717  0.00  0.00    +0.000 C 
BRANCH  20  21
ATOM     21  C   UNL     1       1.972   4.975  19.295  0.00  0.00    +0.000 A 
ATOM     22  C   UNL     1       1.456   3.959  18.482  0.00  0.00    +0.000 A 
ATOM     23  C   UNL     1       1.128   2.718  19.029  0.00  0.00    +0.000 A 
ATOM     24  C   UNL     1       1.323   2.485  20.391  0.00  0.00    +0.000 A 
ATOM     25  C   UNL     1       1.856   3.484  21.203  0.00  0.00    +0.000 A 
ATOM     26  C   UNL     1       2.182   4.721  20.658  0.00  0.00    +0.000 A 
ENDBRANCH  20  21
ENDBRANCH  19  20
ENDBRANCH  17  19
ENDBRANCH   7  13
BRANCH   6  27
ATOM     27  C   UNL     1      -2.267  10.313  17.174  0.00  0.00    +0.000 C 
ATOM     28  N   UNL     1      -2.835   9.627  16.282  0.00  0.00    +0.000 NA
ENDBRANCH   6  27
TORSDOF 5
ENDMDL
MODEL 5
REMARK VINA RESULT:      -7.2      6.186      9.450
REMARK  Name = 
REMARK  6 active torsions:
REMARK  status: ('A' for Active; 'I' for Inactive)
REMARK    1  A    between atoms: C_1  and  N_2
REMARK    2  A    between atoms: C_6  and  C_7
REMARK    3  A    between atoms: C_9  and  C_10
REMARK    4  A    between atoms: C_14  and  O_15
REMARK    5  A    between atoms: O_15  and  C_16
REMARK    6  A    between atoms: C_16  and  C_17
REMARK                            x       y       z     vdW  Elec       q    Type
REMARK                         _______ _______ _______ _____ _____    ______ ____
ROOT
ATOM      1  C   UNL     1      -2.437  13.555  23.115  0.00  0.00    +0.000 C 
ATOM      2  N   UNL     1      -2.128  13.341  21.698  0.00  0.00    +0.000 NA
ATOM      3  C   UNL     1      -2.982  12.297  21.175  0.00  0.00    +0.000 C 
ATOM      4  S   UNL     1      -2.800  12.244  19.397  0.00  0.00    +0.000 S 
ATOM      5  C   UNL     1      -1.106  11.873  19.343  0.00  0.00    +0.000 C 
ATOM      6  C   UNL     1      -0.615  11.011  18.423  0.00  0.00    +0.000 C 
ATOM      7  C   UNL     1       0.840  10.623  18.409  0.00  0.00    +0.000 C 
ATOM      8  C   UNL     1       1.635  11.876  18.796  0.00  0.00    +0.000 C 
ATOM      9  C   UNL     1       1.123  12.468  20.097  0.00  0.00    +0.000 C 
ATOM     10  O   UNL     1       1.912  12.919  20.922  0.00  0.00    +0.000 OA
ATOM     11  N   UNL     1      -0.268  12.492  20.261  0.00  0.00    +0.000 N 
ATOM     12  C   UNL     1      -0.709  13.018  21.554  0.00  0.00    +0.000 C 
ENDROOT
BRANCH   7  13
ATOM     13  C   UNL     1       1.129   9.379  19.263  0.00  0.00    +0.000 A 
ATOM     14  C   UNL     1       0.490   9.139  20.494  0.00  0.00    +0.000 A 
ATOM     15  C   UNL     1       0.805   8.030  21.277  0.00  0.00    +0.000 A 
ATOM     16  C   UNL     1       1.762   7.124  20.846  0.00  0.00    +0.000 A 
ATOM     17  C   UNL     1       2.378   7.301  19.609  0.00  0.00    +0.000 A 
ATOM     18  C   UNL     1       2.084   8.435  18.841  0.00  0.00    +0.000 A 
BRANCH  17  19
ATOM     19  O   UNL     1       3.286   6.427  19.073  0.00  0.00    +0.000 OA
BRANCH  19  20
ATOM     20  C   UNL     1       2.858   5.771  17.875  0.00  0.00    +0.000 C 
BRANCH  20  21
ATOM     21  C   UNL     1       2.437   4.363  18.199  0.00  0.00    +0.000 A 
ATOM     22  C   UNL     1       1.328   4.114  19.015  0.00  0.00    +0.000 A 
ATOM     23  C   UNL     1       0.941   2.803  19.296  0.00  0.00    +0.000 A 
ATOM     24  C   UNL     1       1.657   1.735  18.755  0.00  0.00    +0.000 A 
ATOM     25  C   UNL     1       2.750   1.974  17.923  0.00  0.00    +0.000 A 
ATOM     26  C   UNL     1       3.136   3.281  17.643  0.00  0.00    +0.000 A 
ENDBRANCH  20  21
ENDBRANCH  19  20
ENDBRANCH  17  19
ENDBRANCH   7  13
BRANCH   6  27
ATOM     27  C   UNL     1      -1.557  10.454  17.367  0.00  0.00    +0.000 C 
ATOM     28  N   UNL     1      -2.338   9.991  16.492  0.00  0.00    +0.000 NA
ENDBRANCH   6  27
TORSDOF 5
ENDMDL
MODEL 6
REMARK VINA RESULT:      -7.2      5.849      8.528
REMARK  Name = 
REMARK  6 active torsions:
REMARK  status: ('A' for Active; 'I' for Inactive)
REMARK    1  A    between atoms: C_1  and  N_2
REMARK    2  A    between atoms: C_6  and  C_7
REMARK    3  A    between atoms: C_9  and  C_10
REMARK    4  A    between atoms: C_14  and  O_15
REMARK    5  A    between atoms: O_15  and  C_16
REMARK    6  A    between atoms: C_16  and  C_17
REMARK                            x       y       z     vdW  Elec       q    Type
REMARK                         _______ _______ _______ _____ _____    ______ ____
ROOT
ATOM      1  C   UNL     1      -2.256  13.541  23.596  0.00  0.00    +0.000 C 
ATOM      2  N   UNL     1      -2.009  13.414  22.157  0.00  0.00    +0.000 NA
ATOM      3  C   UNL     1      -2.898  12.414  21.607  0.00  0.00    +0.000 C 
ATOM      4  S   UNL     1      -2.791  12.471  19.822  0.00  0.00    +0.000 S 
ATOM      5  C   UNL     1      -1.106  12.088  19.673  0.00  0.00    +0.000 C 
ATOM      6  C   UNL     1      -0.664  11.282  18.680  0.00  0.00    +0.000 C 
ATOM      7  C   UNL     1       0.785  10.882  18.580  0.00  0.00    +0.000 C 
ATOM      8  C   UNL     1       1.610  12.099  19.011  0.00  0.00    +0.000 C 
ATOM      9  C   UNL     1       1.160  12.613  20.366  0.00  0.00    +0.000 C 
ATOM     10  O   UNL     1       1.989  13.004  21.184  0.00  0.00    +0.000 OA
ATOM     11  N   UNL     1      -0.222  12.640  20.591  0.00  0.00    +0.000 N 
ATOM     12  C   UNL     1      -0.602  13.088  21.932  0.00  0.00    +0.000 C 
ENDROOT
BRANCH   7  13
ATOM     13  C   UNL     1       1.094   9.583  19.341  0.00  0.00    +0.000 A 
ATOM     14  C   UNL     1       0.567   9.309  20.617  0.00  0.00    +0.000 A 
ATOM     15  C   UNL     1       0.903   8.148  21.312  0.00  0.00    +0.000 A 
ATOM     16  C   UNL     1       1.767   7.223  20.745  0.00  0.00    +0.000 A 
ATOM     17  C   UNL     1       2.267   7.437  19.462  0.00  0.00    +0.000 A 
ATOM     18  C   UNL     1       1.956   8.621  18.782  0.00  0.00    +0.000 A 
BRANCH  17  19
ATOM     19  O   UNL     1       3.074   6.553  18.798  0.00  0.00    +0.000 OA
BRANCH  19  20
ATOM     20  C   UNL     1       3.625   7.043  17.570  0.00  0.00    +0.000 C 
BRANCH  20  21
ATOM     21  C   UNL     1       4.810   6.200  17.183  0.00  0.00    +0.000 A 
ATOM     22  C   UNL     1       6.117   6.665  17.376  0.00  0.00    +0.000 A 
ATOM     23  C   UNL     1       7.206   5.868  17.025  0.00  0.00    +0.000 A 
ATOM     24  C   UNL     1       6.995   4.598  16.487  0.00  0.00    +0.000 A 
ATOM     25  C   UNL     1       5.698   4.119  16.312  0.00  0.00    +0.000 A 
ATOM     26  C   UNL     1       4.611   4.914  16.661  0.00  0.00    +0.000 A 
ENDBRANCH  20  21
ENDBRANCH  19  20
ENDBRANCH  17  19
ENDBRANCH   7  13
BRANCH   6  27
ATOM     27  C   UNL     1      -1.657  10.801  17.633  0.00  0.00    +0.000 C 
ATOM     28  N   UNL     1      -2.479  10.402  16.764  0.00  0.00    +0.000 NA
ENDBRANCH   6  27
TORSDOF 5
ENDMDL
MODEL 7
REMARK VINA RESULT:      -7.2      6.678      9.801
REMARK  Name = 
REMARK  6 active torsions:
REMARK  status: ('A' for Active; 'I' for Inactive)
REMARK    1  A    between atoms: C_1  and  N_2
REMARK    2  A    between atoms: C_6  and  C_7
REMARK    3  A    between atoms: C_9  and  C_10
REMARK    4  A    between atoms: C_14  and  O_15
REMARK    5  A    between atoms: O_15  and  C_16
REMARK    6  A    between atoms: C_16  and  C_17
REMARK                            x       y       z     vdW  Elec       q    Type
REMARK                         _______ _______ _______ _____ _____    ______ ____
ROOT
ATOM      1  C   UNL     1      -2.568  14.201  23.595  0.00  0.00    +0.000 C 
ATOM      2  N   UNL     1      -2.484  13.898  22.163  0.00  0.00    +0.000 NA
ATOM      3  C   UNL     1      -3.373  12.800  21.854  0.00  0.00    +0.000 C 
ATOM      4  S   UNL     1      -3.478  12.630  20.076  0.00  0.00    +0.000 S 
ATOM      5  C   UNL     1      -1.803  12.300  19.770  0.00  0.00    +0.000 C 
ATOM      6  C   UNL     1      -1.436  11.390  18.838  0.00  0.00    +0.000 C 
ATOM      7  C   UNL     1       0.012  11.040  18.612  0.00  0.00    +0.000 C 
ATOM      8  C   UNL     1       0.812  12.336  18.784  0.00  0.00    +0.000 C 
ATOM      9  C   UNL     1       0.495  13.002  20.110  0.00  0.00    +0.000 C 
ATOM     10  O   UNL     1       1.391  13.528  20.766  0.00  0.00    +0.000 OA
ATOM     11  N   UNL     1      -0.851  13.002  20.498  0.00  0.00    +0.000 N 
ATOM     12  C   UNL     1      -1.096  13.603  21.810  0.00  0.00    +0.000 C 
ENDROOT
BRANCH   7  13
ATOM     13  C   UNL     1       0.480   9.864  19.483  0.00  0.00    +0.000 A 
ATOM     14  C   UNL     1       0.004   9.655  20.791  0.00  0.00    +0.000 A 
ATOM     15  C   UNL     1       0.481   8.612  21.584  0.00  0.00    +0.000 A 
ATOM     16  C   UNL     1       1.440   7.743  21.087  0.00  0.00    +0.000 A 
ATOM     17  C   UNL     1       1.896   7.889  19.778  0.00  0.00    +0.000 A 
ATOM     18  C   UNL     1       1.441   8.959  18.997  0.00  0.00    +0.000 A 
BRANCH  17  19
ATOM     19  O   UNL     1       2.792   7.044  19.181  0.00  0.00    +0.000 OA
BRANCH  19  20
ATOM     20  C   UNL     1       2.211   5.904  18.537  0.00  0.00    +0.000 C 
BRANCH  20  21
ATOM     21  C   UNL     1       2.294   4.715  19.456  0.00  0.00    +0.000 A 
ATOM     22  C   UNL     1       1.191   4.323  20.224  0.00  0.00    +0.000 A 
ATOM     23  C   UNL     1       1.277   3.210  21.061  0.00  0.00    +0.000 A 
ATOM     24  C   UNL     1       2.464   2.479  21.127  0.00  0.00    +0.000 A 
ATOM     25  C   UNL     1       3.559   2.849  20.349  0.00  0.00    +0.000 A 
ATOM     26  C   UNL     1       3.474   3.959  19.515  0.00  0.00    +0.000 A 
ENDBRANCH  20  21
ENDBRANCH  19  20
ENDBRANCH  17  19
ENDBRANCH   7  13
BRANCH   6  27
ATOM     27  C   UNL     1      -2.515  10.738  17.988  0.00  0.00    +0.000 C 
ATOM     28  N   UNL     1      -3.409  10.197  17.284  0.00  0.00    +0.000 NA
ENDBRANCH   6  27
TORSDOF 5
ENDMDL
MODEL 8
REMARK VINA RESULT:      -7.1      9.504     12.644
REMARK  Name = 
REMARK  6 active torsions:
REMARK  status: ('A' for Active; 'I' for Inactive)
REMARK    1  A    between atoms: C_1  and  N_2
REMARK    2  A    between atoms: C_6  and  C_7
REMARK    3  A    between atoms: C_9  and  C_10
REMARK    4  A    between atoms: C_14  and  O_15
REMARK    5  A    between atoms: O_15  and  C_16
REMARK    6  A    between atoms: C_16  and  C_17
REMARK                            x       y       z     vdW  Elec       q    Type
REMARK                         _______ _______ _______ _____ _____    ______ ____
ROOT
ATOM      1  C   UNL     1      -4.660  12.510  24.601  0.00  0.00    +0.000 C 
ATOM      2  N   UNL     1      -3.464  13.040  23.941  0.00  0.00    +0.000 NA
ATOM      3  C   UNL     1      -3.859  14.004  22.938  0.00  0.00    +0.000 C 
ATOM      4  S   UNL     1      -2.398  14.847  22.344  0.00  0.00    +0.000 S 
ATOM      5  C   UNL     1      -1.565  13.463  21.713  0.00  0.00    +0.000 C 
ATOM      6  C   UNL     1      -0.868  13.542  20.556  0.00  0.00    +0.000 C 
ATOM      7  C   UNL     1      -0.200  12.331  19.958  0.00  0.00    +0.000 C 
ATOM      8  C   UNL     1       0.337  11.500  21.129  0.00  0.00    +0.000 C 
ATOM      9  C   UNL     1      -0.755  11.216  22.144  0.00  0.00    +0.000 C 
ATOM     10  O   UNL     1      -0.822  10.115  22.685  0.00  0.00    +0.000 OA
ATOM     11  N   UNL     1      -1.624  12.276  22.432  0.00  0.00    +0.000 N 
ATOM     12  C   UNL     1      -2.693  11.935  23.372  0.00  0.00    +0.000 C 
ENDROOT
BRANCH   7  13
ATOM     13  C   UNL     1      -1.114  11.571  18.985  0.00  0.00    +0.000 A 
ATOM     14  C   UNL     1      -0.708  10.395  18.326  0.00  0.00    +0.000 A 
ATOM     15  C   UNL     1      -1.534   9.751  17.406  0.00  0.00    +0.000 A 
ATOM     16  C   UNL     1      -2.793  10.259  17.127  0.00  0.00    +0.000 A 
ATOM     17  C   UNL     1      -3.249  11.392  17.798  0.00  0.00    +0.000 A 
ATOM     18  C   UNL     1      -2.403  12.057  18.696  0.00  0.00    +0.000 A 
BRANCH  17  19
ATOM     19  O   UNL     1      -4.498  11.928  17.636  0.00  0.00    +0.000 OA
BRANCH  19  20
ATOM     20  C   UNL     1      -5.576  10.989  17.728  0.00  0.00    +0.000 C 
BRANCH  20  21
ATOM     21  C   UNL     1      -6.285  11.170  19.043  0.00  0.00    +0.000 A 
ATOM     22  C   UNL     1      -6.239  12.394  19.722  0.00  0.00    +0.000 A 
ATOM     23  C   UNL     1      -6.913  12.551  20.934  0.00  0.00    +0.000 A 
ATOM     24  C   UNL     1      -7.642  11.489  21.468  0.00  0.00    +0.000 A 
ATOM     25  C   UNL     1      -7.711  10.275  20.787  0.00  0.00    +0.000 A 
ATOM     26  C   UNL     1      -7.039  10.117  19.580  0.00  0.00    +0.000 A 
ENDBRANCH  20  21
ENDBRANCH  19  20
ENDBRANCH  17  19
ENDBRANCH   7  13
BRANCH   6  27
ATOM     27  C   UNL     1      -0.739  14.894  19.872  0.00  0.00    +0.000 C 
ATOM     28  N   UNL     1      -0.631  16.014  19.304  0.00  0.00    +0.000 NA
ENDBRANCH   6  27
TORSDOF 5
ENDMDL
MODEL 9
REMARK VINA RESULT:      -7.0      4.257      6.940
REMARK  Name = 
REMARK  6 active torsions:
REMARK  status: ('A' for Active; 'I' for Inactive)
REMARK    1  A    between atoms: C_1  and  N_2
REMARK    2  A    between atoms: C_6  and  C_7
REMARK    3  A    between atoms: C_9  and  C_10
REMARK    4  A    between atoms: C_14  and  O_15
REMARK    5  A    between atoms: O_15  and  C_16
REMARK    6  A    between atoms: C_16  and  C_17
REMARK                            x       y       z     vdW  Elec       q    Type
REMARK                         _______ _______ _______ _____ _____    ______ ____
ROOT
ATOM      1  C   UNL     1       7.719   5.540  13.487  0.00  0.00    +0.000 C 
ATOM      2  N   UNL     1       7.202   4.735  14.598  0.00  0.00    +0.000 NA
ATOM      3  C   UNL     1       5.876   4.260  14.267  0.00  0.00    +0.000 C 
ATOM      4  S   UNL     1       5.376   3.057  15.493  0.00  0.00    +0.000 S 
ATOM      5  C   UNL     1       5.437   4.094  16.882  0.00  0.00    +0.000 C 
ATOM      6  C   UNL     1       4.503   4.001  17.856  0.00  0.00    +0.000 C 
ATOM      7  C   UNL     1       4.501   4.942  19.033  0.00  0.00    +0.000 C 
ATOM      8  C   UNL     1       5.968   5.204  19.391  0.00  0.00    +0.000 C 
ATOM      9  C   UNL     1       6.752   5.669  18.178  0.00  0.00    +0.000 C 
ATOM     10  O   UNL     1       7.596   6.554  18.291  0.00  0.00    +0.000 OA
ATOM     11  N   UNL     1       6.475   5.011  16.972  0.00  0.00    +0.000 N 
ATOM     12  C   UNL     1       7.214   5.535  15.822  0.00  0.00    +0.000 C 
ENDROOT
BRANCH   7  13
ATOM     13  C   UNL     1       3.655   6.200  18.783  0.00  0.00    +0.000 A 
ATOM     14  C   UNL     1       3.849   7.032  17.663  0.00  0.00    +0.000 A 
ATOM     15  C   UNL     1       3.105   8.198  17.483  0.00  0.00    +0.000 A 
ATOM     16  C   UNL     1       2.142   8.559  18.412  0.00  0.00    +0.000 A 
ATOM     17  C   UNL     1       1.887   7.733  19.505  0.00  0.00    +0.000 A 
ATOM     18  C   UNL     1       2.660   6.581  19.702  0.00  0.00    +0.000 A 
BRANCH  17  19
ATOM     19  O   UNL     1       0.914   7.974  20.437  0.00  0.00    +0.000 OA
BRANCH  19  20
ATOM     20  C   UNL     1       1.341   8.737  21.572  0.00  0.00    +0.000 C 
BRANCH  20  21
ATOM     21  C   UNL     1       0.402   9.896  21.775  0.00  0.00    +0.000 A 
ATOM     22  C   UNL     1      -0.362  10.006  22.943  0.00  0.00    +0.000 A 
ATOM     23  C   UNL     1      -1.217  11.093  23.124  0.00  0.00    +0.000 A 
ATOM     24  C   UNL     1      -1.306  12.080  22.142  0.00  0.00    +0.000 A 
ATOM     25  C   UNL     1      -0.532  11.990  20.986  0.00  0.00    +0.000 A 
ATOM     26  C   UNL     1       0.320  10.906  20.805  0.00  0.00    +0.000 A 
ENDBRANCH  20  21
ENDBRANCH  19  20
ENDBRANCH  17  19
ENDBRANCH   7  13
BRANCH   6  27
ATOM     27  C   UNL     1       3.458   2.900  17.765  0.00  0.00    +0.000 C 
ATOM     28  N   UNL     1       2.592   1.987  17.688  0.00  0.00    +0.000 NA
ENDBRANCH   6  27
TORSDOF 5
ENDMDL
