MODEL 1
REMARK VINA RESULT:      -8.7      0.000      0.000
REMARK  Name = 
REMARK  9 active torsions:
REMARK  status: ('A' for Active; 'I' for Inactive)
REMARK    1  A    between atoms: C_1  and  C_2
REMARK    2  A    between atoms: C_2  and  C_3
REMARK    3  A    between atoms: C_2  and  C_4
REMARK    4  A    between atoms: C_4  and  C_5
REMARK    5  A    between atoms: C_4  and  C_30
REMARK    6  A    between atoms: C_10  and  N_11
REMARK    7  A    between atoms: C_10  and  C_22
REMARK    8  A    between atoms: C_15  and  C_16
REMARK    9  A    between atoms: N_18  and  O_19
REMARK                            x       y       z     vdW  Elec       q    Type
REMARK                         _______ _______ _______ _____ _____    ______ ____
ROOT
ATOM      1  C   UNL     1       1.924   7.152  19.775  0.00  0.00    +0.000 C 
ATOM      2  O   UNL     1       1.762   6.646  20.892  0.00  0.00    +0.000 OA
ATOM      3  N   UNL     1       1.519   8.471  19.520  0.00  0.00    +0.000 N 
ATOM      4  C   UNL     1       1.133   9.283  20.669  0.00  0.00    +0.000 C 
ATOM      5  C   UNL     1      -0.007  10.245  20.349  0.00  0.00    +0.000 C 
ATOM      6  C   UNL     1       0.239  11.139  19.100  0.00  0.00    +0.000 C 
ATOM      7  C   UNL     1       0.671  10.194  17.944  0.00  0.00    +0.000 C 
ATOM      8  C   UNL     1       1.803   9.229  18.304  0.00  0.00    +0.000 C 
ENDROOT
BRANCH   6   9
ATOM      9  N   UNL     1      -1.066  11.717  18.697  0.00  0.00    +0.000 N 
ATOM     10  C   UNL     1      -2.026  12.033  19.644  0.00  0.00    +0.000 A 
ATOM     11  N   UNL     1      -1.661  12.336  20.895  0.00  0.00    +0.000 NA
ATOM     12  C   UNL     1      -2.610  12.701  21.772  0.00  0.00    +0.000 A 
ATOM     13  C   UNL     1      -3.940  12.726  21.463  0.00  0.00    +0.000 A 
ATOM     14  C   UNL     1      -4.239  12.384  20.158  0.00  0.00    +0.000 A 
ATOM     15  N   UNL     1      -3.311  12.028  19.244  0.00  0.00    +0.000 NA
ATOM     16  H   UNL     1      -1.555  11.223  17.955  0.00  0.00    +0.000 HD
BRANCH  13  17
ATOM     17  C   UNL     1      -4.982  13.135  22.411  0.00  0.00    +0.000 C 
ATOM     18  O   UNL     1      -5.855  13.932  22.080  0.00  0.00    +0.000 OA
ATOM     19  N   UNL     1      -4.946  12.566  23.666  0.00  0.00    +0.000 N 
ATOM     20  H   UNL     1      -4.417  11.738  23.923  0.00  0.00    +0.000 HD
BRANCH  19  21
ATOM     21  O   UNL     1      -6.024  12.900  24.516  0.00  0.00    +0.000 OA
ATOM     22  H   UNL     1      -5.600  13.501  25.169  0.00  0.00    +0.000 HD
ENDBRANCH  19  21
ENDBRANCH  13  17
ENDBRANCH   6   9
BRANCH   6  23
ATOM     23  C   UNL     1       1.284  12.278  19.266  0.00  0.00    +0.000 A 
ATOM     24  C   UNL     1       1.991  12.824  18.176  0.00  0.00    +0.000 A 
ATOM     25  C   UNL     1       3.009  13.767  18.355  0.00  0.00    +0.000 A 
ATOM     26  C   UNL     1       3.356  14.185  19.633  0.00  0.00    +0.000 A 
ATOM     27  C   UNL     1       2.685  13.660  20.732  0.00  0.00    +0.000 A 
ATOM     28  C   UNL     1       1.662  12.718  20.552  0.00  0.00    +0.000 A 
ENDBRANCH   6  23
BRANCH   1  29
ATOM     29  C   UNL     1       2.553   6.307  18.634  0.00  0.00    +0.000 C 
BRANCH  29  30
ATOM     30  C   UNL     1       2.074   4.853  18.724  0.00  0.00    +0.000 A 
ATOM     31  C   UNL     1       1.426   4.404  19.887  0.00  0.00    +0.000 A 
ATOM     32  C   UNL     1       1.084   3.060  20.044  0.00  0.00    +0.000 A 
ATOM     33  C   UNL     1       1.386   2.140  19.043  0.00  0.00    +0.000 A 
ATOM     34  C   UNL     1       1.961   2.580  17.851  0.00  0.00    +0.000 A 
ATOM     35  C   UNL     1       2.280   3.933  17.683  0.00  0.00    +0.000 A 
ENDBRANCH  29  30
BRANCH  29  37
ATOM     36  C   UNL     1       4.645   6.496  17.166  0.00  0.00    +0.000 C 
ATOM     37  C   UNL     1       4.109   6.421  18.605  0.00  0.00    +0.000 C 
ATOM     38  C   UNL     1       4.762   5.204  19.282  0.00  0.00    +0.000 C 
ENDBRANCH  29  37
ENDBRANCH   1  29
TORSDOF 7
ENDMDL
MODEL 2
REMARK VINA RESULT:      -8.7      3.538     10.396
REMARK  Name = 
REMARK  9 active torsions:
REMARK  status: ('A' for Active; 'I' for Inactive)
REMARK    1  A    between atoms: C_1  and  C_2
REMARK    2  A    between atoms: C_2  and  C_3
REMARK    3  A    between atoms: C_2  and  C_4
REMARK    4  A    between atoms: C_4  and  C_5
REMARK    5  A    between atoms: C_4  and  C_30
REMARK    6  A    between atoms: C_10  and  N_11
REMARK    7  A    between atoms: C_10  and  C_22
REMARK    8  A    between atoms: C_15  and  C_16
REMARK    9  A    between atoms: N_18  and  O_19
REMARK                            x       y       z     vdW  Elec       q    Type
REMARK                         _______ _______ _______ _____ _____    ______ ____
ROOT
ATOM      1  C   UNL     1       0.808  10.134  19.632  0.00  0.00    +0.000 C 
ATOM      2  O   UNL     1       0.639  10.589  20.769  0.00  0.00    +0.000 OA
ATOM      3  N   UNL     1       1.390   8.872  19.443  0.00  0.00    +0.000 N 
ATOM      4  C   UNL     1       1.556   8.032  20.625  0.00  0.00    +0.000 C 
ATOM      5  C   UNL     1       2.828   7.191  20.570  0.00  0.00    +0.000 C 
ATOM      6  C   UNL     1       2.986   6.351  19.271  0.00  0.00    +0.000 C 
ATOM      7  C   UNL     1       2.764   7.319  18.075  0.00  0.00    +0.000 C 
ATOM      8  C   UNL     1       1.490   8.161  18.170  0.00  0.00    +0.000 C 
ENDROOT
BRANCH   6   9
ATOM      9  N   UNL     1       4.399   5.910  19.189  0.00  0.00    +0.000 N 
ATOM     10  C   UNL     1       4.977   5.597  17.969  0.00  0.00    +0.000 A 
ATOM     11  N   UNL     1       4.518   6.159  16.845  0.00  0.00    +0.000 NA
ATOM     12  C   UNL     1       5.140   5.885  15.687  0.00  0.00    +0.000 A 
ATOM     13  C   UNL     1       6.189   5.016  15.593  0.00  0.00    +0.000 A 
ATOM     14  C   UNL     1       6.595   4.464  16.793  0.00  0.00    +0.000 A 
ATOM     15  N   UNL     1       6.003   4.727  17.979  0.00  0.00    +0.000 NA
ATOM     16  H   UNL     1       4.663   5.161  19.824  0.00  0.00    +0.000 HD
BRANCH  13  17
ATOM     17  C   UNL     1       6.883   4.721  14.335  0.00  0.00    +0.000 C 
ATOM     18  O   UNL     1       7.881   5.354  14.004  0.00  0.00    +0.000 OA
ATOM     19  N   UNL     1       6.380   3.692  13.568  0.00  0.00    +0.000 N 
ATOM     20  H   UNL     1       5.726   2.984  13.887  0.00  0.00    +0.000 HD
BRANCH  19  21
ATOM     21  O   UNL     1       7.134   3.366  12.419  0.00  0.00    +0.000 OA
ATOM     22  H   UNL     1       7.261   2.395  12.518  0.00  0.00    +0.000 HD
ENDBRANCH  19  21
ENDBRANCH  13  17
ENDBRANCH   6   9
BRANCH   6  23
ATOM     23  C   UNL     1       2.047   5.119  19.131  0.00  0.00    +0.000 A 
ATOM     24  C   UNL     1       1.501   4.451  20.246  0.00  0.00    +0.000 A 
ATOM     25  C   UNL     1       0.752   3.278  20.108  0.00  0.00    +0.000 A 
ATOM     26  C   UNL     1       0.535   2.731  18.850  0.00  0.00    +0.000 A 
ATOM     27  C   UNL     1       1.068   3.359  17.729  0.00  0.00    +0.000 A 
ATOM     28  C   UNL     1       1.814   4.537  17.867  0.00  0.00    +0.000 A 
ENDBRANCH   6  23
BRANCH   1  29
ATOM     29  C   UNL     1       0.402  10.985  18.398  0.00  0.00    +0.000 C 
BRANCH  29  30
ATOM     30  C   UNL     1       1.055  12.371  18.469  0.00  0.00    +0.000 A 
ATOM     31  C   UNL     1       2.437  12.501  18.250  0.00  0.00    +0.000 A 
ATOM     32  C   UNL     1       3.077  13.730  18.423  0.00  0.00    +0.000 A 
ATOM     33  C   UNL     1       2.349  14.848  18.821  0.00  0.00    +0.000 A 
ATOM     34  C   UNL     1       0.966  14.755  18.970  0.00  0.00    +0.000 A 
ATOM     35  C   UNL     1       0.320  13.529  18.771  0.00  0.00    +0.000 A 
ENDBRANCH  29  30
BRANCH  29  37
ATOM     36  C   UNL     1      -1.879  10.921  19.564  0.00  0.00    +0.000 C 
ATOM     37  C   UNL     1      -1.146  11.066  18.220  0.00  0.00    +0.000 C 
ATOM     38  C   UNL     1      -1.651   9.949  17.292  0.00  0.00    +0.000 C 
ENDBRANCH  29  37
ENDBRANCH   1  29
TORSDOF 7
ENDMDL
MODEL 3
REMARK VINA RESULT:      -8.7      3.199      4.305
REMARK  Name = 
REMARK  9 active torsions:
REMARK  status: ('A' for Active; 'I' for Inactive)
REMARK    1  A    between atoms: C_1  and  C_2
REMARK    2  A    between atoms: C_2  and  C_3
REMARK    3  A    between atoms: C_2  and  C_4
REMARK    4  A    between atoms: C_4  and  C_5
REMARK    5  A    between atoms: C_4  and  C_30
REMARK    6  A    between atoms: C_10  and  N_11
REMARK    7  A    between atoms: C_10  and  C_22
REMARK    8  A    between atoms: C_15  and  C_16
REMARK    9  A    between atoms: N_18  and  O_19
REMARK                            x       y       z     vdW  Elec       q    Type
REMARK                         _______ _______ _______ _____ _____    ______ ____
ROOT
ATOM      1  C   UNL     1       2.166   6.741  19.810  0.00  0.00    +0.000 C 
ATOM      2  O   UNL     1       2.053   6.167  20.899  0.00  0.00    +0.000 OA
ATOM      3  N   UNL     1       1.648   8.032  19.622  0.00  0.00    +0.000 N 
ATOM      4  C   UNL     1       1.201   8.748  20.811  0.00  0.00    +0.000 C 
ATOM      5  C   UNL     1      -0.019   9.625  20.542  0.00  0.00    +0.000 C 
ATOM      6  C   UNL     1       0.144  10.599  19.340  0.00  0.00    +0.000 C 
ATOM      7  C   UNL     1       0.649   9.754  18.137  0.00  0.00    +0.000 C 
ATOM      8  C   UNL     1       1.861   8.872  18.446  0.00  0.00    +0.000 C 
ENDROOT
BRANCH   6   9
ATOM      9  N   UNL     1      -1.207  11.084  18.967  0.00  0.00    +0.000 N 
ATOM     10  C   UNL     1      -1.747  10.796  17.725  0.00  0.00    +0.000 A 
ATOM     11  N   UNL     1      -1.363   9.699  17.062  0.00  0.00    +0.000 NA
ATOM     12  C   UNL     1      -1.952   9.414  15.890  0.00  0.00    +0.000 A 
ATOM     13  C   UNL     1      -2.890  10.221  15.312  0.00  0.00    +0.000 A 
ATOM     14  C   UNL     1      -3.223  11.342  16.048  0.00  0.00    +0.000 A 
ATOM     15  N   UNL     1      -2.663  11.653  17.238  0.00  0.00    +0.000 NA
ATOM     16  H   UNL     1      -1.378  12.073  19.125  0.00  0.00    +0.000 HD
BRANCH  13  17
ATOM     17  C   UNL     1      -3.548   9.911  14.039  0.00  0.00    +0.000 C 
ATOM     18  O   UNL     1      -4.770   9.816  13.970  0.00  0.00    +0.000 OA
ATOM     19  N   UNL     1      -2.737   9.761  12.935  0.00  0.00    +0.000 N 
ATOM     20  H   UNL     1      -1.769  10.060  12.869  0.00  0.00    +0.000 HD
BRANCH  19  21
ATOM     21  O   UNL     1      -3.411   9.570  11.707  0.00  0.00    +0.000 OA
ATOM     22  H   UNL     1      -2.693   9.243  11.120  0.00  0.00    +0.000 HD
ENDBRANCH  19  21
ENDBRANCH  13  17
ENDBRANCH   6   9
BRANCH   6  23
ATOM     23  C   UNL     1       1.089  11.813  19.563  0.00  0.00    +0.000 A 
ATOM     24  C   UNL     1       1.140  12.521  20.781  0.00  0.00    +0.000 A 
ATOM     25  C   UNL     1       1.911  13.679  20.929  0.00  0.00    +0.000 A 
ATOM     26  C   UNL     1       2.647  14.169  19.858  0.00  0.00    +0.000 A 
ATOM     27  C   UNL     1       2.612  13.501  18.640  0.00  0.00    +0.000 A 
ATOM     28  C   UNL     1       1.844  12.338  18.493  0.00  0.00    +0.000 A 
ENDBRANCH   6  23
BRANCH   1  29
ATOM     29  C   UNL     1       2.858   6.012  18.627  0.00  0.00    +0.000 C 
BRANCH  29  30
ATOM     30  C   UNL     1       2.360   4.565  18.530  0.00  0.00    +0.000 A 
ATOM     31  C   UNL     1       1.432   4.083  19.469  0.00  0.00    +0.000 A 
ATOM     32  C   UNL     1       1.050   2.741  19.475  0.00  0.00    +0.000 A 
ATOM     33  C   UNL     1       1.591   1.855  18.547  0.00  0.00    +0.000 A 
ATOM     34  C   UNL     1       2.455   2.329  17.562  0.00  0.00    +0.000 A 
ATOM     35  C   UNL     1       2.818   3.682  17.538  0.00  0.00    +0.000 A 
ENDBRANCH  29  30
BRANCH  29  37
ATOM     36  C   UNL     1       5.050   6.207  17.312  0.00  0.00    +0.000 C 
ATOM     37  C   UNL     1       4.414   6.102  18.708  0.00  0.00    +0.000 C 
ATOM     38  C   UNL     1       5.001   4.857  19.394  0.00  0.00    +0.000 C 
ENDBRANCH  29  37
ENDBRANCH   1  29
TORSDOF 7
ENDMDL
MODEL 4
REMARK VINA RESULT:      -8.7      3.442     10.329
REMARK  Name = 
REMARK  9 active torsions:
REMARK  status: ('A' for Active; 'I' for Inactive)
REMARK    1  A    between atoms: C_1  and  C_2
REMARK    2  A    between atoms: C_2  and  C_3
REMARK    3  A    between atoms: C_2  and  C_4
REMARK    4  A    between atoms: C_4  and  C_5
REMARK    5  A    between atoms: C_4  and  C_30
REMARK    6  A    between atoms: C_10  and  N_11
REMARK    7  A    between atoms: C_10  and  C_22
REMARK    8  A    between atoms: C_15  and  C_16
REMARK    9  A    between atoms: N_18  and  O_19
REMARK                            x       y       z     vdW  Elec       q    Type
REMARK                         _______ _______ _______ _____ _____    ______ ____
ROOT
ATOM      1  C   UNL     1       0.719   9.935  20.094  0.00  0.00    +0.000 C 
ATOM      2  O   UNL     1       0.508  10.306  21.254  0.00  0.00    +0.000 OA
ATOM      3  N   UNL     1       1.316   8.692  19.836  0.00  0.00    +0.000 N 
ATOM      4  C   UNL     1       1.448   7.770  20.959  0.00  0.00    +0.000 C 
ATOM      5  C   UNL     1       2.726   6.940  20.889  0.00  0.00    +0.000 C 
ATOM      6  C   UNL     1       2.935   6.197  19.538  0.00  0.00    +0.000 C 
ATOM      7  C   UNL     1       2.747   7.247  18.408  0.00  0.00    +0.000 C 
ATOM      8  C   UNL     1       1.465   8.075  18.519  0.00  0.00    +0.000 C 
ENDROOT
BRANCH   6   9
ATOM      9  N   UNL     1       4.353   5.769  19.475  0.00  0.00    +0.000 N 
ATOM     10  C   UNL     1       4.967   5.524  18.257  0.00  0.00    +0.000 A 
ATOM     11  N   UNL     1       4.535   6.139  17.150  0.00  0.00    +0.000 NA
ATOM     12  C   UNL     1       5.192   5.930  15.998  0.00  0.00    +0.000 A 
ATOM     13  C   UNL     1       6.250   5.073  15.890  0.00  0.00    +0.000 A 
ATOM     14  C   UNL     1       6.626   4.462  17.071  0.00  0.00    +0.000 A 
ATOM     15  N   UNL     1       6.000   4.661  18.251  0.00  0.00    +0.000 NA
ATOM     16  H   UNL     1       4.605   4.991  20.078  0.00  0.00    +0.000 HD
BRANCH  13  17
ATOM     17  C   UNL     1       6.981   4.847  14.638  0.00  0.00    +0.000 C 
ATOM     18  O   UNL     1       6.699   3.902  13.907  0.00  0.00    +0.000 OA
ATOM     19  N   UNL     1       7.968   5.754  14.317  0.00  0.00    +0.000 N 
ATOM     20  H   UNL     1       8.086   6.671  14.737  0.00  0.00    +0.000 HD
BRANCH  19  21
ATOM     21  O   UNL     1       8.577   5.568  13.055  0.00  0.00    +0.000 OA
ATOM     22  H   UNL     1       9.524   5.749  13.249  0.00  0.00    +0.000 HD
ENDBRANCH  19  21
ENDBRANCH  13  17
ENDBRANCH   6   9
BRANCH   6  23
ATOM     23  C   UNL     1       2.011   4.974  19.279  0.00  0.00    +0.000 A 
ATOM     24  C   UNL     1       1.444   4.216  20.323  0.00  0.00    +0.000 A 
ATOM     25  C   UNL     1       0.708   3.052  20.074  0.00  0.00    +0.000 A 
ATOM     26  C   UNL     1       0.526   2.606  18.772  0.00  0.00    +0.000 A 
ATOM     27  C   UNL     1       1.080   3.325  17.718  0.00  0.00    +0.000 A 
ATOM     28  C   UNL     1       1.813   4.493  17.967  0.00  0.00    +0.000 A 
ENDBRANCH   6  23
BRANCH   1  29
ATOM     29  C   UNL     1       0.350  10.870  18.911  0.00  0.00    +0.000 C 
BRANCH  29  30
ATOM     30  C   UNL     1       1.155  12.173  18.992  0.00  0.00    +0.000 A 
ATOM     31  C   UNL     1       0.780  13.167  19.912  0.00  0.00    +0.000 A 
ATOM     32  C   UNL     1       1.421  14.407  19.928  0.00  0.00    +0.000 A 
ATOM     33  C   UNL     1       2.444  14.677  19.024  0.00  0.00    +0.000 A 
ATOM     34  C   UNL     1       2.880  13.678  18.154  0.00  0.00    +0.000 A 
ATOM     35  C   UNL     1       2.255  12.424  18.157  0.00  0.00    +0.000 A 
ENDBRANCH  29  30
BRANCH  29  37
ATOM     36  C   UNL     1      -1.928   9.914  18.227  0.00  0.00    +0.000 C 
ATOM     37  C   UNL     1      -1.187  11.125  18.818  0.00  0.00    +0.000 C 
ATOM     38  C   UNL     1      -1.490  12.338  17.923  0.00  0.00    +0.000 C 
ENDBRANCH  29  37
ENDBRANCH   1  29
TORSDOF 7
ENDMDL
MODEL 5
REMARK VINA RESULT:      -8.6      0.169      1.161
REMARK  Name = 
REMARK  9 active torsions:
REMARK  status: ('A' for Active; 'I' for Inactive)
REMARK    1  A    between atoms: C_1  and  C_2
REMARK    2  A    between atoms: C_2  and  C_3
REMARK    3  A    between atoms: C_2  and  C_4
REMARK    4  A    between atoms: C_4  and  C_5
REMARK    5  A    between atoms: C_4  and  C_30
REMARK    6  A    between atoms: C_10  and  N_11
REMARK    7  A    between atoms: C_10  and  C_22
REMARK    8  A    between atoms: C_15  and  C_16
REMARK    9  A    between atoms: N_18  and  O_19
REMARK                            x       y       z     vdW  Elec       q    Type
REMARK                         _______ _______ _______ _____ _____    ______ ____
ROOT
ATOM      1  C   UNL     1       1.963   7.075  19.781  0.00  0.00    +0.000 C 
ATOM      2  O   UNL     1       1.789   6.564  20.893  0.00  0.00    +0.000 OA
ATOM      3  N   UNL     1       1.597   8.408  19.539  0.00  0.00    +0.000 N 
ATOM      4  C   UNL     1       1.240   9.221  20.696  0.00  0.00    +0.000 C 
ATOM      5  C   UNL     1       0.129  10.220  20.389  0.00  0.00    +0.000 C 
ATOM      6  C   UNL     1       0.398  11.117  19.147  0.00  0.00    +0.000 C 
ATOM      7  C   UNL     1       0.797  10.170  17.981  0.00  0.00    +0.000 C 
ATOM      8  C   UNL     1       1.900   9.168  18.328  0.00  0.00    +0.000 C 
ENDROOT
BRANCH   6   9
ATOM      9  N   UNL     1      -0.889  11.739  18.754  0.00  0.00    +0.000 N 
ATOM     10  C   UNL     1      -1.849  12.046  19.704  0.00  0.00    +0.000 A 
ATOM     11  N   UNL     1      -1.488  12.300  20.967  0.00  0.00    +0.000 NA
ATOM     12  C   UNL     1      -2.435  12.658  21.849  0.00  0.00    +0.000 A 
ATOM     13  C   UNL     1      -3.762  12.724  21.531  0.00  0.00    +0.000 A 
ATOM     14  C   UNL     1      -4.058  12.433  20.214  0.00  0.00    +0.000 A 
ATOM     15  N   UNL     1      -3.131  12.084  19.295  0.00  0.00    +0.000 NA
ATOM     16  H   UNL     1      -1.385  11.281  17.993  0.00  0.00    +0.000 HD
BRANCH  13  17
ATOM     17  C   UNL     1      -4.801  13.126  22.485  0.00  0.00    +0.000 C 
ATOM     18  O   UNL     1      -5.636  13.975  22.183  0.00  0.00    +0.000 OA
ATOM     19  N   UNL     1      -4.809  12.492  23.708  0.00  0.00    +0.000 N 
ATOM     20  H   UNL     1      -4.318  11.631  23.929  0.00  0.00    +0.000 HD
BRANCH  19  21
ATOM     21  O   UNL     1      -5.886  12.826  24.559  0.00  0.00    +0.000 OA
ATOM     22  H   UNL     1      -5.813  13.805  24.619  0.00  0.00    +0.000 HD
ENDBRANCH  19  21
ENDBRANCH  13  17
ENDBRANCH   6   9
BRANCH   6  23
ATOM     23  C   UNL     1       1.478  12.222  19.320  0.00  0.00    +0.000 A 
ATOM     24  C   UNL     1       1.801  12.777  20.575  0.00  0.00    +0.000 A 
ATOM     25  C   UNL     1       2.692  13.849  20.699  0.00  0.00    +0.000 A 
ATOM     26  C   UNL     1       3.279  14.404  19.569  0.00  0.00    +0.000 A 
ATOM     27  C   UNL     1       2.975  13.886  18.315  0.00  0.00    +0.000 A 
ATOM     28  C   UNL     1       2.086  12.810  18.191  0.00  0.00    +0.000 A 
ENDBRANCH   6  23
BRANCH   1  29
ATOM     29  C   UNL     1       2.562   6.222  18.630  0.00  0.00    +0.000 C 
BRANCH  29  30
ATOM     30  C   UNL     1       2.120   4.759  18.768  0.00  0.00    +0.000 A 
ATOM     31  C   UNL     1       2.427   3.841  17.750  0.00  0.00    +0.000 A 
ATOM     32  C   UNL     1       1.939   2.534  17.793  0.00  0.00    +0.000 A 
ATOM     33  C   UNL     1       1.134   2.122  18.852  0.00  0.00    +0.000 A 
ATOM     34  C   UNL     1       0.881   2.996  19.908  0.00  0.00    +0.000 A 
ATOM     35  C   UNL     1       1.393   4.300  19.878  0.00  0.00    +0.000 A 
ENDBRANCH  29  30
BRANCH  29  37
ATOM     36  C   UNL     1       4.590   6.374  17.071  0.00  0.00    +0.000 C 
ATOM     37  C   UNL     1       4.112   6.368  18.532  0.00  0.00    +0.000 C 
ATOM     38  C   UNL     1       4.820   5.207  19.249  0.00  0.00    +0.000 C 
ENDBRANCH  29  37
ENDBRANCH   1  29
TORSDOF 7
ENDMDL
MODEL 6
REMARK VINA RESULT:      -8.6      2.727      8.777
REMARK  Name = 
REMARK  9 active torsions:
REMARK  status: ('A' for Active; 'I' for Inactive)
REMARK    1  A    between atoms: C_1  and  C_2
REMARK    2  A    between atoms: C_2  and  C_3
REMARK    3  A    between atoms: C_2  and  C_4
REMARK    4  A    between atoms: C_4  and  C_5
REMARK    5  A    between atoms: C_4  and  C_30
REMARK    6  A    between atoms: C_10  and  N_11
REMARK    7  A    between atoms: C_10  and  C_22
REMARK    8  A    between atoms: C_15  and  C_16
REMARK    9  A    between atoms: N_18  and  O_19
REMARK                            x       y       z     vdW  Elec       q    Type
REMARK                         _______ _______ _______ _____ _____    ______ ____
ROOT
ATOM      1  C   UNL     1      -4.312  11.868  18.287  0.00  0.00    +0.000 C 
ATOM      2  O   UNL     1      -4.564  11.426  17.160  0.00  0.00    +0.000 OA
ATOM      3  N   UNL     1      -3.005  11.833  18.795  0.00  0.00    +0.000 N 
ATOM      4  C   UNL     1      -1.937  11.487  17.863  0.00  0.00    +0.000 C 
ATOM      5  C   UNL     1      -0.828  10.671  18.520  0.00  0.00    +0.000 C 
ATOM      6  C   UNL     1      -0.245  11.306  19.815  0.00  0.00    +0.000 C 
ATOM      7  C   UNL     1      -1.452  11.665  20.727  0.00  0.00    +0.000 C 
ATOM      8  C   UNL     1      -2.555  12.467  20.032  0.00  0.00    +0.000 C 
ENDROOT
BRANCH   6   9
ATOM      9  N   UNL     1       0.515  10.253  20.530  0.00  0.00    +0.000 N 
ATOM     10  C   UNL     1       1.192   9.267  19.831  0.00  0.00    +0.000 A 
ATOM     11  N   UNL     1       1.630   9.504  18.588  0.00  0.00    +0.000 NA
ATOM     12  C   UNL     1       2.339   8.552  17.962  0.00  0.00    +0.000 A 
ATOM     13  C   UNL     1       2.590   7.327  18.512  0.00  0.00    +0.000 A 
ATOM     14  C   UNL     1       2.092   7.151  19.789  0.00  0.00    +0.000 A 
ATOM     15  N   UNL     1       1.388   8.092  20.457  0.00  0.00    +0.000 NA
ATOM     16  H   UNL     1       0.012   9.774  21.272  0.00  0.00    +0.000 HD
BRANCH  13  17
ATOM     17  C   UNL     1       3.374   6.286  17.840  0.00  0.00    +0.000 C 
ATOM     18  O   UNL     1       3.009   5.114  17.860  0.00  0.00    +0.000 OA
ATOM     19  N   UNL     1       4.509   6.689  17.171  0.00  0.00    +0.000 N 
ATOM     20  H   UNL     1       4.732   7.645  16.911  0.00  0.00    +0.000 HD
BRANCH  19  21
ATOM     21  O   UNL     1       5.180   5.678  16.447  0.00  0.00    +0.000 OA
ATOM     22  H   UNL     1       4.506   4.962  16.410  0.00  0.00    +0.000 HD
ENDBRANCH  19  21
ENDBRANCH  13  17
ENDBRANCH   6   9
BRANCH   6  23
ATOM     23  C   UNL     1       0.657  12.557  19.620  0.00  0.00    +0.000 A 
ATOM     24  C   UNL     1       1.227  12.895  18.376  0.00  0.00    +0.000 A 
ATOM     25  C   UNL     1       2.127  13.957  18.242  0.00  0.00    +0.000 A 
ATOM     26  C   UNL     1       2.491  14.709  19.352  0.00  0.00    +0.000 A 
ATOM     27  C   UNL     1       1.954  14.397  20.596  0.00  0.00    +0.000 A 
ATOM     28  C   UNL     1       1.049  13.335  20.729  0.00  0.00    +0.000 A 
ENDBRANCH   6  23
BRANCH   1  29
ATOM     29  C   UNL     1      -5.462  12.437  19.162  0.00  0.00    +0.000 C 
BRANCH  29  30
ATOM     30  C   UNL     1      -6.368  11.302  19.653  0.00  0.00    +0.000 A 
ATOM     31  C   UNL     1      -7.171  11.494  20.790  0.00  0.00    +0.000 A 
ATOM     32  C   UNL     1      -7.917  10.444  21.327  0.00  0.00    +0.000 A 
ATOM     33  C   UNL     1      -7.870   9.182  20.740  0.00  0.00    +0.000 A 
ATOM     34  C   UNL     1      -7.139   8.991  19.568  0.00  0.00    +0.000 A 
ATOM     35  C   UNL     1      -6.413  10.052  19.014  0.00  0.00    +0.000 A 
ENDBRANCH  29  30
BRANCH  29  37
ATOM     36  C   UNL     1      -6.578  14.735  19.370  0.00  0.00    +0.000 C 
ATOM     37  C   UNL     1      -6.259  13.561  18.429  0.00  0.00    +0.000 C 
ATOM     38  C   UNL     1      -7.594  13.024  17.887  0.00  0.00    +0.000 C 
ENDBRANCH  29  37
ENDBRANCH   1  29
TORSDOF 7
ENDMDL
MODEL 7
REMARK VINA RESULT:      -8.3      2.686      8.775
REMARK  Name = 
REMARK  9 active torsions:
REMARK  status: ('A' for Active; 'I' for Inactive)
REMARK    1  A    between atoms: C_1  and  C_2
REMARK    2  A    between atoms: C_2  and  C_3
REMARK    3  A    between atoms: C_2  and  C_4
REMARK    4  A    between atoms: C_4  and  C_5
REMARK    5  A    between atoms: C_4  and  C_30
REMARK    6  A    between atoms: C_10  and  N_11
REMARK    7  A    between atoms: C_10  and  C_22
REMARK    8  A    between atoms: C_15  and  C_16
REMARK    9  A    between atoms: N_18  and  O_19
REMARK                            x       y       z     vdW  Elec       q    Type
REMARK                         _______ _______ _______ _____ _____    ______ ____
ROOT
ATOM      1  C   UNL     1      -4.178  11.898  18.234  0.00  0.00    +0.000 C 
ATOM      2  O   UNL     1      -4.401  11.426  17.114  0.00  0.00    +0.000 OA
ATOM      3  N   UNL     1      -2.892  11.846  18.793  0.00  0.00    +0.000 N 
ATOM      4  C   UNL     1      -1.801  11.442  17.913  0.00  0.00    +0.000 C 
ATOM      5  C   UNL     1      -0.739  10.619  18.637  0.00  0.00    +0.000 C 
ATOM      6  C   UNL     1      -0.187  11.281  19.932  0.00  0.00    +0.000 C 
ATOM      7  C   UNL     1      -1.417  11.701  20.786  0.00  0.00    +0.000 C 
ATOM      8  C   UNL     1      -2.471  12.508  20.025  0.00  0.00    +0.000 C 
ENDROOT
BRANCH   6   9
ATOM      9  N   UNL     1       0.517  10.232  20.708  0.00  0.00    +0.000 N 
ATOM     10  C   UNL     1       1.154   9.182  20.068  0.00  0.00    +0.000 A 
ATOM     11  N   UNL     1       1.614   9.335  18.820  0.00  0.00    +0.000 NA
ATOM     12  C   UNL     1       2.284   8.320  18.251  0.00  0.00    +0.000 A 
ATOM     13  C   UNL     1       2.473   7.115  18.866  0.00  0.00    +0.000 A 
ATOM     14  C   UNL     1       1.956   7.028  20.144  0.00  0.00    +0.000 A 
ATOM     15  N   UNL     1       1.291   8.033  20.755  0.00  0.00    +0.000 NA
ATOM     16  H   UNL     1      -0.014   9.816  21.468  0.00  0.00    +0.000 HD
BRANCH  13  17
ATOM     17  C   UNL     1       3.214   6.006  18.257  0.00  0.00    +0.000 C 
ATOM     18  O   UNL     1       4.442   6.002  18.246  0.00  0.00    +0.000 OA
ATOM     19  N   UNL     1       2.472   4.970  17.731  0.00  0.00    +0.000 N 
ATOM     20  H   UNL     1       1.491   4.793  17.919  0.00  0.00    +0.000 HD
BRANCH  19  21
ATOM     21  O   UNL     1       3.219   3.871  17.250  0.00  0.00    +0.000 OA
ATOM     22  H   UNL     1       4.140   4.122  17.486  0.00  0.00    +0.000 HD
ENDBRANCH  19  21
ENDBRANCH  13  17
ENDBRANCH   6   9
BRANCH   6  23
ATOM     23  C   UNL     1       0.755  12.501  19.731  0.00  0.00    +0.000 A 
ATOM     24  C   UNL     1       0.966  13.470  20.733  0.00  0.00    +0.000 A 
ATOM     25  C   UNL     1       1.726  14.621  20.497  0.00  0.00    +0.000 A 
ATOM     26  C   UNL     1       2.291  14.841  19.247  0.00  0.00    +0.000 A 
ATOM     27  C   UNL     1       2.095  13.910  18.233  0.00  0.00    +0.000 A 
ATOM     28  C   UNL     1       1.337  12.755  18.471  0.00  0.00    +0.000 A 
ENDBRANCH   6  23
BRANCH   1  29
ATOM     29  C   UNL     1      -5.343  12.526  19.047  0.00  0.00    +0.000 C 
BRANCH  29  30
ATOM     30  C   UNL     1      -6.192  11.426  19.695  0.00  0.00    +0.000 A 
ATOM     31  C   UNL     1      -6.239  10.148  19.113  0.00  0.00    +0.000 A 
ATOM     32  C   UNL     1      -7.092   9.163  19.614  0.00  0.00    +0.000 A 
ATOM     33  C   UNL     1      -7.915   9.438  20.702  0.00  0.00    +0.000 A 
ATOM     34  C   UNL     1      -7.828  10.675  21.340  0.00  0.00    +0.000 A 
ATOM     35  C   UNL     1      -6.952  11.654  20.854  0.00  0.00    +0.000 A 
ENDBRANCH  29  30
BRANCH  29  37
ATOM     36  C   UNL     1      -6.573  14.774  18.979  0.00  0.00    +0.000 C 
ATOM     37  C   UNL     1      -6.198  13.509  18.188  0.00  0.00    +0.000 C 
ATOM     38  C   UNL     1      -7.505  12.843  17.728  0.00  0.00    +0.000 C 
ENDBRANCH  29  37
ENDBRANCH   1  29
TORSDOF 7
ENDMDL
MODEL 8
REMARK VINA RESULT:      -8.2      3.452      4.536
REMARK  Name = 
REMARK  9 active torsions:
REMARK  status: ('A' for Active; 'I' for Inactive)
REMARK    1  A    between atoms: C_1  and  C_2
REMARK    2  A    between atoms: C_2  and  C_3
REMARK    3  A    between atoms: C_2  and  C_4
REMARK    4  A    between atoms: C_4  and  C_5
REMARK    5  A    between atoms: C_4  and  C_30
REMARK    6  A    between atoms: C_10  and  N_11
REMARK    7  A    between atoms: C_10  and  C_22
REMARK    8  A    between atoms: C_15  and  C_16
REMARK    9  A    between atoms: N_18  and  O_19
REMARK                            x       y       z     vdW  Elec       q    Type
REMARK                         _______ _______ _______ _____ _____    ______ ____
ROOT
ATOM      1  C   UNL     1       1.905   7.202  20.023  0.00  0.00    +0.000 C 
ATOM      2  O   UNL     1       1.900   6.872  21.214  0.00  0.00    +0.000 OA
ATOM      3  N   UNL     1       1.291   8.393  19.607  0.00  0.00    +0.000 N 
ATOM      4  C   UNL     1       0.873   9.326  20.648  0.00  0.00    +0.000 C 
ATOM      5  C   UNL     1      -0.418  10.059  20.293  0.00  0.00    +0.000 C 
ATOM      6  C   UNL     1      -0.397  10.757  18.903  0.00  0.00    +0.000 C 
ATOM      7  C   UNL     1       0.087   9.700  17.871  0.00  0.00    +0.000 C 
ATOM      8  C   UNL     1       1.372   8.970  18.267  0.00  0.00    +0.000 C 
ENDROOT
BRANCH   6   9
ATOM      9  N   UNL     1      -1.798  11.080  18.541  0.00  0.00    +0.000 N 
ATOM     10  C   UNL     1      -2.290  10.788  17.279  0.00  0.00    +0.000 A 
ATOM     11  N   UNL     1      -1.762   9.786  16.566  0.00  0.00    +0.000 NA
ATOM     12  C   UNL     1      -2.304   9.487  15.375  0.00  0.00    +0.000 A 
ATOM     13  C   UNL     1      -3.338  10.193  14.828  0.00  0.00    +0.000 A 
ATOM     14  C   UNL     1      -3.818  11.222  15.615  0.00  0.00    +0.000 A 
ATOM     15  N   UNL     1      -3.309  11.542  16.826  0.00  0.00    +0.000 NA
ATOM     16  H   UNL     1      -2.098  12.029  18.746  0.00  0.00    +0.000 HD
BRANCH  13  17
ATOM     17  C   UNL     1      -3.943   9.865  13.534  0.00  0.00    +0.000 C 
ATOM     18  O   UNL     1      -5.148   9.649  13.441  0.00  0.00    +0.000 OA
ATOM     19  N   UNL     1      -3.107   9.840  12.438  0.00  0.00    +0.000 N 
ATOM     20  H   UNL     1      -2.174  10.239  12.400  0.00  0.00    +0.000 HD
BRANCH  19  21
ATOM     21  O   UNL     1      -3.741   9.628  11.194  0.00  0.00    +0.000 OA
ATOM     22  H   UNL     1      -3.932   8.663  11.216  0.00  0.00    +0.000 HD
ENDBRANCH  19  21
ENDBRANCH  13  17
ENDBRANCH   6   9
BRANCH   6  23
ATOM     23  C   UNL     1       0.477  12.039  18.792  0.00  0.00    +0.000 A 
ATOM     24  C   UNL     1       1.836  12.000  18.420  0.00  0.00    +0.000 A 
ATOM     25  C   UNL     1       2.637  13.147  18.436  0.00  0.00    +0.000 A 
ATOM     26  C   UNL     1       2.104  14.366  18.833  0.00  0.00    +0.000 A 
ATOM     27  C   UNL     1       0.769  14.438  19.215  0.00  0.00    +0.000 A 
ATOM     28  C   UNL     1      -0.034  13.290  19.195  0.00  0.00    +0.000 A 
ENDBRANCH   6  23
BRANCH   1  29
ATOM     29  C   UNL     1       2.568   6.272  18.972  0.00  0.00    +0.000 C 
BRANCH  29  30
ATOM     30  C   UNL     1       2.175   4.813  19.230  0.00  0.00    +0.000 A 
ATOM     31  C   UNL     1       1.720   4.015  18.166  0.00  0.00    +0.000 A 
ATOM     32  C   UNL     1       1.246   2.722  18.391  0.00  0.00    +0.000 A 
ATOM     33  C   UNL     1       1.215   2.204  19.683  0.00  0.00    +0.000 A 
ATOM     34  C   UNL     1       1.731   2.951  20.741  0.00  0.00    +0.000 A 
ATOM     35  C   UNL     1       2.232   4.238  20.511  0.00  0.00    +0.000 A 
ENDBRANCH  29  30
BRANCH  29  37
ATOM     36  C   UNL     1       4.577   6.840  17.485  0.00  0.00    +0.000 C 
ATOM     37  C   UNL     1       4.115   6.468  18.904  0.00  0.00    +0.000 C 
ATOM     38  C   UNL     1       4.851   5.181  19.310  0.00  0.00    +0.000 C 
ENDBRANCH  29  37
ENDBRANCH   1  29
TORSDOF 7
ENDMDL
MODEL 9
REMARK VINA RESULT:      -7.8      4.770      7.722
REMARK  Name = 
REMARK  9 active torsions:
REMARK  status: ('A' for Active; 'I' for Inactive)
REMARK    1  A    between atoms: C_1  and  C_2
REMARK    2  A    between atoms: C_2  and  C_3
REMARK    3  A    between atoms: C_2  and  C_4
REMARK    4  A    between atoms: C_4  and  C_5
REMARK    5  A    between atoms: C_4  and  C_30
REMARK    6  A    between atoms: C_10  and  N_11
REMARK    7  A    between atoms: C_10  and  C_22
REMARK    8  A    between atoms: C_15  and  C_16
REMARK    9  A    between atoms: N_18  and  O_19
REMARK                            x       y       z     vdW  Elec       q    Type
REMARK                         _______ _______ _______ _____ _____    ______ ____
ROOT
ATOM      1  C   UNL     1       7.302  15.069  20.242  0.00  0.00    +0.000 C 
ATOM      2  O   UNL     1       7.456  15.212  21.460  0.00  0.00    +0.000 OA
ATOM      3  N   UNL     1       6.016  14.976  19.689  0.00  0.00    +0.000 N 
ATOM      4  C   UNL     1       4.891  15.297  20.561  0.00  0.00    +0.000 C 
ATOM      5  C   UNL     1       3.665  14.434  20.277  0.00  0.00    +0.000 C 
ATOM      6  C   UNL     1       3.221  14.420  18.787  0.00  0.00    +0.000 C 
ATOM      7  C   UNL     1       4.485  14.100  17.939  0.00  0.00    +0.000 C 
ATOM      8  C   UNL     1       5.701  14.971  18.262  0.00  0.00    +0.000 C 
ENDROOT
BRANCH   6   9
ATOM      9  N   UNL     1       2.298  13.274  18.603  0.00  0.00    +0.000 N 
ATOM     10  C   UNL     1       1.478  12.849  19.635  0.00  0.00    +0.000 A 
ATOM     11  N   UNL     1       1.093  13.710  20.585  0.00  0.00    +0.000 NA
ATOM     12  C   UNL     1       0.246  13.284  21.536  0.00  0.00    +0.000 A 
ATOM     13  C   UNL     1      -0.200  11.995  21.613  0.00  0.00    +0.000 A 
ATOM     14  C   UNL     1       0.255  11.163  20.608  0.00  0.00    +0.000 A 
ATOM     15  N   UNL     1       1.094  11.560  19.626  0.00  0.00    +0.000 NA
ATOM     16  H   UNL     1       2.714  12.433  18.211  0.00  0.00    +0.000 HD
BRANCH  13  17
ATOM     17  C   UNL     1      -1.134  11.525  22.640  0.00  0.00    +0.000 C 
ATOM     18  O   UNL     1      -0.805  10.650  23.436  0.00  0.00    +0.000 OA
ATOM     19  N   UNL     1      -2.374  12.126  22.684  0.00  0.00    +0.000 N 
ATOM     20  H   UNL     1      -2.620  13.001  22.231  0.00  0.00    +0.000 HD
BRANCH  19  21
ATOM     21  O   UNL     1      -3.207  11.725  23.752  0.00  0.00    +0.000 OA
ATOM     22  H   UNL     1      -3.465  10.813  23.488  0.00  0.00    +0.000 HD
ENDBRANCH  19  21
ENDBRANCH  13  17
ENDBRANCH   6   9
BRANCH   6  23
ATOM     23  C   UNL     1       2.549  15.719  18.259  0.00  0.00    +0.000 A 
ATOM     24  C   UNL     1       2.923  16.326  17.043  0.00  0.00    +0.000 A 
ATOM     25  C   UNL     1       2.389  17.555  16.639  0.00  0.00    +0.000 A 
ATOM     26  C   UNL     1       1.472  18.218  17.444  0.00  0.00    +0.000 A 
ATOM     27  C   UNL     1       1.088  17.651  18.655  0.00  0.00    +0.000 A 
ATOM     28  C   UNL     1       1.620  16.418  19.057  0.00  0.00    +0.000 A 
ENDBRANCH   6  23
BRANCH   1  29
ATOM     29  C   UNL     1       8.545  14.956  19.319  0.00  0.00    +0.000 C 
BRANCH  29  30
ATOM     30  C   UNL     1       9.061  13.512  19.296  0.00  0.00    +0.000 A 
ATOM     31  C   UNL     1       8.885  12.728  18.144  0.00  0.00    +0.000 A 
ATOM     32  C   UNL     1       9.239  11.377  18.134  0.00  0.00    +0.000 A 
ATOM     33  C   UNL     1       9.771  10.786  19.277  0.00  0.00    +0.000 A 
ATOM     34  C   UNL     1      10.023  11.565  20.405  0.00  0.00    +0.000 A 
ATOM     35  C   UNL     1       9.693  12.926  20.406  0.00  0.00    +0.000 A 
ENDBRANCH  29  30
BRANCH  29  37
ATOM     36  C   UNL     1       9.158  17.429  19.592  0.00  0.00    +0.000 C 
ATOM     37  C   UNL     1       9.659  15.979  19.702  0.00  0.00    +0.000 C 
ATOM     38  C   UNL     1      10.878  15.837  18.777  0.00  0.00    +0.000 C 
ENDBRANCH  29  37
ENDBRANCH   1  29
TORSDOF 7
ENDMDL
