MODEL 1
REMARK VINA RESULT:      -7.5      0.000      0.000
REMARK  Name = 
REMARK  3 active torsions:
REMARK  status: ('A' for Active; 'I' for Inactive)
REMARK    1  A    between atoms: C_2  and  C_12
REMARK    2  A    between atoms: N_3  and  S_4
REMARK    3  A    between atoms: S_4  and  C_7
REMARK                            x       y       z     vdW  Elec       q    Type
REMARK                         _______ _______ _______ _____ _____    ______ ____
ROOT
ATOM      1  N   UNL     1       6.215   4.108  18.921  0.00  0.00    +0.000 NA
ATOM      2  C   UNL     1       5.123   4.226  18.250  0.00  0.00    +0.000 C 
ATOM      3  N   UNL     1       5.123   4.447  16.870  0.00  0.00    +0.000 N 
ATOM      4  H   UNL     1       7.027   4.196  18.293  0.00  0.00    +0.000 HD
ATOM      5  H   UNL     1       4.240   4.446  16.362  0.00  0.00    +0.000 HD
ENDROOT
BRANCH   2   6
ATOM      6  C   UNL     1       3.799   4.129  18.922  0.00  0.00    +0.000 A 
ATOM      7  C   UNL     1       3.285   5.298  19.511  0.00  0.00    +0.000 A 
ATOM      8  C   UNL     1       2.012   5.306  20.090  0.00  0.00    +0.000 A 
ATOM      9  C   UNL     1       1.234   4.153  20.070  0.00  0.00    +0.000 A 
ATOM     10  C   UNL     1       1.734   2.985  19.498  0.00  0.00    +0.000 A 
ATOM     11  C   UNL     1       3.018   2.962  18.936  0.00  0.00    +0.000 A 
ATOM     12 CL   UNL     1       3.504   1.452  18.242  0.00  0.00    +0.000 Cl
ENDBRANCH   2   6
BRANCH   3  13
ATOM     13  S   UNL     1       6.318   5.198  15.984  0.00  0.00    +0.000 S 
ATOM     14  O   UNL     1       5.984   6.603  15.856  0.00  0.00    +0.000 OA
ATOM     15  O   UNL     1       7.580   4.756  16.529  0.00  0.00    +0.000 OA
BRANCH  13  16
ATOM     16  C   UNL     1       6.290   4.540  14.325  0.00  0.00    +0.000 A 
ATOM     17  C   UNL     1       5.382   3.735  13.662  0.00  0.00    +0.000 A 
ATOM     18  C   UNL     1       5.811   3.399  12.343  0.00  0.00    +0.000 A 
ATOM     19  C   UNL     1       7.023   3.974  12.034  0.00  0.00    +0.000 A 
ATOM     20  S   UNL     1       7.626   4.921  13.323  0.00  0.00    +0.000 S 
ENDBRANCH  13  16
ENDBRANCH   3  13
TORSDOF 3
ENDMDL
MODEL 2
REMARK VINA RESULT:      -7.4      1.317      1.692
REMARK  Name = 
REMARK  3 active torsions:
REMARK  status: ('A' for Active; 'I' for Inactive)
REMARK    1  A    between atoms: C_2  and  C_12
REMARK    2  A    between atoms: N_3  and  S_4
REMARK    3  A    between atoms: S_4  and  C_7
REMARK                            x       y       z     vdW  Elec       q    Type
REMARK                         _______ _______ _______ _____ _____    ______ ____
ROOT
ATOM      1  N   UNL     1       6.058   4.367  19.076  0.00  0.00    +0.000 NA
ATOM      2  C   UNL     1       5.152   4.078  18.210  0.00  0.00    +0.000 C 
ATOM      3  N   UNL     1       5.426   4.040  16.840  0.00  0.00    +0.000 N 
ATOM      4  H   UNL     1       6.956   4.548  18.603  0.00  0.00    +0.000 HD
ATOM      5  H   UNL     1       4.706   3.721  16.193  0.00  0.00    +0.000 HD
ENDROOT
BRANCH   2   6
ATOM      6  C   UNL     1       3.761   3.765  18.634  0.00  0.00    +0.000 A 
ATOM      7  C   UNL     1       3.505   2.462  19.098  0.00  0.00    +0.000 A 
ATOM      8  C   UNL     1       2.242   2.114  19.589  0.00  0.00    +0.000 A 
ATOM      9  C   UNL     1       1.231   3.069  19.639  0.00  0.00    +0.000 A 
ATOM     10  C   UNL     1       1.469   4.361  19.174  0.00  0.00    +0.000 A 
ATOM     11  C   UNL     1       2.724   4.711  18.659  0.00  0.00    +0.000 A 
ATOM     12 CL   UNL     1       2.886   6.354  18.136  0.00  0.00    +0.000 Cl
ENDBRANCH   2   6
BRANCH   3  13
ATOM     13  S   UNL     1       6.604   4.903  16.036  0.00  0.00    +0.000 S 
ATOM     14  O   UNL     1       6.258   6.310  16.080  0.00  0.00    +0.000 OA
ATOM     15  O   UNL     1       7.876   4.410  16.513  0.00  0.00    +0.000 OA
BRANCH  13  16
ATOM     16  C   UNL     1       6.564   4.446  14.311  0.00  0.00    +0.000 A 
ATOM     17  C   UNL     1       5.715   3.628  13.589  0.00  0.00    +0.000 A 
ATOM     18  C   UNL     1       6.110   3.499  12.224  0.00  0.00    +0.000 A 
ATOM     19  C   UNL     1       7.236   4.239  11.943  0.00  0.00    +0.000 A 
ATOM     20  S   UNL     1       7.800   5.088  13.315  0.00  0.00    +0.000 S 
ENDBRANCH  13  16
ENDBRANCH   3  13
TORSDOF 3
ENDMDL
MODEL 3
REMARK VINA RESULT:      -7.4      2.784      3.688
REMARK  Name = 
REMARK  3 active torsions:
REMARK  status: ('A' for Active; 'I' for Inactive)
REMARK    1  A    between atoms: C_2  and  C_12
REMARK    2  A    between atoms: N_3  and  S_4
REMARK    3  A    between atoms: S_4  and  C_7
REMARK                            x       y       z     vdW  Elec       q    Type
REMARK                         _______ _______ _______ _____ _____    ______ ____
ROOT
ATOM      1  N   UNL     1       4.573   2.496  17.276  0.00  0.00    +0.000 NA
ATOM      2  C   UNL     1       3.878   3.574  17.385  0.00  0.00    +0.000 C 
ATOM      3  N   UNL     1       4.120   4.693  16.584  0.00  0.00    +0.000 N 
ATOM      4  H   UNL     1       5.285   2.607  16.538  0.00  0.00    +0.000 HD
ATOM      5  H   UNL     1       3.492   5.494  16.638  0.00  0.00    +0.000 HD
ENDROOT
BRANCH   2   6
ATOM      6  C   UNL     1       2.773   3.673  18.376  0.00  0.00    +0.000 A 
ATOM      7  C   UNL     1       1.725   2.740  18.272  0.00  0.00    +0.000 A 
ATOM      8  C   UNL     1       0.692   2.718  19.215  0.00  0.00    +0.000 A 
ATOM      9  C   UNL     1       0.706   3.615  20.279  0.00  0.00    +0.000 A 
ATOM     10  C   UNL     1       1.733   4.550  20.389  0.00  0.00    +0.000 A 
ATOM     11  C   UNL     1       2.760   4.593  19.436  0.00  0.00    +0.000 A 
ATOM     12 CL   UNL     1       3.981   5.791  19.707  0.00  0.00    +0.000 Cl
ENDBRANCH   2   6
BRANCH   3  13
ATOM     13  S   UNL     1       5.572   5.124  15.890  0.00  0.00    +0.000 S 
ATOM     14  O   UNL     1       6.156   3.950  15.271  0.00  0.00    +0.000 OA
ATOM     15  O   UNL     1       5.333   6.342  15.151  0.00  0.00    +0.000 OA
BRANCH  13  16
ATOM     16  C   UNL     1       6.701   5.601  17.188  0.00  0.00    +0.000 A 
ATOM     17  C   UNL     1       7.294   4.884  18.211  0.00  0.00    +0.000 A 
ATOM     18  C   UNL     1       8.085   5.706  19.067  0.00  0.00    +0.000 A 
ATOM     19  C   UNL     1       8.089   7.021  18.659  0.00  0.00    +0.000 A 
ATOM     20  S   UNL     1       7.153   7.252  17.247  0.00  0.00    +0.000 S 
ENDBRANCH  13  16
ENDBRANCH   3  13
TORSDOF 3
ENDMDL
MODEL 4
REMARK VINA RESULT:      -7.3      1.346      1.518
REMARK  Name = 
REMARK  3 active torsions:
REMARK  status: ('A' for Active; 'I' for Inactive)
REMARK    1  A    between atoms: C_2  and  C_12
REMARK    2  A    between atoms: N_3  and  S_4
REMARK    3  A    between atoms: S_4  and  C_7
REMARK                            x       y       z     vdW  Elec       q    Type
REMARK                         _______ _______ _______ _____ _____    ______ ____
ROOT
ATOM      1  N   UNL     1       5.942   4.541  19.175  0.00  0.00    +0.000 NA
ATOM      2  C   UNL     1       5.170   4.155  18.222  0.00  0.00    +0.000 C 
ATOM      3  N   UNL     1       5.610   4.084  16.897  0.00  0.00    +0.000 N 
ATOM      4  H   UNL     1       6.877   4.768  18.804  0.00  0.00    +0.000 HD
ATOM      5  H   UNL     1       4.996   3.689  16.185  0.00  0.00    +0.000 HD
ENDROOT
BRANCH   2   6
ATOM      6  C   UNL     1       3.761   3.759  18.492  0.00  0.00    +0.000 A 
ATOM      7  C   UNL     1       2.758   4.371  17.718  0.00  0.00    +0.000 A 
ATOM      8  C   UNL     1       1.419   3.993  17.858  0.00  0.00    +0.000 A 
ATOM      9  C   UNL     1       1.072   2.988  18.756  0.00  0.00    +0.000 A 
ATOM     10  C   UNL     1       2.055   2.380  19.534  0.00  0.00    +0.000 A 
ATOM     11  C   UNL     1       3.396   2.769  19.418  0.00  0.00    +0.000 A 
ATOM     12 CL   UNL     1       4.513   1.917  20.430  0.00  0.00    +0.000 Cl
ENDBRANCH   2   6
BRANCH   3  13
ATOM     13  S   UNL     1       6.817   4.998  16.200  0.00  0.00    +0.000 S 
ATOM     14  O   UNL     1       6.453   6.397  16.297  0.00  0.00    +0.000 OA
ATOM     15  O   UNL     1       8.069   4.493  16.714  0.00  0.00    +0.000 OA
BRANCH  13  16
ATOM     16  C   UNL     1       6.868   4.630  14.454  0.00  0.00    +0.000 A 
ATOM     17  C   UNL     1       7.700   5.066  13.438  0.00  0.00    +0.000 A 
ATOM     18  C   UNL     1       7.321   4.551  12.163  0.00  0.00    +0.000 A 
ATOM     19  C   UNL     1       6.225   3.722  12.248  0.00  0.00    +0.000 A 
ATOM     20  S   UNL     1       5.670   3.561  13.856  0.00  0.00    +0.000 S 
ENDBRANCH  13  16
ENDBRANCH   3  13
TORSDOF 3
ENDMDL
MODEL 5
REMARK VINA RESULT:      -7.3      1.517      2.040
REMARK  Name = 
REMARK  3 active torsions:
REMARK  status: ('A' for Active; 'I' for Inactive)
REMARK    1  A    between atoms: C_2  and  C_12
REMARK    2  A    between atoms: N_3  and  S_4
REMARK    3  A    between atoms: S_4  and  C_7
REMARK                            x       y       z     vdW  Elec       q    Type
REMARK                         _______ _______ _______ _____ _____    ______ ____
ROOT
ATOM      1  N   UNL     1       5.929   3.948  18.937  0.00  0.00    +0.000 NA
ATOM      2  C   UNL     1       5.023   3.947  18.023  0.00  0.00    +0.000 C 
ATOM      3  N   UNL     1       5.324   4.207  16.684  0.00  0.00    +0.000 N 
ATOM      4  H   UNL     1       6.849   4.158  18.523  0.00  0.00    +0.000 HD
ATOM      5  H   UNL     1       4.596   4.109  15.977  0.00  0.00    +0.000 HD
ENDROOT
BRANCH   2   6
ATOM      6  C   UNL     1       3.601   3.661  18.356  0.00  0.00    +0.000 A 
ATOM      7  C   UNL     1       3.156   2.335  18.206  0.00  0.00    +0.000 A 
ATOM      8  C   UNL     1       1.857   1.971  18.575  0.00  0.00    +0.000 A 
ATOM      9  C   UNL     1       0.998   2.924  19.115  0.00  0.00    +0.000 A 
ATOM     10  C   UNL     1       1.423   4.242  19.262  0.00  0.00    +0.000 A 
ATOM     11  C   UNL     1       2.716   4.620  18.873  0.00  0.00    +0.000 A 
ATOM     12 CL   UNL     1       3.118   6.284  19.130  0.00  0.00    +0.000 Cl
ENDBRANCH   2   6
BRANCH   3  13
ATOM     13  S   UNL     1       6.587   5.131  16.110  0.00  0.00    +0.000 S 
ATOM     14  O   UNL     1       6.197   6.527  16.155  0.00  0.00    +0.000 OA
ATOM     15  O   UNL     1       7.784   4.647  16.759  0.00  0.00    +0.000 OA
BRANCH  13  16
ATOM     16  C   UNL     1       6.828   4.750  14.382  0.00  0.00    +0.000 A 
ATOM     17  C   UNL     1       7.715   5.239  13.440  0.00  0.00    +0.000 A 
ATOM     18  C   UNL     1       7.496   4.684  12.144  0.00  0.00    +0.000 A 
ATOM     19  C   UNL     1       6.463   3.774  12.143  0.00  0.00    +0.000 A 
ATOM     20  S   UNL     1       5.775   3.587  13.696  0.00  0.00    +0.000 S 
ENDBRANCH  13  16
ENDBRANCH   3  13
TORSDOF 3
ENDMDL
MODEL 6
REMARK VINA RESULT:      -7.2      4.136      6.346
REMARK  Name = 
REMARK  3 active torsions:
REMARK  status: ('A' for Active; 'I' for Inactive)
REMARK    1  A    between atoms: C_2  and  C_12
REMARK    2  A    between atoms: N_3  and  S_4
REMARK    3  A    between atoms: S_4  and  C_7
REMARK                            x       y       z     vdW  Elec       q    Type
REMARK                         _______ _______ _______ _____ _____    ______ ____
ROOT
ATOM      1  N   UNL     1       2.890   6.294  18.438  0.00  0.00    +0.000 NA
ATOM      2  C   UNL     1       3.797   5.501  17.984  0.00  0.00    +0.000 C 
ATOM      3  N   UNL     1       3.476   4.292  17.362  0.00  0.00    +0.000 N 
ATOM      4  H   UNL     1       1.954   5.898  18.265  0.00  0.00    +0.000 HD
ATOM      5  H   UNL     1       4.216   3.735  16.937  0.00  0.00    +0.000 HD
ENDROOT
BRANCH   2   6
ATOM      6  C   UNL     1       5.240   5.844  18.101  0.00  0.00    +0.000 A 
ATOM      7  C   UNL     1       5.899   5.473  19.287  0.00  0.00    +0.000 A 
ATOM      8  C   UNL     1       7.273   5.689  19.438  0.00  0.00    +0.000 A 
ATOM      9  C   UNL     1       8.003   6.258  18.400  0.00  0.00    +0.000 A 
ATOM     10  C   UNL     1       7.361   6.637  17.223  0.00  0.00    +0.000 A 
ATOM     11  C   UNL     1       5.981   6.446  17.072  0.00  0.00    +0.000 A 
ATOM     12 CL   UNL     1       5.318   6.944  15.552  0.00  0.00    +0.000 Cl
ENDBRANCH   2   6
BRANCH   3  13
ATOM     13  S   UNL     1       2.115   3.367  17.627  0.00  0.00    +0.000 S 
ATOM     14  O   UNL     1       0.947   4.151  17.277  0.00  0.00    +0.000 OA
ATOM     15  O   UNL     1       2.373   2.072  17.040  0.00  0.00    +0.000 OA
BRANCH  13  16
ATOM     16  C   UNL     1       1.979   3.047  19.378  0.00  0.00    +0.000 A 
ATOM     17  C   UNL     1       0.899   3.055  20.241  0.00  0.00    +0.000 A 
ATOM     18  C   UNL     1       1.277   2.802  21.593  0.00  0.00    +0.000 A 
ATOM     19  C   UNL     1       2.631   2.589  21.716  0.00  0.00    +0.000 A 
ATOM     20  S   UNL     1       3.432   2.683  20.209  0.00  0.00    +0.000 S 
ENDBRANCH  13  16
ENDBRANCH   3  13
TORSDOF 3
ENDMDL
MODEL 7
REMARK VINA RESULT:      -7.1      1.648      2.117
REMARK  Name = 
REMARK  3 active torsions:
REMARK  status: ('A' for Active; 'I' for Inactive)
REMARK    1  A    between atoms: C_2  and  C_12
REMARK    2  A    between atoms: N_3  and  S_4
REMARK    3  A    between atoms: S_4  and  C_7
REMARK                            x       y       z     vdW  Elec       q    Type
REMARK                         _______ _______ _______ _____ _____    ______ ____
ROOT
ATOM      1  N   UNL     1       4.169   6.561  17.228  0.00  0.00    +0.000 NA
ATOM      2  C   UNL     1       4.360   5.331  17.553  0.00  0.00    +0.000 C 
ATOM      3  N   UNL     1       5.625   4.740  17.498  0.00  0.00    +0.000 N 
ATOM      4  H   UNL     1       5.060   6.994  16.944  0.00  0.00    +0.000 HD
ATOM      5  H   UNL     1       5.751   3.791  17.849  0.00  0.00    +0.000 HD
ENDROOT
BRANCH   2   6
ATOM      6  C   UNL     1       3.230   4.477  18.011  0.00  0.00    +0.000 A 
ATOM      7  C   UNL     1       3.115   3.196  17.441  0.00  0.00    +0.000 A 
ATOM      8  C   UNL     1       2.129   2.306  17.877  0.00  0.00    +0.000 A 
ATOM      9  C   UNL     1       1.261   2.679  18.899  0.00  0.00    +0.000 A 
ATOM     10  C   UNL     1       1.359   3.948  19.467  0.00  0.00    +0.000 A 
ATOM     11  C   UNL     1       2.330   4.854  19.020  0.00  0.00    +0.000 A 
ATOM     12 CL   UNL     1       2.351   6.386  19.827  0.00  0.00    +0.000 Cl
ENDBRANCH   2   6
BRANCH   3  13
ATOM     13  S   UNL     1       6.883   5.173  16.495  0.00  0.00    +0.000 S 
ATOM     14  O   UNL     1       6.927   6.620  16.407  0.00  0.00    +0.000 OA
ATOM     15  O   UNL     1       8.028   4.394  16.904  0.00  0.00    +0.000 OA
BRANCH  13  16
ATOM     16  C   UNL     1       6.515   4.598  14.845  0.00  0.00    +0.000 A 
ATOM     17  C   UNL     1       5.463   3.861  14.333  0.00  0.00    +0.000 A 
ATOM     18  C   UNL     1       5.622   3.573  12.945  0.00  0.00    +0.000 A 
ATOM     19  C   UNL     1       6.780   4.116  12.437  0.00  0.00    +0.000 A 
ATOM     20  S   UNL     1       7.657   4.975  13.626  0.00  0.00    +0.000 S 
ENDBRANCH  13  16
ENDBRANCH   3  13
TORSDOF 3
ENDMDL
MODEL 8
REMARK VINA RESULT:      -7.1      4.054      6.341
REMARK  Name = 
REMARK  3 active torsions:
REMARK  status: ('A' for Active; 'I' for Inactive)
REMARK    1  A    between atoms: C_2  and  C_12
REMARK    2  A    between atoms: N_3  and  S_4
REMARK    3  A    between atoms: S_4  and  C_7
REMARK                            x       y       z     vdW  Elec       q    Type
REMARK                         _______ _______ _______ _____ _____    ______ ____
ROOT
ATOM      1  N   UNL     1       3.121   5.127  17.570  0.00  0.00    +0.000 NA
ATOM      2  C   UNL     1       4.269   4.562  17.707  0.00  0.00    +0.000 C 
ATOM      3  N   UNL     1       4.423   3.176  17.634  0.00  0.00    +0.000 N 
ATOM      4  H   UNL     1       2.393   4.416  17.404  0.00  0.00    +0.000 HD
ATOM      5  H   UNL     1       5.359   2.773  17.659  0.00  0.00    +0.000 HD
ENDROOT
BRANCH   2   6
ATOM      6  C   UNL     1       5.494   5.371  17.949  0.00  0.00    +0.000 A 
ATOM      7  C   UNL     1       6.221   5.107  19.124  0.00  0.00    +0.000 A 
ATOM      8  C   UNL     1       7.427   5.769  19.382  0.00  0.00    +0.000 A 
ATOM      9  C   UNL     1       7.926   6.684  18.460  0.00  0.00    +0.000 A 
ATOM     10  C   UNL     1       7.211   6.960  17.296  0.00  0.00    +0.000 A 
ATOM     11  C   UNL     1       5.992   6.319  17.041  0.00  0.00    +0.000 A 
ATOM     12 CL   UNL     1       5.222   6.742  15.549  0.00  0.00    +0.000 Cl
ENDBRANCH   2   6
BRANCH   3  13
ATOM     13  S   UNL     1       3.273   2.026  18.000  0.00  0.00    +0.000 S 
ATOM     14  O   UNL     1       2.231   2.078  16.993  0.00  0.00    +0.000 OA
ATOM     15  O   UNL     1       3.987   0.807  18.303  0.00  0.00    +0.000 OA
BRANCH  13  16
ATOM     16  C   UNL     1       2.487   2.480  19.536  0.00  0.00    +0.000 A 
ATOM     17  C   UNL     1       1.177   2.790  19.851  0.00  0.00    +0.000 A 
ATOM     18  C   UNL     1       1.017   3.165  21.219  0.00  0.00    +0.000 A 
ATOM     19  C   UNL     1       2.207   3.110  21.909  0.00  0.00    +0.000 A 
ATOM     20  S   UNL     1       3.498   2.598  20.914  0.00  0.00    +0.000 S 
ENDBRANCH  13  16
ENDBRANCH   3  13
TORSDOF 3
ENDMDL
MODEL 9
REMARK VINA RESULT:      -7.0      3.929      6.422
REMARK  Name = 
REMARK  3 active torsions:
REMARK  status: ('A' for Active; 'I' for Inactive)
REMARK    1  A    between atoms: C_2  and  C_12
REMARK    2  A    between atoms: N_3  and  S_4
REMARK    3  A    between atoms: S_4  and  C_7
REMARK                            x       y       z     vdW  Elec       q    Type
REMARK                         _______ _______ _______ _____ _____    ______ ____
ROOT
ATOM      1  N   UNL     1       5.169   3.868  16.823  0.00  0.00    +0.000 NA
ATOM      2  C   UNL     1       5.716   4.264  17.918  0.00  0.00    +0.000 C 
ATOM      3  N   UNL     1       5.638   3.515  19.095  0.00  0.00    +0.000 N 
ATOM      4  H   UNL     1       4.701   2.961  16.968  0.00  0.00    +0.000 HD
ATOM      5  H   UNL     1       6.159   3.817  19.918  0.00  0.00    +0.000 HD
ENDROOT
BRANCH   2   6
ATOM      6  C   UNL     1       6.467   5.547  17.978  0.00  0.00    +0.000 A 
ATOM      7  C   UNL     1       7.506   5.645  18.921  0.00  0.00    +0.000 A 
ATOM      8  C   UNL     1       8.309   6.788  18.983  0.00  0.00    +0.000 A 
ATOM      9  C   UNL     1       8.094   7.835  18.091  0.00  0.00    +0.000 A 
ATOM     10  C   UNL     1       7.063   7.754  17.157  0.00  0.00    +0.000 A 
ATOM     11  C   UNL     1       6.239   6.622  17.104  0.00  0.00    +0.000 A 
ATOM     12 CL   UNL     1       5.012   6.647  15.883  0.00  0.00    +0.000 Cl
ENDBRANCH   2   6
BRANCH   3  13
ATOM     13  S   UNL     1       4.428   2.450  19.518  0.00  0.00    +0.000 S 
ATOM     14  O   UNL     1       4.074   1.665  18.352  0.00  0.00    +0.000 OA
ATOM     15  O   UNL     1       4.832   1.836  20.762  0.00  0.00    +0.000 OA
BRANCH  13  16
ATOM     16  C   UNL     1       2.967   3.388  19.933  0.00  0.00    +0.000 A 
ATOM     17  C   UNL     1       2.794   4.687  20.375  0.00  0.00    +0.000 A 
ATOM     18  C   UNL     1       1.428   4.993  20.649  0.00  0.00    +0.000 A 
ATOM     19  C   UNL     1       0.599   3.925  20.388  0.00  0.00    +0.000 A 
ATOM     20  S   UNL     1       1.466   2.572  19.807  0.00  0.00    +0.000 S 
ENDBRANCH  13  16
ENDBRANCH   3  13
TORSDOF 3
ENDMDL
