MODEL 1
REMARK VINA RESULT:      -8.4      0.000      0.000
REMARK  Name = 
REMARK  11 active torsions:
REMARK  status: ('A' for Active; 'I' for Inactive)
REMARK    1  A    between atoms: C_1  and  N_2
REMARK    2  A    between atoms: N_2  and  C_3
REMARK    3  A    between atoms: N_2  and  C_4
REMARK    4  A    between atoms: C_4  and  C_5
REMARK    5  A    between atoms: C_5  and  C_6
REMARK    6  A    between atoms: C_6  and  C_7
REMARK    7  A    between atoms: C_7  and  O_8
REMARK    8  A    between atoms: O_8  and  C_9
REMARK    9  A    between atoms: N_11  and  C_12
REMARK   10  A    between atoms: C_16  and  C_17
REMARK   11  A    between atoms: C_17  and  N_18
REMARK                            x       y       z     vdW  Elec       q    Type
REMARK                         _______ _______ _______ _____ _____    ______ ____
ROOT
ATOM      1  C   UNL     1       6.230   6.229  16.621  0.00  0.00    +0.000 A 
ATOM      2  C   UNL     1       6.013   5.698  15.346  0.00  0.00    +0.000 A 
ATOM      3  C   UNL     1       5.395   4.461  15.178  0.00  0.00    +0.000 A 
ATOM      4  C   UNL     1       4.978   3.743  16.302  0.00  0.00    +0.000 A 
ATOM      5  C   UNL     1       5.183   4.255  17.589  0.00  0.00    +0.000 A 
ATOM      6  C   UNL     1       5.861   5.479  17.742  0.00  0.00    +0.000 A 
ENDROOT
BRANCH   1   9
ATOM      7  C   UNL     1       7.705   7.832  17.796  0.00  0.00    +0.000 C 
ATOM      8  O   UNL     1       8.274   7.098  18.583  0.00  0.00    +0.000 OA
ATOM      9  N   UNL     1       6.807   7.496  16.820  0.00  0.00    +0.000 N 
ATOM     10  H   UNL     1       6.536   8.253  16.210  0.00  0.00    +0.000 HD
BRANCH   7  11
ATOM     11  O   UNL     1       7.832   9.187  17.817  0.00  0.00    +0.000 OA
BRANCH  11  12
ATOM     12  C   UNL     1       8.852   9.632  18.723  0.00  0.00    +0.000 C 
BRANCH  12  13
ATOM     13  C   UNL     1       9.604  10.863  18.236  0.00  0.00    +0.000 C 
BRANCH  13  14
ATOM     14  C   UNL     1      10.626  11.403  19.240  0.00  0.00    +0.000 C 
BRANCH  14  15
ATOM     15  C   UNL     1      10.200  12.710  19.932  0.00  0.00    +0.000 C 
BRANCH  15  17
ATOM     16  C   UNL     1       8.589  14.523  19.771  0.00  0.00    +0.000 C 
ATOM     17  N   UNL     1       9.519  13.663  19.035  0.00  0.00    +0.000 NA
ATOM     18  C   UNL     1      10.501  14.496  18.334  0.00  0.00    +0.000 C 
ENDBRANCH  15  17
ENDBRANCH  14  15
ENDBRANCH  13  14
ENDBRANCH  12  13
ENDBRANCH  11  12
ENDBRANCH   7  11
ENDBRANCH   1   9
BRANCH   5  19
ATOM     19  C   UNL     1       4.692   3.475  18.788  0.00  0.00    +0.000 C 
BRANCH  19  20
ATOM     20  N   UNL     1       3.509   4.086  19.380  0.00  0.00    +0.000 N 
ATOM     21  N   UNL     1       3.100   5.289  18.844  0.00  0.00    +0.000 NA
ATOM     22  C   UNL     1       2.292   6.050  19.519  0.00  0.00    +0.000 A 
ATOM     23  N   UNL     1       1.996   7.342  18.976  0.00  0.00    +0.000 N 
ATOM     24  C   UNL     1       2.345   7.596  17.650  0.00  0.00    +0.000 A 
ATOM     25  C   UNL     1       2.999   8.802  17.701  0.00  0.00    +0.000 A 
ATOM     26  C   UNL     1       2.037   9.519  18.453  0.00  0.00    +0.000 A 
ATOM     27  C   UNL     1       1.631  10.865  18.397  0.00  0.00    +0.000 A 
ATOM     28  C   UNL     1       0.629  11.292  19.250  0.00  0.00    +0.000 A 
ATOM     29  F   UNL     1       0.182  12.546  19.168  0.00  0.00    +0.000 F 
ATOM     30  C   UNL     1       0.088  10.418  20.204  0.00  0.00    +0.000 A 
ATOM     31  C   UNL     1       0.491   9.066  20.290  0.00  0.00    +0.000 A 
ATOM     32  C   UNL     1       1.428   8.580  19.350  0.00  0.00    +0.000 A 
ATOM     33  C   UNL     1       1.748   5.685  20.856  0.00  0.00    +0.000 A 
ATOM     34  C   UNL     1       2.081   4.468  21.304  0.00  0.00    +0.000 A 
ATOM     35  C   UNL     1       3.015   3.565  20.562  0.00  0.00    +0.000 A 
ATOM     36  O   UNL     1       3.305   2.488  21.069  0.00  0.00    +0.000 OA
ENDBRANCH  19  20
ENDBRANCH   5  19
TORSDOF 9
ENDMDL
MODEL 2
REMARK VINA RESULT:      -8.3      4.890      9.196
REMARK  Name = 
REMARK  11 active torsions:
REMARK  status: ('A' for Active; 'I' for Inactive)
REMARK    1  A    between atoms: C_1  and  N_2
REMARK    2  A    between atoms: N_2  and  C_3
REMARK    3  A    between atoms: N_2  and  C_4
REMARK    4  A    between atoms: C_4  and  C_5
REMARK    5  A    between atoms: C_5  and  C_6
REMARK    6  A    between atoms: C_6  and  C_7
REMARK    7  A    between atoms: C_7  and  O_8
REMARK    8  A    between atoms: O_8  and  C_9
REMARK    9  A    between atoms: N_11  and  C_12
REMARK   10  A    between atoms: C_16  and  C_17
REMARK   11  A    between atoms: C_17  and  N_18
REMARK                            x       y       z     vdW  Elec       q    Type
REMARK                         _______ _______ _______ _____ _____    ______ ____
ROOT
ATOM      1  C   UNL     1       0.860   9.293  20.367  0.00  0.00    +0.000 A 
ATOM      2  C   UNL     1       1.174   9.639  19.050  0.00  0.00    +0.000 A 
ATOM      3  C   UNL     1       1.948   8.799  18.251  0.00  0.00    +0.000 A 
ATOM      4  C   UNL     1       2.410   7.588  18.774  0.00  0.00    +0.000 A 
ATOM      5  C   UNL     1       2.104   7.220  20.090  0.00  0.00    +0.000 A 
ATOM      6  C   UNL     1       1.371   8.106  20.900  0.00  0.00    +0.000 A 
ENDROOT
BRANCH   1   9
ATOM      7  C   UNL     1       0.052  10.142  22.547  0.00  0.00    +0.000 C 
ATOM      8  O   UNL     1       0.838   9.615  23.313  0.00  0.00    +0.000 OA
ATOM      9  N   UNL     1       0.041  10.098  21.180  0.00  0.00    +0.000 N 
ATOM     10  H   UNL     1      -0.642  10.695  20.739  0.00  0.00    +0.000 HD
BRANCH   7  11
ATOM     11  O   UNL     1      -1.039  10.840  22.966  0.00  0.00    +0.000 OA
BRANCH  11  12
ATOM     12  C   UNL     1      -1.416  11.877  22.049  0.00  0.00    +0.000 C 
BRANCH  12  13
ATOM     13  C   UNL     1      -2.317  12.937  22.667  0.00  0.00    +0.000 C 
BRANCH  13  14
ATOM     14  C   UNL     1      -3.415  12.368  23.569  0.00  0.00    +0.000 C 
BRANCH  14  15
ATOM     15  C   UNL     1      -4.639  13.287  23.731  0.00  0.00    +0.000 C 
BRANCH  15  17
ATOM     16  C   UNL     1      -7.013  12.917  24.099  0.00  0.00    +0.000 C 
ATOM     17  N   UNL     1      -5.886  12.719  23.185  0.00  0.00    +0.000 NA
ATOM     18  C   UNL     1      -6.199  13.324  21.887  0.00  0.00    +0.000 C 
ENDBRANCH  15  17
ENDBRANCH  14  15
ENDBRANCH  13  14
ENDBRANCH  12  13
ENDBRANCH  11  12
ENDBRANCH   7  11
ENDBRANCH   1   9
BRANCH   5  19
ATOM     19  C   UNL     1       2.586   5.887  20.621  0.00  0.00    +0.000 C 
BRANCH  19  20
ATOM     20  N   UNL     1       2.724   4.901  19.558  0.00  0.00    +0.000 N 
ATOM     21  N   UNL     1       3.862   4.982  18.782  0.00  0.00    +0.000 NA
ATOM     22  C   UNL     1       3.896   4.385  17.630  0.00  0.00    +0.000 A 
ATOM     23  N   UNL     1       5.050   4.601  16.810  0.00  0.00    +0.000 N 
ATOM     24  C   UNL     1       6.174   5.187  17.392  0.00  0.00    +0.000 A 
ATOM     25  C   UNL     1       6.523   6.185  16.518  0.00  0.00    +0.000 A 
ATOM     26  C   UNL     1       6.516   5.420  15.327  0.00  0.00    +0.000 A 
ATOM     27  C   UNL     1       7.322   5.486  14.176  0.00  0.00    +0.000 A 
ATOM     28  C   UNL     1       7.104   4.574  13.159  0.00  0.00    +0.000 A 
ATOM     29  F   UNL     1       7.900   4.576  12.089  0.00  0.00    +0.000 F 
ATOM     30  C   UNL     1       6.047   3.656  13.243  0.00  0.00    +0.000 A 
ATOM     31  C   UNL     1       5.213   3.581  14.381  0.00  0.00    +0.000 A 
ATOM     32  C   UNL     1       5.494   4.425  15.480  0.00  0.00    +0.000 A 
ATOM     33  C   UNL     1       2.766   3.580  17.091  0.00  0.00    +0.000 A 
ATOM     34  C   UNL     1       1.716   3.435  17.909  0.00  0.00    +0.000 A 
ATOM     35  C   UNL     1       1.634   4.113  19.240  0.00  0.00    +0.000 A 
ATOM     36  O   UNL     1       0.615   3.966  19.904  0.00  0.00    +0.000 OA
ENDBRANCH  19  20
ENDBRANCH   5  19
TORSDOF 9
ENDMDL
MODEL 3
REMARK VINA RESULT:      -8.2      4.959      8.674
REMARK  Name = 
REMARK  11 active torsions:
REMARK  status: ('A' for Active; 'I' for Inactive)
REMARK    1  A    between atoms: C_1  and  N_2
REMARK    2  A    between atoms: N_2  and  C_3
REMARK    3  A    between atoms: N_2  and  C_4
REMARK    4  A    between atoms: C_4  and  C_5
REMARK    5  A    between atoms: C_5  and  C_6
REMARK    6  A    between atoms: C_6  and  C_7
REMARK    7  A    between atoms: C_7  and  O_8
REMARK    8  A    between atoms: O_8  and  C_9
REMARK    9  A    between atoms: N_11  and  C_12
REMARK   10  A    between atoms: C_16  and  C_17
REMARK   11  A    between atoms: C_17  and  N_18
REMARK                            x       y       z     vdW  Elec       q    Type
REMARK                         _______ _______ _______ _____ _____    ______ ____
ROOT
ATOM      1  C   UNL     1       0.900   9.032  20.132  0.00  0.00    +0.000 A 
ATOM      2  C   UNL     1       1.192   9.441  18.828  0.00  0.00    +0.000 A 
ATOM      3  C   UNL     1       2.040   8.693  18.013  0.00  0.00    +0.000 A 
ATOM      4  C   UNL     1       2.599   7.510  18.506  0.00  0.00    +0.000 A 
ATOM      5  C   UNL     1       2.317   7.080  19.808  0.00  0.00    +0.000 A 
ATOM      6  C   UNL     1       1.506   7.878  20.636  0.00  0.00    +0.000 A 
ENDROOT
BRANCH   1   9
ATOM      7  C   UNL     1       0.256  10.939  21.573  0.00  0.00    +0.000 C 
ATOM      8  O   UNL     1       1.210  11.681  21.425  0.00  0.00    +0.000 OA
ATOM      9  N   UNL     1       0.010   9.741  20.961  0.00  0.00    +0.000 N 
ATOM     10  H   UNL     1      -0.896   9.340  21.153  0.00  0.00    +0.000 HD
BRANCH   7  11
ATOM     11  O   UNL     1      -0.735  11.173  22.476  0.00  0.00    +0.000 OA
BRANCH  11  12
ATOM     12  C   UNL     1      -1.361  12.451  22.291  0.00  0.00    +0.000 C 
BRANCH  12  13
ATOM     13  C   UNL     1      -2.735  12.366  21.641  0.00  0.00    +0.000 C 
BRANCH  13  14
ATOM     14  C   UNL     1      -2.775  12.889  20.203  0.00  0.00    +0.000 C 
BRANCH  14  15
ATOM     15  C   UNL     1      -2.294  11.875  19.149  0.00  0.00    +0.000 C 
BRANCH  15  17
ATOM     16  C   UNL     1      -3.175  10.183  17.643  0.00  0.00    +0.000 C 
ATOM     17  N   UNL     1      -3.304  11.561  18.122  0.00  0.00    +0.000 NA
ATOM     18  C   UNL     1      -4.655  11.768  18.653  0.00  0.00    +0.000 C 
ENDBRANCH  15  17
ENDBRANCH  14  15
ENDBRANCH  13  14
ENDBRANCH  12  13
ENDBRANCH  11  12
ENDBRANCH   7  11
ENDBRANCH   1   9
BRANCH   5  19
ATOM     19  C   UNL     1       2.906   5.778  20.306  0.00  0.00    +0.000 C 
BRANCH  19  20
ATOM     20  N   UNL     1       2.970   4.777  19.250  0.00  0.00    +0.000 N 
ATOM     21  N   UNL     1       4.070   4.823  18.418  0.00  0.00    +0.000 NA
ATOM     22  C   UNL     1       4.033   4.212  17.273  0.00  0.00    +0.000 A 
ATOM     23  N   UNL     1       5.149   4.393  16.394  0.00  0.00    +0.000 N 
ATOM     24  C   UNL     1       6.312   4.961  16.912  0.00  0.00    +0.000 A 
ATOM     25  C   UNL     1       6.638   5.941  16.009  0.00  0.00    +0.000 A 
ATOM     26  C   UNL     1       6.556   5.162  14.830  0.00  0.00    +0.000 A 
ATOM     27  C   UNL     1       7.305   5.197  13.640  0.00  0.00    +0.000 A 
ATOM     28  C   UNL     1       7.017   4.278  12.646  0.00  0.00    +0.000 A 
ATOM     29  F   UNL     1       7.758   4.249  11.538  0.00  0.00    +0.000 F 
ATOM     30  C   UNL     1       5.946   3.384  12.794  0.00  0.00    +0.000 A 
ATOM     31  C   UNL     1       5.169   3.341  13.974  0.00  0.00    +0.000 A 
ATOM     32  C   UNL     1       5.522   4.191  15.047  0.00  0.00    +0.000 A 
ATOM     33  C   UNL     1       2.860   3.425  16.801  0.00  0.00    +0.000 A 
ATOM     34  C   UNL     1       1.850   3.313  17.673  0.00  0.00    +0.000 A 
ATOM     35  C   UNL     1       1.849   4.008  18.997  0.00  0.00    +0.000 A 
ATOM     36  O   UNL     1       0.861   3.892  19.712  0.00  0.00    +0.000 OA
ENDBRANCH  19  20
ENDBRANCH   5  19
TORSDOF 9
ENDMDL
MODEL 4
REMARK VINA RESULT:      -8.2      5.894     10.550
REMARK  Name = 
REMARK  11 active torsions:
REMARK  status: ('A' for Active; 'I' for Inactive)
REMARK    1  A    between atoms: C_1  and  N_2
REMARK    2  A    between atoms: N_2  and  C_3
REMARK    3  A    between atoms: N_2  and  C_4
REMARK    4  A    between atoms: C_4  and  C_5
REMARK    5  A    between atoms: C_5  and  C_6
REMARK    6  A    between atoms: C_6  and  C_7
REMARK    7  A    between atoms: C_7  and  O_8
REMARK    8  A    between atoms: O_8  and  C_9
REMARK    9  A    between atoms: N_11  and  C_12
REMARK   10  A    between atoms: C_16  and  C_17
REMARK   11  A    between atoms: C_17  and  N_18
REMARK                            x       y       z     vdW  Elec       q    Type
REMARK                         _______ _______ _______ _____ _____    ______ ____
ROOT
ATOM      1  C   UNL     1      -3.395  11.869  18.712  0.00  0.00    +0.000 A 
ATOM      2  C   UNL     1      -3.695  10.782  17.887  0.00  0.00    +0.000 A 
ATOM      3  C   UNL     1      -2.695   9.917  17.445  0.00  0.00    +0.000 A 
ATOM      4  C   UNL     1      -1.373  10.137  17.840  0.00  0.00    +0.000 A 
ATOM      5  C   UNL     1      -1.049  11.218  18.669  0.00  0.00    +0.000 A 
ATOM      6  C   UNL     1      -2.062  12.114  19.058  0.00  0.00    +0.000 A 
ENDROOT
BRANCH   1   9
ATOM      7  C   UNL     1      -5.591  12.353  19.746  0.00  0.00    +0.000 C 
ATOM      8  O   UNL     1      -5.980  11.231  20.014  0.00  0.00    +0.000 OA
ATOM      9  N   UNL     1      -4.389  12.730  19.213  0.00  0.00    +0.000 N 
ATOM     10  H   UNL     1      -4.234  13.726  19.170  0.00  0.00    +0.000 HD
BRANCH   7  11
ATOM     11  O   UNL     1      -6.369  13.461  19.883  0.00  0.00    +0.000 OA
BRANCH  11  12
ATOM     12  C   UNL     1      -6.949  13.572  21.190  0.00  0.00    +0.000 C 
BRANCH  12  13
ATOM     13  C   UNL     1      -6.444  14.771  21.980  0.00  0.00    +0.000 C 
BRANCH  13  14
ATOM     14  C   UNL     1      -6.138  14.461  23.448  0.00  0.00    +0.000 C 
BRANCH  14  15
ATOM     15  C   UNL     1      -5.673  13.017  23.705  0.00  0.00    +0.000 C 
BRANCH  15  17
ATOM     16  C   UNL     1      -3.494  12.520  22.749  0.00  0.00    +0.000 C 
ATOM     17  N   UNL     1      -4.226  12.895  23.961  0.00  0.00    +0.000 NA
ATOM     18  C   UNL     1      -3.691  14.157  24.482  0.00  0.00    +0.000 C 
ENDBRANCH  15  17
ENDBRANCH  14  15
ENDBRANCH  13  14
ENDBRANCH  12  13
ENDBRANCH  11  12
ENDBRANCH   7  11
ENDBRANCH   1   9
BRANCH   5  19
ATOM     19  C   UNL     1       0.384  11.415  19.112  0.00  0.00    +0.000 C 
BRANCH  19  20
ATOM     20  N   UNL     1       0.786  10.416  20.093  0.00  0.00    +0.000 N 
ATOM     21  N   UNL     1       1.432   9.297  19.608  0.00  0.00    +0.000 NA
ATOM     22  C   UNL     1       1.508   8.231  20.346  0.00  0.00    +0.000 A 
ATOM     23  N   UNL     1       2.076   7.058  19.752  0.00  0.00    +0.000 N 
ATOM     24  C   UNL     1       2.765   7.196  18.548  0.00  0.00    +0.000 A 
ATOM     25  C   UNL     1       2.245   6.209  17.749  0.00  0.00    +0.000 A 
ATOM     26  C   UNL     1       2.376   5.129  18.655  0.00  0.00    +0.000 A 
ATOM     27  C   UNL     1       2.675   3.771  18.443  0.00  0.00    +0.000 A 
ATOM     28  C   UNL     1       2.769   2.933  19.540  0.00  0.00    +0.000 A 
ATOM     29  F   UNL     1       3.117   1.657  19.368  0.00  0.00    +0.000 F 
ATOM     30  C   UNL     1       2.491   3.414  20.827  0.00  0.00    +0.000 A 
ATOM     31  C   UNL     1       2.171   4.770  21.064  0.00  0.00    +0.000 A 
ATOM     32  C   UNL     1       2.187   5.667  19.971  0.00  0.00    +0.000 A 
ATOM     33  C   UNL     1       0.950   8.147  21.724  0.00  0.00    +0.000 A 
ATOM     34  C   UNL     1       0.422   9.279  22.205  0.00  0.00    +0.000 A 
ATOM     35  C   UNL     1       0.307  10.525  21.385  0.00  0.00    +0.000 A 
ATOM     36  O   UNL     1      -0.236  11.502  21.887  0.00  0.00    +0.000 OA
ENDBRANCH  19  20
ENDBRANCH   5  19
TORSDOF 9
ENDMDL
MODEL 5
REMARK VINA RESULT:      -8.1      1.551      2.119
REMARK  Name = 
REMARK  11 active torsions:
REMARK  status: ('A' for Active; 'I' for Inactive)
REMARK    1  A    between atoms: C_1  and  N_2
REMARK    2  A    between atoms: N_2  and  C_3
REMARK    3  A    between atoms: N_2  and  C_4
REMARK    4  A    between atoms: C_4  and  C_5
REMARK    5  A    between atoms: C_5  and  C_6
REMARK    6  A    between atoms: C_6  and  C_7
REMARK    7  A    between atoms: C_7  and  O_8
REMARK    8  A    between atoms: O_8  and  C_9
REMARK    9  A    between atoms: N_11  and  C_12
REMARK   10  A    between atoms: C_16  and  C_17
REMARK   11  A    between atoms: C_17  and  N_18
REMARK                            x       y       z     vdW  Elec       q    Type
REMARK                         _______ _______ _______ _____ _____    ______ ____
ROOT
ATOM      1  C   UNL     1       7.358   7.519  17.810  0.00  0.00    +0.000 A 
ATOM      2  C   UNL     1       8.176   6.660  18.550  0.00  0.00    +0.000 A 
ATOM      3  C   UNL     1       7.758   5.372  18.875  0.00  0.00    +0.000 A 
ATOM      4  C   UNL     1       6.504   4.927  18.447  0.00  0.00    +0.000 A 
ATOM      5  C   UNL     1       5.669   5.769  17.702  0.00  0.00    +0.000 A 
ATOM      6  C   UNL     1       6.083   7.086  17.433  0.00  0.00    +0.000 A 
ENDROOT
BRANCH   1   9
ATOM      7  C   UNL     1       8.492   9.686  18.187  0.00  0.00    +0.000 C 
ATOM      8  O   UNL     1       9.020   9.493  19.267  0.00  0.00    +0.000 OA
ATOM      9  N   UNL     1       7.773   8.807  17.425  0.00  0.00    +0.000 N 
ATOM     10  H   UNL     1       7.512   9.146  16.511  0.00  0.00    +0.000 HD
BRANCH   7  11
ATOM     11  O   UNL     1       8.479  10.900  17.573  0.00  0.00    +0.000 OA
BRANCH  11  12
ATOM     12  C   UNL     1       9.366  11.843  18.192  0.00  0.00    +0.000 C 
BRANCH  12  13
ATOM     13  C   UNL     1      10.769  11.836  17.603  0.00  0.00    +0.000 C 
BRANCH  13  14
ATOM     14  C   UNL     1      11.840  12.391  18.546  0.00  0.00    +0.000 C 
BRANCH  14  15
ATOM     15  C   UNL     1      11.341  12.664  19.976  0.00  0.00    +0.000 C 
BRANCH  15  17
ATOM     16  C   UNL     1      12.093  14.895  19.369  0.00  0.00    +0.000 C 
ATOM     17  N   UNL     1      11.358  14.091  20.349  0.00  0.00    +0.000 NA
ATOM     18  C   UNL     1       9.989  14.604  20.470  0.00  0.00    +0.000 C 
ENDBRANCH  15  17
ENDBRANCH  14  15
ENDBRANCH  13  14
ENDBRANCH  12  13
ENDBRANCH  11  12
ENDBRANCH   7  11
ENDBRANCH   1   9
BRANCH   5  19
ATOM     19  C   UNL     1       4.330   5.253  17.221  0.00  0.00    +0.000 C 
BRANCH  19  20
ATOM     20  N   UNL     1       3.272   5.521  18.185  0.00  0.00    +0.000 N 
ATOM     21  N   UNL     1       2.680   6.765  18.125  0.00  0.00    +0.000 NA
ATOM     22  C   UNL     1       1.995   7.199  19.139  0.00  0.00    +0.000 A 
ATOM     23  N   UNL     1       1.506   8.544  19.077  0.00  0.00    +0.000 N 
ATOM     24  C   UNL     1       1.536   9.201  17.848  0.00  0.00    +0.000 A 
ATOM     25  C   UNL     1       2.108  10.416  18.132  0.00  0.00    +0.000 A 
ATOM     26  C   UNL     1       1.294  10.767  19.235  0.00  0.00    +0.000 A 
ATOM     27  C   UNL     1       0.802  12.013  19.666  0.00  0.00    +0.000 A 
ATOM     28  C   UNL     1      -0.012  12.055  20.784  0.00  0.00    +0.000 A 
ATOM     29  F   UNL     1      -0.544  13.216  21.170  0.00  0.00    +0.000 F 
ATOM     30  C   UNL     1      -0.273  10.888  21.517  0.00  0.00    +0.000 A 
ATOM     31  C   UNL     1       0.223   9.628  21.114  0.00  0.00    +0.000 A 
ATOM     32  C   UNL     1       0.958   9.546  19.908  0.00  0.00    +0.000 A 
ATOM     33  C   UNL     1       1.784   6.409  20.384  0.00  0.00    +0.000 A 
ATOM     34  C   UNL     1       2.283   5.166  20.372  0.00  0.00    +0.000 A 
ATOM     35  C   UNL     1       3.085   4.632  19.228  0.00  0.00    +0.000 A 
ATOM     36  O   UNL     1       3.547   3.502  19.321  0.00  0.00    +0.000 OA
ENDBRANCH  19  20
ENDBRANCH   5  19
TORSDOF 9
ENDMDL
MODEL 6
REMARK VINA RESULT:      -8.1      1.058      1.305
REMARK  Name = 
REMARK  11 active torsions:
REMARK  status: ('A' for Active; 'I' for Inactive)
REMARK    1  A    between atoms: C_1  and  N_2
REMARK    2  A    between atoms: N_2  and  C_3
REMARK    3  A    between atoms: N_2  and  C_4
REMARK    4  A    between atoms: C_4  and  C_5
REMARK    5  A    between atoms: C_5  and  C_6
REMARK    6  A    between atoms: C_6  and  C_7
REMARK    7  A    between atoms: C_7  and  O_8
REMARK    8  A    between atoms: O_8  and  C_9
REMARK    9  A    between atoms: N_11  and  C_12
REMARK   10  A    between atoms: C_16  and  C_17
REMARK   11  A    between atoms: C_17  and  N_18
REMARK                            x       y       z     vdW  Elec       q    Type
REMARK                         _______ _______ _______ _____ _____    ______ ____
ROOT
ATOM      1  C   UNL     1       6.475   5.709  17.007  0.00  0.00    +0.000 A 
ATOM      2  C   UNL     1       6.189   5.611  15.642  0.00  0.00    +0.000 A 
ATOM      3  C   UNL     1       5.260   4.688  15.167  0.00  0.00    +0.000 A 
ATOM      4  C   UNL     1       4.597   3.852  16.071  0.00  0.00    +0.000 A 
ATOM      5  C   UNL     1       4.866   3.935  17.442  0.00  0.00    +0.000 A 
ATOM      6  C   UNL     1       5.849   4.832  17.898  0.00  0.00    +0.000 A 
ENDROOT
BRANCH   1   9
ATOM      7  C   UNL     1       8.036   6.590  18.714  0.00  0.00    +0.000 C 
ATOM      8  O   UNL     1       8.092   5.653  19.490  0.00  0.00    +0.000 OA
ATOM      9  N   UNL     1       7.372   6.663  17.521  0.00  0.00    +0.000 N 
ATOM     10  H   UNL     1       7.546   7.501  16.986  0.00  0.00    +0.000 HD
BRANCH   7  11
ATOM     11  O   UNL     1       8.604   7.800  18.968  0.00  0.00    +0.000 OA
BRANCH  11  12
ATOM     12  C   UNL     1       8.090   8.839  18.122  0.00  0.00    +0.000 C 
BRANCH  12  13
ATOM     13  C   UNL     1       8.924  10.113  18.149  0.00  0.00    +0.000 C 
BRANCH  13  14
ATOM     14  C   UNL     1       9.442  10.486  19.541  0.00  0.00    +0.000 C 
BRANCH  14  15
ATOM     15  C   UNL     1       9.333  11.985  19.874  0.00  0.00    +0.000 C 
BRANCH  15  17
ATOM     16  C   UNL     1       9.661  13.745  21.518  0.00  0.00    +0.000 C 
ATOM     17  N   UNL     1       9.596  12.299  21.290  0.00  0.00    +0.000 NA
ATOM     18  C   UNL     1       8.555  11.719  22.144  0.00  0.00    +0.000 C 
ENDBRANCH  15  17
ENDBRANCH  14  15
ENDBRANCH  13  14
ENDBRANCH  12  13
ENDBRANCH  11  12
ENDBRANCH   7  11
ENDBRANCH   1   9
BRANCH   5  19
ATOM     19  C   UNL     1       4.111   3.044  18.404  0.00  0.00    +0.000 C 
BRANCH  19  20
ATOM     20  N   UNL     1       3.147   3.799  19.194  0.00  0.00    +0.000 N 
ATOM     21  N   UNL     1       2.777   5.034  18.703  0.00  0.00    +0.000 NA
ATOM     22  C   UNL     1       2.212   5.895  19.494  0.00  0.00    +0.000 A 
ATOM     23  N   UNL     1       1.961   7.204  18.971  0.00  0.00    +0.000 N 
ATOM     24  C   UNL     1       2.063   7.396  17.594  0.00  0.00    +0.000 A 
ATOM     25  C   UNL     1       2.845   8.516  17.468  0.00  0.00    +0.000 A 
ATOM     26  C   UNL     1       2.142   9.353  18.367  0.00  0.00    +0.000 A 
ATOM     27  C   UNL     1       1.887  10.736  18.341  0.00  0.00    +0.000 A 
ATOM     28  C   UNL     1       1.130  11.292  19.357  0.00  0.00    +0.000 A 
ATOM     29  F   UNL     1       0.821  12.588  19.317  0.00  0.00    +0.000 F 
ATOM     30  C   UNL     1       0.697  10.502  20.433  0.00  0.00    +0.000 A 
ATOM     31  C   UNL     1       0.954   9.114  20.490  0.00  0.00    +0.000 A 
ATOM     32  C   UNL     1       1.623   8.506  19.402  0.00  0.00    +0.000 A 
ATOM     33  C   UNL     1       1.911   5.617  20.926  0.00  0.00    +0.000 A 
ATOM     34  C   UNL     1       2.187   4.376  21.345  0.00  0.00    +0.000 A 
ATOM     35  C   UNL     1       2.845   3.358  20.469  0.00  0.00    +0.000 A 
ATOM     36  O   UNL     1       3.108   2.263  20.949  0.00  0.00    +0.000 OA
ENDBRANCH  19  20
ENDBRANCH   5  19
TORSDOF 9
ENDMDL
MODEL 7
REMARK VINA RESULT:      -8.0      6.048     10.504
REMARK  Name = 
REMARK  11 active torsions:
REMARK  status: ('A' for Active; 'I' for Inactive)
REMARK    1  A    between atoms: C_1  and  N_2
REMARK    2  A    between atoms: N_2  and  C_3
REMARK    3  A    between atoms: N_2  and  C_4
REMARK    4  A    between atoms: C_4  and  C_5
REMARK    5  A    between atoms: C_5  and  C_6
REMARK    6  A    between atoms: C_6  and  C_7
REMARK    7  A    between atoms: C_7  and  O_8
REMARK    8  A    between atoms: O_8  and  C_9
REMARK    9  A    between atoms: N_11  and  C_12
REMARK   10  A    between atoms: C_16  and  C_17
REMARK   11  A    between atoms: C_17  and  N_18
REMARK                            x       y       z     vdW  Elec       q    Type
REMARK                         _______ _______ _______ _____ _____    ______ ____
ROOT
ATOM      1  C   UNL     1      -3.466  11.598  18.254  0.00  0.00    +0.000 A 
ATOM      2  C   UNL     1      -3.575  10.542  17.344  0.00  0.00    +0.000 A 
ATOM      3  C   UNL     1      -2.462   9.788  16.980  0.00  0.00    +0.000 A 
ATOM      4  C   UNL     1      -1.216  10.088  17.540  0.00  0.00    +0.000 A 
ATOM      5  C   UNL     1      -1.083  11.140  18.454  0.00  0.00    +0.000 A 
ATOM      6  C   UNL     1      -2.207  11.927  18.766  0.00  0.00    +0.000 A 
ENDROOT
BRANCH   1   9
ATOM      7  C   UNL     1      -5.809  11.845  19.012  0.00  0.00    +0.000 C 
ATOM      8  O   UNL     1      -6.141  10.680  19.140  0.00  0.00    +0.000 OA
ATOM      9  N   UNL     1      -4.581  12.345  18.677  0.00  0.00    +0.000 N 
ATOM     10  H   UNL     1      -4.499  13.349  18.729  0.00  0.00    +0.000 HD
BRANCH   7  11
ATOM     11  O   UNL     1      -6.682  12.883  19.122  0.00  0.00    +0.000 OA
BRANCH  11  12
ATOM     12  C   UNL     1      -6.316  13.805  20.159  0.00  0.00    +0.000 C 
BRANCH  12  13
ATOM     13  C   UNL     1      -6.551  13.266  21.563  0.00  0.00    +0.000 C 
BRANCH  13  14
ATOM     14  C   UNL     1      -5.266  13.045  22.366  0.00  0.00    +0.000 C 
BRANCH  14  15
ATOM     15  C   UNL     1      -5.049  14.061  23.502  0.00  0.00    +0.000 C 
BRANCH  15  17
ATOM     16  C   UNL     1      -5.726  16.289  24.201  0.00  0.00    +0.000 C 
ATOM     17  N   UNL     1      -5.246  15.464  23.090  0.00  0.00    +0.000 NA
ATOM     18  C   UNL     1      -3.994  16.025  22.572  0.00  0.00    +0.000 C 
ENDBRANCH  15  17
ENDBRANCH  14  15
ENDBRANCH  13  14
ENDBRANCH  12  13
ENDBRANCH  11  12
ENDBRANCH   7  11
ENDBRANCH   1   9
BRANCH   5  19
ATOM     19  C   UNL     1       0.269  11.423  19.073  0.00  0.00    +0.000 C 
BRANCH  19  20
ATOM     20  N   UNL     1       0.627  10.420  20.066  0.00  0.00    +0.000 N 
ATOM     21  N   UNL     1       1.339   9.328  19.615  0.00  0.00    +0.000 NA
ATOM     22  C   UNL     1       1.392   8.252  20.341  0.00  0.00    +0.000 A 
ATOM     23  N   UNL     1       2.037   7.106  19.774  0.00  0.00    +0.000 N 
ATOM     24  C   UNL     1       2.809   7.283  18.627  0.00  0.00    +0.000 A 
ATOM     25  C   UNL     1       2.378   6.295  17.777  0.00  0.00    +0.000 A 
ATOM     26  C   UNL     1       2.473   5.205  18.675  0.00  0.00    +0.000 A 
ATOM     27  C   UNL     1       2.828   3.859  18.466  0.00  0.00    +0.000 A 
ATOM     28  C   UNL     1       2.865   3.006  19.555  0.00  0.00    +0.000 A 
ATOM     29  F   UNL     1       3.263   1.744  19.391  0.00  0.00    +0.000 F 
ATOM     30  C   UNL     1       2.479   3.458  20.825  0.00  0.00    +0.000 A 
ATOM     31  C   UNL     1       2.103   4.800  21.056  0.00  0.00    +0.000 A 
ATOM     32  C   UNL     1       2.172   5.715  19.981  0.00  0.00    +0.000 A 
ATOM     33  C   UNL     1       0.737   8.130  21.672  0.00  0.00    +0.000 A 
ATOM     34  C   UNL     1       0.141   9.239  22.129  0.00  0.00    +0.000 A 
ATOM     35  C   UNL     1       0.050  10.494  21.321  0.00  0.00    +0.000 A 
ATOM     36  O   UNL     1      -0.557  11.446  21.795  0.00  0.00    +0.000 OA
ENDBRANCH  19  20
ENDBRANCH   5  19
TORSDOF 9
ENDMDL
MODEL 8
REMARK VINA RESULT:      -7.9      1.648      2.413
REMARK  Name = 
REMARK  11 active torsions:
REMARK  status: ('A' for Active; 'I' for Inactive)
REMARK    1  A    between atoms: C_1  and  N_2
REMARK    2  A    between atoms: N_2  and  C_3
REMARK    3  A    between atoms: N_2  and  C_4
REMARK    4  A    between atoms: C_4  and  C_5
REMARK    5  A    between atoms: C_5  and  C_6
REMARK    6  A    between atoms: C_6  and  C_7
REMARK    7  A    between atoms: C_7  and  O_8
REMARK    8  A    between atoms: O_8  and  C_9
REMARK    9  A    between atoms: N_11  and  C_12
REMARK   10  A    between atoms: C_16  and  C_17
REMARK   11  A    between atoms: C_17  and  N_18
REMARK                            x       y       z     vdW  Elec       q    Type
REMARK                         _______ _______ _______ _____ _____    ______ ____
ROOT
ATOM      1  C   UNL     1       7.419   7.635  17.835  0.00  0.00    +0.000 A 
ATOM      2  C   UNL     1       8.226   6.775  18.585  0.00  0.00    +0.000 A 
ATOM      3  C   UNL     1       7.804   5.485  18.899  0.00  0.00    +0.000 A 
ATOM      4  C   UNL     1       6.558   5.041  18.449  0.00  0.00    +0.000 A 
ATOM      5  C   UNL     1       5.734   5.884  17.693  0.00  0.00    +0.000 A 
ATOM      6  C   UNL     1       6.151   7.203  17.435  0.00  0.00    +0.000 A 
ENDROOT
BRANCH   1   9
ATOM      7  C   UNL     1       8.573   9.790  18.226  0.00  0.00    +0.000 C 
ATOM      8  O   UNL     1       9.113   9.578  19.297  0.00  0.00    +0.000 OA
ATOM      9  N   UNL     1       7.838   8.925  17.462  0.00  0.00    +0.000 N 
ATOM     10  H   UNL     1       7.569   9.279  16.556  0.00  0.00    +0.000 HD
BRANCH   7  11
ATOM     11  O   UNL     1       8.561  11.012  17.628  0.00  0.00    +0.000 OA
BRANCH  11  12
ATOM     12  C   UNL     1       9.426  11.954  18.279  0.00  0.00    +0.000 C 
BRANCH  12  13
ATOM     13  C   UNL     1       9.109  13.404  17.942  0.00  0.00    +0.000 C 
BRANCH  13  14
ATOM     14  C   UNL     1      10.348  14.274  17.717  0.00  0.00    +0.000 C 
BRANCH  14  15
ATOM     15  C   UNL     1      10.051  15.780  17.604  0.00  0.00    +0.000 C 
BRANCH  15  17
ATOM     16  C   UNL     1      11.824  15.816  19.266  0.00  0.00    +0.000 C 
ATOM     17  N   UNL     1      10.938  16.625  18.425  0.00  0.00    +0.000 NA
ATOM     18  C   UNL     1      11.744  17.501  17.570  0.00  0.00    +0.000 C 
ENDBRANCH  15  17
ENDBRANCH  14  15
ENDBRANCH  13  14
ENDBRANCH  12  13
ENDBRANCH  11  12
ENDBRANCH   7  11
ENDBRANCH   1   9
BRANCH   5  19
ATOM     19  C   UNL     1       4.404   5.368  17.187  0.00  0.00    +0.000 C 
BRANCH  19  20
ATOM     20  N   UNL     1       3.334   5.606  18.147  0.00  0.00    +0.000 N 
ATOM     21  N   UNL     1       2.724   6.843  18.100  0.00  0.00    +0.000 NA
ATOM     22  C   UNL     1       2.025   7.252  19.115  0.00  0.00    +0.000 A 
ATOM     23  N   UNL     1       1.516   8.589  19.068  0.00  0.00    +0.000 N 
ATOM     24  C   UNL     1       1.546   9.265  17.849  0.00  0.00    +0.000 A 
ATOM     25  C   UNL     1       2.098  10.484  18.154  0.00  0.00    +0.000 A 
ATOM     26  C   UNL     1       1.270  10.807  19.256  0.00  0.00    +0.000 A 
ATOM     27  C   UNL     1       0.756  12.039  19.700  0.00  0.00    +0.000 A 
ATOM     28  C   UNL     1      -0.067  12.053  20.812  0.00  0.00    +0.000 A 
ATOM     29  F   UNL     1      -0.619  13.200  21.211  0.00  0.00    +0.000 F 
ATOM     30  C   UNL     1      -0.316  10.872  21.526  0.00  0.00    +0.000 A 
ATOM     31  C   UNL     1       0.203   9.625  21.109  0.00  0.00    +0.000 A 
ATOM     32  C   UNL     1       0.948   9.572  19.909  0.00  0.00    +0.000 A 
ATOM     33  C   UNL     1       1.817   6.440  20.346  0.00  0.00    +0.000 A 
ATOM     34  C   UNL     1       2.335   5.206  20.320  0.00  0.00    +0.000 A 
ATOM     35  C   UNL     1       3.153   4.700  19.175  0.00  0.00    +0.000 A 
ATOM     36  O   UNL     1       3.631   3.575  19.257  0.00  0.00    +0.000 OA
ENDBRANCH  19  20
ENDBRANCH   5  19
TORSDOF 9
ENDMDL
MODEL 9
REMARK VINA RESULT:      -7.8      6.029     10.515
REMARK  Name = 
REMARK  11 active torsions:
REMARK  status: ('A' for Active; 'I' for Inactive)
REMARK    1  A    between atoms: C_1  and  N_2
REMARK    2  A    between atoms: N_2  and  C_3
REMARK    3  A    between atoms: N_2  and  C_4
REMARK    4  A    between atoms: C_4  and  C_5
REMARK    5  A    between atoms: C_5  and  C_6
REMARK    6  A    between atoms: C_6  and  C_7
REMARK    7  A    between atoms: C_7  and  O_8
REMARK    8  A    between atoms: O_8  and  C_9
REMARK    9  A    between atoms: N_11  and  C_12
REMARK   10  A    between atoms: C_16  and  C_17
REMARK   11  A    between atoms: C_17  and  N_18
REMARK                            x       y       z     vdW  Elec       q    Type
REMARK                         _______ _______ _______ _____ _____    ______ ____
ROOT
ATOM      1  C   UNL     1      -4.081  11.040  18.078  0.00  0.00    +0.000 A 
ATOM      2  C   UNL     1      -3.744  10.234  16.986  0.00  0.00    +0.000 A 
ATOM      3  C   UNL     1      -2.413   9.957  16.681  0.00  0.00    +0.000 A 
ATOM      4  C   UNL     1      -1.399  10.489  17.484  0.00  0.00    +0.000 A 
ATOM      5  C   UNL     1      -1.714  11.296  18.583  0.00  0.00    +0.000 A 
ATOM      6  C   UNL     1      -3.060  11.612  18.842  0.00  0.00    +0.000 A 
ENDROOT
BRANCH   1   9
ATOM      7  C   UNL     1      -6.227  12.263  17.910  0.00  0.00    +0.000 C 
ATOM      8  O   UNL     1      -6.012  12.988  16.955  0.00  0.00    +0.000 OA
ATOM      9  N   UNL     1      -5.417  11.296  18.439  0.00  0.00    +0.000 N 
ATOM     10  H   UNL     1      -5.836  10.740  19.169  0.00  0.00    +0.000 HD
BRANCH   7  11
ATOM     11  O   UNL     1      -7.343  12.360  18.681  0.00  0.00    +0.000 OA
BRANCH  11  12
ATOM     12  C   UNL     1      -7.359  13.549  19.484  0.00  0.00    +0.000 C 
BRANCH  12  13
ATOM     13  C   UNL     1      -5.997  13.910  20.062  0.00  0.00    +0.000 C 
BRANCH  13  14
ATOM     14  C   UNL     1      -5.955  13.915  21.592  0.00  0.00    +0.000 C 
BRANCH  14  15
ATOM     15  C   UNL     1      -4.809  13.082  22.194  0.00  0.00    +0.000 C 
BRANCH  15  17
ATOM     16  C   UNL     1      -4.184  12.439  24.454  0.00  0.00    +0.000 C 
ATOM     17  N   UNL     1      -4.365  13.553  23.519  0.00  0.00    +0.000 NA
ATOM     18  C   UNL     1      -3.107  14.298  23.402  0.00  0.00    +0.000 C 
ENDBRANCH  15  17
ENDBRANCH  14  15
ENDBRANCH  13  14
ENDBRANCH  12  13
ENDBRANCH  11  12
ENDBRANCH   7  11
ENDBRANCH   1   9
BRANCH   5  19
ATOM     19  C   UNL     1      -0.600  11.831  19.457  0.00  0.00    +0.000 C 
BRANCH  19  20
ATOM     20  N   UNL     1      -0.057  10.798  20.329  0.00  0.00    +0.000 N 
ATOM     21  N   UNL     1       0.810   9.893  19.752  0.00  0.00    +0.000 NA
ATOM     22  C   UNL     1       1.056   8.769  20.353  0.00  0.00    +0.000 A 
ATOM     23  N   UNL     1       1.863   7.812  19.656  0.00  0.00    +0.000 N 
ATOM     24  C   UNL     1       2.564   8.237  18.528  0.00  0.00    +0.000 A 
ATOM     25  C   UNL     1       2.276   7.290  17.578  0.00  0.00    +0.000 A 
ATOM     26  C   UNL     1       2.571   6.139  18.346  0.00  0.00    +0.000 A 
ATOM     27  C   UNL     1       3.133   4.901  17.986  0.00  0.00    +0.000 A 
ATOM     28  C   UNL     1       3.338   3.952  18.972  0.00  0.00    +0.000 A 
ATOM     29  F   UNL     1       3.930   2.797  18.664  0.00  0.00    +0.000 F 
ATOM     30  C   UNL     1       2.918   4.193  20.288  0.00  0.00    +0.000 A 
ATOM     31  C   UNL     1       2.336   5.423  20.671  0.00  0.00    +0.000 A 
ATOM     32  C   UNL     1       2.227   6.448  19.704  0.00  0.00    +0.000 A 
ATOM     33  C   UNL     1       0.466   8.396  21.668  0.00  0.00    +0.000 A 
ATOM     34  C   UNL     1      -0.289   9.336  22.251  0.00  0.00    +0.000 A 
ATOM     35  C   UNL     1      -0.604  10.640  21.589  0.00  0.00    +0.000 A 
ATOM     36  O   UNL     1      -1.344  11.422  22.173  0.00  0.00    +0.000 OA
ENDBRANCH  19  20
ENDBRANCH   5  19
TORSDOF 9
ENDMDL
