MODEL 1
REMARK VINA RESULT:      -8.3      0.000      0.000
REMARK  Name = 
REMARK  7 active torsions:
REMARK  status: ('A' for Active; 'I' for Inactive)
REMARK    1  A    between atoms: C_1  and  O_2
REMARK    2  A    between atoms: O_2  and  C_3
REMARK    3  A    between atoms: N_7  and  C_8
REMARK    4  A    between atoms: C_23  and  O_24
REMARK    5  A    between atoms: O_24  and  C_25
REMARK    6  A    between atoms: C_25  and  C_26
REMARK    7  A    between atoms: N_29  and  C_30
REMARK                            x       y       z     vdW  Elec       q    Type
REMARK                         _______ _______ _______ _____ _____    ______ ____
ROOT
ATOM      1  C   UNL     1       0.987   9.964  21.674  0.00  0.00    +0.000 A 
ATOM      2  C   UNL     1       1.358   8.668  21.267  0.00  0.00    +0.000 A 
ATOM      3  C   UNL     1       1.665   8.361  19.911  0.00  0.00    +0.000 A 
ATOM      4  C   UNL     1       2.063   7.121  19.388  0.00  0.00    +0.000 A 
ATOM      5  N   UNL     1       2.169   5.998  20.246  0.00  0.00    +0.000 N 
ATOM      6  N   UNL     1       2.363   6.955  18.074  0.00  0.00    +0.000 NA
ATOM      7  C   UNL     1       2.303   8.028  17.298  0.00  0.00    +0.000 A 
ATOM      8  N   UNL     1       1.918   9.237  17.675  0.00  0.00    +0.000 NA
ATOM      9  C   UNL     1       1.609   9.378  18.967  0.00  0.00    +0.000 A 
ATOM     10  C   UNL     1       1.215  10.629  19.371  0.00  0.00    +0.000 A 
ATOM     11  C   UNL     1       0.890  10.964  20.698  0.00  0.00    +0.000 A 
ATOM     12  H   UNL     1       1.245   5.770  20.611  0.00  0.00    +0.000 HD
ENDROOT
BRANCH   5  13
ATOM     13  C   UNL     1       2.874   4.833  19.862  0.00  0.00    +0.000 A 
ATOM     14  C   UNL     1       2.290   3.546  19.833  0.00  0.00    +0.000 A 
ATOM     15 CL   UNL     1       0.584   3.301  20.032  0.00  0.00    +0.000 Cl
ATOM     16  C   UNL     1       3.066   2.400  19.575  0.00  0.00    +0.000 A 
ATOM     17  C   UNL     1       4.429   2.512  19.301  0.00  0.00    +0.000 A 
ATOM     18  C   UNL     1       4.971   3.778  19.267  0.00  0.00    +0.000 A 
ATOM     19  C   UNL     1       4.223   4.903  19.536  0.00  0.00    +0.000 A 
ATOM     20  O   UNL     1       4.971   6.043  19.457  0.00  0.00    +0.000 OA
ATOM     21  C   UNL     1       6.239   5.507  19.017  0.00  0.00    +0.000 C 
ATOM     22  O   UNL     1       6.269   4.067  18.981  0.00  0.00    +0.000 OA
ENDBRANCH   5  13
BRANCH   1  24
ATOM     23  C   UNL     1      -0.566   9.590  23.485  0.00  0.00    +0.000 C 
ATOM     24  O   UNL     1       0.694  10.037  23.005  0.00  0.00    +0.000 OA
ENDBRANCH   1  24
BRANCH  11  25
ATOM     25  O   UNL     1       0.469  12.240  21.031  0.00  0.00    +0.000 OA
BRANCH  25  26
ATOM     26  C   UNL     1      -0.790  12.573  20.445  0.00  0.00    +0.000 C 
BRANCH  26  27
ATOM     27  C   UNL     1      -2.005  12.271  21.301  0.00  0.00    +0.000 C 
ATOM     28  C   UNL     1      -3.207  12.941  20.615  0.00  0.00    +0.000 C 
ATOM     29  C   UNL     1      -4.478  12.796  21.434  0.00  0.00    +0.000 C 
ATOM     30  N   UNL     1      -4.287  13.308  22.795  0.00  0.00    +0.000 NA
ATOM     31  C   UNL     1      -5.526  13.153  23.556  0.00  0.00    +0.000 C 
ATOM     32  C   UNL     1      -3.177  12.634  23.484  0.00  0.00    +0.000 C 
ATOM     33  C   UNL     1      -1.863  12.812  22.723  0.00  0.00    +0.000 C 
ENDBRANCH  26  27
ENDBRANCH  25  26
ENDBRANCH  11  25
TORSDOF 5
ENDMDL
MODEL 2
REMARK VINA RESULT:      -8.3      1.190      1.550
REMARK  Name = 
REMARK  7 active torsions:
REMARK  status: ('A' for Active; 'I' for Inactive)
REMARK    1  A    between atoms: C_1  and  O_2
REMARK    2  A    between atoms: O_2  and  C_3
REMARK    3  A    between atoms: N_7  and  C_8
REMARK    4  A    between atoms: C_23  and  O_24
REMARK    5  A    between atoms: O_24  and  C_25
REMARK    6  A    between atoms: C_25  and  C_26
REMARK    7  A    between atoms: N_29  and  C_30
REMARK                            x       y       z     vdW  Elec       q    Type
REMARK                         _______ _______ _______ _____ _____    ______ ____
ROOT
ATOM      1  C   UNL     1       0.900   9.930  21.662  0.00  0.00    +0.000 A 
ATOM      2  C   UNL     1       1.284   8.637  21.257  0.00  0.00    +0.000 A 
ATOM      3  C   UNL     1       1.632   8.340  19.909  0.00  0.00    +0.000 A 
ATOM      4  C   UNL     1       2.046   7.104  19.388  0.00  0.00    +0.000 A 
ATOM      5  N   UNL     1       2.126   5.974  20.240  0.00  0.00    +0.000 N 
ATOM      6  N   UNL     1       2.387   6.948  18.083  0.00  0.00    +0.000 NA
ATOM      7  C   UNL     1       2.351   8.027  17.314  0.00  0.00    +0.000 A 
ATOM      8  N   UNL     1       1.955   9.233  17.689  0.00  0.00    +0.000 NA
ATOM      9  C   UNL     1       1.606   9.364  18.971  0.00  0.00    +0.000 A 
ATOM     10  C   UNL     1       1.199  10.612  19.373  0.00  0.00    +0.000 A 
ATOM     11  C   UNL     1       0.834  10.937  20.692  0.00  0.00    +0.000 A 
ATOM     12  H   UNL     1       1.191   5.744  20.575  0.00  0.00    +0.000 HD
ENDROOT
BRANCH   5  13
ATOM     13  C   UNL     1       2.843   4.812  19.869  0.00  0.00    +0.000 A 
ATOM     14  C   UNL     1       2.269   3.520  19.848  0.00  0.00    +0.000 A 
ATOM     15 CL   UNL     1       0.564   3.263  20.041  0.00  0.00    +0.000 Cl
ATOM     16  C   UNL     1       3.055   2.378  19.603  0.00  0.00    +0.000 A 
ATOM     17  C   UNL     1       4.419   2.499  19.335  0.00  0.00    +0.000 A 
ATOM     18  C   UNL     1       4.951   3.770  19.293  0.00  0.00    +0.000 A 
ATOM     19  C   UNL     1       4.192   4.890  19.550  0.00  0.00    +0.000 A 
ATOM     20  O   UNL     1       4.931   6.036  19.464  0.00  0.00    +0.000 OA
ATOM     21  C   UNL     1       6.205   5.507  19.034  0.00  0.00    +0.000 C 
ATOM     22  O   UNL     1       6.248   4.067  19.011  0.00  0.00    +0.000 OA
ENDBRANCH   5  13
BRANCH   1  24
ATOM     23  C   UNL     1      -0.798  10.023  23.376  0.00  0.00    +0.000 C 
ATOM     24  O   UNL     1       0.567   9.992  22.984  0.00  0.00    +0.000 OA
ENDBRANCH   1  24
BRANCH  11  25
ATOM     25  O   UNL     1       0.403  12.210  21.022  0.00  0.00    +0.000 OA
BRANCH  25  26
ATOM     26  C   UNL     1      -0.478  12.763  20.044  0.00  0.00    +0.000 C 
BRANCH  26  27
ATOM     27  C   UNL     1      -1.883  12.191  20.038  0.00  0.00    +0.000 C 
ATOM     28  C   UNL     1      -2.221  11.859  18.576  0.00  0.00    +0.000 C 
ATOM     29  C   UNL     1      -3.650  11.368  18.423  0.00  0.00    +0.000 C 
ATOM     30  N   UNL     1      -4.600  12.335  18.983  0.00  0.00    +0.000 NA
ATOM     31  C   UNL     1      -5.964  11.833  18.821  0.00  0.00    +0.000 C 
ATOM     32  C   UNL     1      -4.324  12.618  20.400  0.00  0.00    +0.000 C 
ATOM     33  C   UNL     1      -2.914  13.176  20.589  0.00  0.00    +0.000 C 
ENDBRANCH  26  27
ENDBRANCH  25  26
ENDBRANCH  11  25
TORSDOF 5
ENDMDL
MODEL 3
REMARK VINA RESULT:      -8.0      3.774     10.460
REMARK  Name = 
REMARK  7 active torsions:
REMARK  status: ('A' for Active; 'I' for Inactive)
REMARK    1  A    between atoms: C_1  and  O_2
REMARK    2  A    between atoms: O_2  and  C_3
REMARK    3  A    between atoms: N_7  and  C_8
REMARK    4  A    between atoms: C_23  and  O_24
REMARK    5  A    between atoms: O_24  and  C_25
REMARK    6  A    between atoms: C_25  and  C_26
REMARK    7  A    between atoms: N_29  and  C_30
REMARK                            x       y       z     vdW  Elec       q    Type
REMARK                         _______ _______ _______ _____ _____    ______ ____
ROOT
ATOM      1  C   UNL     1      -1.405  10.837  18.056  0.00  0.00    +0.000 A 
ATOM      2  C   UNL     1      -2.243  11.515  18.962  0.00  0.00    +0.000 A 
ATOM      3  C   UNL     1      -1.891  11.688  20.331  0.00  0.00    +0.000 A 
ATOM      4  C   UNL     1      -2.627  12.356  21.322  0.00  0.00    +0.000 A 
ATOM      5  N   UNL     1      -3.884  12.927  20.999  0.00  0.00    +0.000 N 
ATOM      6  N   UNL     1      -2.172  12.487  22.595  0.00  0.00    +0.000 NA
ATOM      7  C   UNL     1      -0.974  11.988  22.864  0.00  0.00    +0.000 A 
ATOM      8  N   UNL     1      -0.205  11.319  22.019  0.00  0.00    +0.000 NA
ATOM      9  C   UNL     1      -0.677  11.184  20.777  0.00  0.00    +0.000 A 
ATOM     10  C   UNL     1       0.115  10.498  19.891  0.00  0.00    +0.000 A 
ATOM     11  C   UNL     1      -0.207  10.296  18.537  0.00  0.00    +0.000 A 
ATOM     12  H   UNL     1      -4.531  12.182  20.742  0.00  0.00    +0.000 HD
ENDROOT
BRANCH   5  13
ATOM     13  C   UNL     1      -4.504  13.883  21.837  0.00  0.00    +0.000 A 
ATOM     14  C   UNL     1      -4.072  15.225  21.936  0.00  0.00    +0.000 A 
ATOM     15 CL   UNL     1      -2.889  15.897  20.859  0.00  0.00    +0.000 Cl
ATOM     16  C   UNL     1      -4.634  16.103  22.882  0.00  0.00    +0.000 A 
ATOM     17  C   UNL     1      -5.663  15.678  23.722  0.00  0.00    +0.000 A 
ATOM     18  C   UNL     1      -6.120  14.387  23.568  0.00  0.00    +0.000 A 
ATOM     19  C   UNL     1      -5.563  13.517  22.657  0.00  0.00    +0.000 A 
ATOM     20  O   UNL     1      -6.166  12.291  22.689  0.00  0.00    +0.000 OA
ATOM     21  C   UNL     1      -7.217  12.530  23.653  0.00  0.00    +0.000 C 
ATOM     22  O   UNL     1      -7.137  13.827  24.276  0.00  0.00    +0.000 OA
ENDBRANCH   5  13
BRANCH   1  24
ATOM     23  C   UNL     1      -3.181  10.073  16.609  0.00  0.00    +0.000 C 
ATOM     24  O   UNL     1      -1.945  10.744  16.806  0.00  0.00    +0.000 OA
ENDBRANCH   1  24
BRANCH  11  25
ATOM     25  O   UNL     1       0.624   9.565  17.704  0.00  0.00    +0.000 OA
BRANCH  25  26
ATOM     26  C   UNL     1       1.860   9.218  18.329  0.00  0.00    +0.000 C 
BRANCH  26  27
ATOM     27  C   UNL     1       2.235   7.750  18.255  0.00  0.00    +0.000 C 
ATOM     28  C   UNL     1       2.273   7.229  19.701  0.00  0.00    +0.000 C 
ATOM     29  C   UNL     1       2.738   5.785  19.770  0.00  0.00    +0.000 C 
ATOM     30  N   UNL     1       4.037   5.619  19.108  0.00  0.00    +0.000 NA
ATOM     31  C   UNL     1       4.455   4.221  19.190  0.00  0.00    +0.000 C 
ATOM     32  C   UNL     1       3.999   6.060  17.705  0.00  0.00    +0.000 C 
ATOM     33  C   UNL     1       3.597   7.531  17.597  0.00  0.00    +0.000 C 
ENDBRANCH  26  27
ENDBRANCH  25  26
ENDBRANCH  11  25
TORSDOF 5
ENDMDL
MODEL 4
REMARK VINA RESULT:      -7.9      2.402      3.303
REMARK  Name = 
REMARK  7 active torsions:
REMARK  status: ('A' for Active; 'I' for Inactive)
REMARK    1  A    between atoms: C_1  and  O_2
REMARK    2  A    between atoms: O_2  and  C_3
REMARK    3  A    between atoms: N_7  and  C_8
REMARK    4  A    between atoms: C_23  and  O_24
REMARK    5  A    between atoms: O_24  and  C_25
REMARK    6  A    between atoms: C_25  and  C_26
REMARK    7  A    between atoms: N_29  and  C_30
REMARK                            x       y       z     vdW  Elec       q    Type
REMARK                         _______ _______ _______ _____ _____    ______ ____
ROOT
ATOM      1  C   UNL     1       1.018   9.952  21.613  0.00  0.00    +0.000 A 
ATOM      2  C   UNL     1       1.394   8.653  21.223  0.00  0.00    +0.000 A 
ATOM      3  C   UNL     1       1.684   8.325  19.869  0.00  0.00    +0.000 A 
ATOM      4  C   UNL     1       2.084   7.079  19.361  0.00  0.00    +0.000 A 
ATOM      5  N   UNL     1       2.212   5.972  20.236  0.00  0.00    +0.000 N 
ATOM      6  N   UNL     1       2.367   6.893  18.045  0.00  0.00    +0.000 NA
ATOM      7  C   UNL     1       2.287   7.952  17.252  0.00  0.00    +0.000 A 
ATOM      8  N   UNL     1       1.898   9.165  17.615  0.00  0.00    +0.000 NA
ATOM      9  C   UNL     1       1.606   9.325  18.908  0.00  0.00    +0.000 A 
ATOM     10  C   UNL     1       1.208  10.579  19.297  0.00  0.00    +0.000 A 
ATOM     11  C   UNL     1       0.900  10.935  20.622  0.00  0.00    +0.000 A 
ATOM     12  H   UNL     1       1.295   5.743  20.618  0.00  0.00    +0.000 HD
ENDROOT
BRANCH   5  13
ATOM     13  C   UNL     1       2.921   4.806  19.862  0.00  0.00    +0.000 A 
ATOM     14  C   UNL     1       2.347   3.514  19.864  0.00  0.00    +0.000 A 
ATOM     15 CL   UNL     1       0.646   3.259  20.094  0.00  0.00    +0.000 Cl
ATOM     16  C   UNL     1       3.128   2.370  19.614  0.00  0.00    +0.000 A 
ATOM     17  C   UNL     1       4.486   2.488  19.318  0.00  0.00    +0.000 A 
ATOM     18  C   UNL     1       5.017   3.758  19.253  0.00  0.00    +0.000 A 
ATOM     19  C   UNL     1       4.264   4.881  19.514  0.00  0.00    +0.000 A 
ATOM     20  O   UNL     1       5.000   6.026  19.402  0.00  0.00    +0.000 OA
ATOM     21  C   UNL     1       6.266   5.493  18.952  0.00  0.00    +0.000 C 
ATOM     22  O   UNL     1       6.308   4.052  18.941  0.00  0.00    +0.000 OA
ENDBRANCH   5  13
BRANCH   1  24
ATOM     23  C   UNL     1      -0.519   9.628  23.447  0.00  0.00    +0.000 C 
ATOM     24  O   UNL     1       0.743  10.046  22.947  0.00  0.00    +0.000 OA
ENDBRANCH   1  24
BRANCH  11  25
ATOM     25  O   UNL     1       0.472  12.213  20.940  0.00  0.00    +0.000 OA
BRANCH  25  26
ATOM     26  C   UNL     1       1.492  13.195  20.752  0.00  0.00    +0.000 C 
BRANCH  26  27
ATOM     27  C   UNL     1       1.270  14.146  19.591  0.00  0.00    +0.000 C 
ATOM     28  C   UNL     1       2.497  15.071  19.535  0.00  0.00    +0.000 C 
ATOM     29  C   UNL     1       2.349  16.142  18.470  0.00  0.00    +0.000 C 
ATOM     30  N   UNL     1       1.112  16.908  18.662  0.00  0.00    +0.000 NA
ATOM     31  C   UNL     1       1.001  17.928  17.621  0.00  0.00    +0.000 C 
ATOM     32  C   UNL     1      -0.075  16.041  18.659  0.00  0.00    +0.000 C 
ATOM     33  C   UNL     1       0.005  14.986  19.762  0.00  0.00    +0.000 C 
ENDBRANCH  26  27
ENDBRANCH  25  26
ENDBRANCH  11  25
TORSDOF 5
ENDMDL
MODEL 5
REMARK VINA RESULT:      -7.9      2.463      3.692
REMARK  Name = 
REMARK  7 active torsions:
REMARK  status: ('A' for Active; 'I' for Inactive)
REMARK    1  A    between atoms: C_1  and  O_2
REMARK    2  A    between atoms: O_2  and  C_3
REMARK    3  A    between atoms: N_7  and  C_8
REMARK    4  A    between atoms: C_23  and  O_24
REMARK    5  A    between atoms: O_24  and  C_25
REMARK    6  A    between atoms: C_25  and  C_26
REMARK    7  A    between atoms: N_29  and  C_30
REMARK                            x       y       z     vdW  Elec       q    Type
REMARK                         _______ _______ _______ _____ _____    ______ ____
ROOT
ATOM      1  C   UNL     1       0.918   9.952  21.648  0.00  0.00    +0.000 A 
ATOM      2  C   UNL     1       1.291   8.655  21.249  0.00  0.00    +0.000 A 
ATOM      3  C   UNL     1       1.635   8.349  19.902  0.00  0.00    +0.000 A 
ATOM      4  C   UNL     1       2.039   7.107  19.387  0.00  0.00    +0.000 A 
ATOM      5  N   UNL     1       2.112   5.981  20.244  0.00  0.00    +0.000 N 
ATOM      6  N   UNL     1       2.377   6.942  18.082  0.00  0.00    +0.000 NA
ATOM      7  C   UNL     1       2.348   8.018  17.307  0.00  0.00    +0.000 A 
ATOM      8  N   UNL     1       1.961   9.229  17.677  0.00  0.00    +0.000 NA
ATOM      9  C   UNL     1       1.615   9.368  18.960  0.00  0.00    +0.000 A 
ATOM     10  C   UNL     1       1.219  10.621  19.356  0.00  0.00    +0.000 A 
ATOM     11  C   UNL     1       0.858  10.955  20.673  0.00  0.00    +0.000 A 
ATOM     12  H   UNL     1       1.176   5.759  20.581  0.00  0.00    +0.000 HD
ENDROOT
BRANCH   5  13
ATOM     13  C   UNL     1       2.819   4.812  19.878  0.00  0.00    +0.000 A 
ATOM     14  C   UNL     1       2.233   3.525  19.855  0.00  0.00    +0.000 A 
ATOM     15 CL   UNL     1       0.525   3.284  20.041  0.00  0.00    +0.000 Cl
ATOM     16  C   UNL     1       3.009   2.376  19.615  0.00  0.00    +0.000 A 
ATOM     17  C   UNL     1       4.375   2.483  19.353  0.00  0.00    +0.000 A 
ATOM     18  C   UNL     1       4.920   3.748  19.313  0.00  0.00    +0.000 A 
ATOM     19  C   UNL     1       4.170   4.876  19.564  0.00  0.00    +0.000 A 
ATOM     20  O   UNL     1       4.920   6.015  19.481  0.00  0.00    +0.000 OA
ATOM     21  C   UNL     1       6.192   5.474  19.058  0.00  0.00    +0.000 C 
ATOM     22  O   UNL     1       6.220   4.033  19.036  0.00  0.00    +0.000 OA
ENDBRANCH   5  13
BRANCH   1  24
ATOM     23  C   UNL     1      -0.777  10.047  23.365  0.00  0.00    +0.000 C 
ATOM     24  O   UNL     1       0.587  10.024  22.971  0.00  0.00    +0.000 OA
ENDBRANCH   1  24
BRANCH  11  25
ATOM     25  O   UNL     1       0.437  12.234  20.998  0.00  0.00    +0.000 OA
BRANCH  25  26
ATOM     26  C   UNL     1       0.612  13.159  19.925  0.00  0.00    +0.000 C 
BRANCH  26  27
ATOM     27  C   UNL     1       1.556  14.311  20.208  0.00  0.00    +0.000 C 
ATOM     28  C   UNL     1       1.540  15.214  18.964  0.00  0.00    +0.000 C 
ATOM     29  C   UNL     1       2.530  16.359  19.083  0.00  0.00    +0.000 C 
ATOM     30  N   UNL     1       3.881  15.859  19.363  0.00  0.00    +0.000 NA
ATOM     31  C   UNL     1       4.807  16.985  19.473  0.00  0.00    +0.000 C 
ATOM     32  C   UNL     1       3.922  15.042  20.584  0.00  0.00    +0.000 C 
ATOM     33  C   UNL     1       2.985  13.839  20.478  0.00  0.00    +0.000 C 
ENDBRANCH  26  27
ENDBRANCH  25  26
ENDBRANCH  11  25
TORSDOF 5
ENDMDL
MODEL 6
REMARK VINA RESULT:      -7.7      0.894      1.170
REMARK  Name = 
REMARK  7 active torsions:
REMARK  status: ('A' for Active; 'I' for Inactive)
REMARK    1  A    between atoms: C_1  and  O_2
REMARK    2  A    between atoms: O_2  and  C_3
REMARK    3  A    between atoms: N_7  and  C_8
REMARK    4  A    between atoms: C_23  and  O_24
REMARK    5  A    between atoms: O_24  and  C_25
REMARK    6  A    between atoms: C_25  and  C_26
REMARK    7  A    between atoms: N_29  and  C_30
REMARK                            x       y       z     vdW  Elec       q    Type
REMARK                         _______ _______ _______ _____ _____    ______ ____
ROOT
ATOM      1  C   UNL     1       0.975  10.112  21.592  0.00  0.00    +0.000 A 
ATOM      2  C   UNL     1       1.342   8.802  21.229  0.00  0.00    +0.000 A 
ATOM      3  C   UNL     1       1.653   8.451  19.886  0.00  0.00    +0.000 A 
ATOM      4  C   UNL     1       2.048   7.192  19.404  0.00  0.00    +0.000 A 
ATOM      5  N   UNL     1       2.146   6.097  20.298  0.00  0.00    +0.000 N 
ATOM      6  N   UNL     1       2.353   6.982  18.097  0.00  0.00    +0.000 NA
ATOM      7  C   UNL     1       2.300   8.030  17.287  0.00  0.00    +0.000 A 
ATOM      8  N   UNL     1       1.920   9.253  17.624  0.00  0.00    +0.000 NA
ATOM      9  C   UNL     1       1.606   9.436  18.909  0.00  0.00    +0.000 A 
ATOM     10  C   UNL     1       1.216  10.701  19.271  0.00  0.00    +0.000 A 
ATOM     11  C   UNL     1       0.888  11.081  20.585  0.00  0.00    +0.000 A 
ATOM     12  H   UNL     1       1.219   5.885  20.666  0.00  0.00    +0.000 HD
ENDROOT
BRANCH   5  13
ATOM     13  C   UNL     1       2.847   4.918  19.955  0.00  0.00    +0.000 A 
ATOM     14  C   UNL     1       2.262   3.631  19.981  0.00  0.00    +0.000 A 
ATOM     15 CL   UNL     1       0.556   3.396  20.202  0.00  0.00    +0.000 Cl
ATOM     16  C   UNL     1       3.034   2.475  19.762  0.00  0.00    +0.000 A 
ATOM     17  C   UNL     1       4.395   2.574  19.474  0.00  0.00    +0.000 A 
ATOM     18  C   UNL     1       4.938   3.837  19.386  0.00  0.00    +0.000 A 
ATOM     19  C   UNL     1       4.193   4.973  19.617  0.00  0.00    +0.000 A 
ATOM     20  O   UNL     1       4.941   6.109  19.487  0.00  0.00    +0.000 OA
ATOM     21  C   UNL     1       6.205   5.555  19.058  0.00  0.00    +0.000 C 
ATOM     22  O   UNL     1       6.234   4.114  19.079  0.00  0.00    +0.000 OA
ENDBRANCH   5  13
BRANCH   1  24
ATOM     23  C   UNL     1      -0.194   9.296  23.541  0.00  0.00    +0.000 C 
ATOM     24  O   UNL     1       0.678  10.229  22.919  0.00  0.00    +0.000 OA
ENDBRANCH   1  24
BRANCH  11  25
ATOM     25  O   UNL     1       0.471  12.368  20.875  0.00  0.00    +0.000 OA
BRANCH  25  26
ATOM     26  C   UNL     1      -0.841  12.645  20.383  0.00  0.00    +0.000 C 
BRANCH  26  27
ATOM     27  C   UNL     1      -1.798  13.253  21.390  0.00  0.00    +0.000 C 
ATOM     28  C   UNL     1      -1.081  14.465  22.007  0.00  0.00    +0.000 C 
ATOM     29  C   UNL     1      -1.902  15.105  23.112  0.00  0.00    +0.000 C 
ATOM     30  N   UNL     1      -2.263  14.120  24.138  0.00  0.00    +0.000 NA
ATOM     31  C   UNL     1      -3.052  14.767  25.184  0.00  0.00    +0.000 C 
ATOM     32  C   UNL     1      -3.001  12.982  23.570  0.00  0.00    +0.000 C 
ATOM     33  C   UNL     1      -2.180  12.269  22.496  0.00  0.00    +0.000 C 
ENDBRANCH  26  27
ENDBRANCH  25  26
ENDBRANCH  11  25
TORSDOF 5
ENDMDL
MODEL 7
REMARK VINA RESULT:      -7.6      2.133      2.565
REMARK  Name = 
REMARK  7 active torsions:
REMARK  status: ('A' for Active; 'I' for Inactive)
REMARK    1  A    between atoms: C_1  and  O_2
REMARK    2  A    between atoms: O_2  and  C_3
REMARK    3  A    between atoms: N_7  and  C_8
REMARK    4  A    between atoms: C_23  and  O_24
REMARK    5  A    between atoms: O_24  and  C_25
REMARK    6  A    between atoms: C_25  and  C_26
REMARK    7  A    between atoms: N_29  and  C_30
REMARK                            x       y       z     vdW  Elec       q    Type
REMARK                         _______ _______ _______ _____ _____    ______ ____
ROOT
ATOM      1  C   UNL     1       0.982  10.042  21.632  0.00  0.00    +0.000 A 
ATOM      2  C   UNL     1       1.345   8.736  21.250  0.00  0.00    +0.000 A 
ATOM      3  C   UNL     1       1.653   8.402  19.901  0.00  0.00    +0.000 A 
ATOM      4  C   UNL     1       2.043   7.149  19.402  0.00  0.00    +0.000 A 
ATOM      5  N   UNL     1       2.140   6.042  20.281  0.00  0.00    +0.000 N 
ATOM      6  N   UNL     1       2.345   6.956  18.092  0.00  0.00    +0.000 NA
ATOM      7  C   UNL     1       2.294   8.015  17.296  0.00  0.00    +0.000 A 
ATOM      8  N   UNL     1       1.917   9.234  17.650  0.00  0.00    +0.000 NA
ATOM      9  C   UNL     1       1.606   9.401  18.938  0.00  0.00    +0.000 A 
ATOM     10  C   UNL     1       1.220  10.662  19.318  0.00  0.00    +0.000 A 
ATOM     11  C   UNL     1       0.895  11.024  20.637  0.00  0.00    +0.000 A 
ATOM     12  H   UNL     1       1.214   5.827  20.648  0.00  0.00    +0.000 HD
ENDROOT
BRANCH   5  13
ATOM     13  C   UNL     1       2.838   4.865  19.921  0.00  0.00    +0.000 A 
ATOM     14  C   UNL     1       2.249   3.580  19.929  0.00  0.00    +0.000 A 
ATOM     15 CL   UNL     1       0.544   3.346  20.149  0.00  0.00    +0.000 Cl
ATOM     16  C   UNL     1       3.018   2.425  19.693  0.00  0.00    +0.000 A 
ATOM     17  C   UNL     1       4.380   2.525  19.405  0.00  0.00    +0.000 A 
ATOM     18  C   UNL     1       4.926   3.788  19.334  0.00  0.00    +0.000 A 
ATOM     19  C   UNL     1       4.184   4.922  19.582  0.00  0.00    +0.000 A 
ATOM     20  O   UNL     1       4.934   6.057  19.467  0.00  0.00    +0.000 OA
ATOM     21  C   UNL     1       6.197   5.506  19.029  0.00  0.00    +0.000 C 
ATOM     22  O   UNL     1       6.222   4.065  19.030  0.00  0.00    +0.000 OA
ENDBRANCH   5  13
BRANCH   1  24
ATOM     23  C   UNL     1      -0.445   9.468  23.494  0.00  0.00    +0.000 C 
ATOM     24  O   UNL     1       0.687  10.142  22.961  0.00  0.00    +0.000 OA
ENDBRANCH   1  24
BRANCH  11  25
ATOM     25  O   UNL     1       0.481  12.309  20.946  0.00  0.00    +0.000 OA
BRANCH  25  26
ATOM     26  C   UNL     1       1.502  13.283  20.723  0.00  0.00    +0.000 C 
BRANCH  26  27
ATOM     27  C   UNL     1       1.006  14.676  20.385  0.00  0.00    +0.000 C 
ATOM     28  C   UNL     1      -0.174  14.967  21.326  0.00  0.00    +0.000 C 
ATOM     29  C   UNL     1      -0.827  16.303  21.017  0.00  0.00    +0.000 C 
ATOM     30  N   UNL     1      -1.236  16.375  19.610  0.00  0.00    +0.000 NA
ATOM     31  C   UNL     1      -1.858  17.672  19.346  0.00  0.00    +0.000 C 
ATOM     32  C   UNL     1      -0.104  16.157  18.698  0.00  0.00    +0.000 C 
ATOM     33  C   UNL     1       0.542  14.791  18.933  0.00  0.00    +0.000 C 
ENDBRANCH  26  27
ENDBRANCH  25  26
ENDBRANCH  11  25
TORSDOF 5
ENDMDL
MODEL 8
REMARK VINA RESULT:      -7.6      2.685      9.505
REMARK  Name = 
REMARK  7 active torsions:
REMARK  status: ('A' for Active; 'I' for Inactive)
REMARK    1  A    between atoms: C_1  and  O_2
REMARK    2  A    between atoms: O_2  and  C_3
REMARK    3  A    between atoms: N_7  and  C_8
REMARK    4  A    between atoms: C_23  and  O_24
REMARK    5  A    between atoms: O_24  and  C_25
REMARK    6  A    between atoms: C_25  and  C_26
REMARK    7  A    between atoms: N_29  and  C_30
REMARK                            x       y       z     vdW  Elec       q    Type
REMARK                         _______ _______ _______ _____ _____    ______ ____
ROOT
ATOM      1  C   UNL     1       2.133   5.936  20.248  0.00  0.00    +0.000 A 
ATOM      2  C   UNL     1       1.400   7.132  20.379  0.00  0.00    +0.000 A 
ATOM      3  C   UNL     1       1.606   8.242  19.513  0.00  0.00    +0.000 A 
ATOM      4  C   UNL     1       0.931   9.473  19.531  0.00  0.00    +0.000 A 
ATOM      5  N   UNL     1      -0.066   9.714  20.509  0.00  0.00    +0.000 N 
ATOM      6  N   UNL     1       1.192  10.453  18.627  0.00  0.00    +0.000 NA
ATOM      7  C   UNL     1       2.094  10.190  17.691  0.00  0.00    +0.000 A 
ATOM      8  N   UNL     1       2.807   9.079  17.593  0.00  0.00    +0.000 NA
ATOM      9  C   UNL     1       2.550   8.134  18.501  0.00  0.00    +0.000 A 
ATOM     10  C   UNL     1       3.279   6.975  18.404  0.00  0.00    +0.000 A 
ATOM     11  C   UNL     1       3.113   5.865  19.250  0.00  0.00    +0.000 A 
ATOM     12  H   UNL     1       0.368   9.714  21.432  0.00  0.00    +0.000 HD
ENDROOT
BRANCH   5  13
ATOM     13  C   UNL     1      -0.998  10.769  20.377  0.00  0.00    +0.000 A 
ATOM     14  C   UNL     1      -1.861  10.908  19.264  0.00  0.00    +0.000 A 
ATOM     15 CL   UNL     1      -2.030   9.664  18.066  0.00  0.00    +0.000 Cl
ATOM     16  C   UNL     1      -2.676  12.045  19.113  0.00  0.00    +0.000 A 
ATOM     17  C   UNL     1      -2.681  13.049  20.081  0.00  0.00    +0.000 A 
ATOM     18  C   UNL     1      -1.886  12.869  21.192  0.00  0.00    +0.000 A 
ATOM     19  C   UNL     1      -1.073  11.767  21.339  0.00  0.00    +0.000 A 
ATOM     20  O   UNL     1      -0.368  11.807  22.509  0.00  0.00    +0.000 OA
ATOM     21  C   UNL     1      -0.906  13.006  23.111  0.00  0.00    +0.000 C 
ATOM     22  O   UNL     1      -1.802  13.728  22.243  0.00  0.00    +0.000 OA
ENDBRANCH   5  13
BRANCH   1  24
ATOM     23  C   UNL     1       1.209   3.782  20.829  0.00  0.00    +0.000 C 
ATOM     24  O   UNL     1       1.813   5.013  21.201  0.00  0.00    +0.000 OA
ENDBRANCH   1  24
BRANCH  11  25
ATOM     25  O   UNL     1       3.906   4.737  19.117  0.00  0.00    +0.000 OA
BRANCH  25  26
ATOM     26  C   UNL     1       5.288   5.055  18.949  0.00  0.00    +0.000 C 
BRANCH  26  27
ATOM     27  C   UNL     1       5.930   4.512  17.687  0.00  0.00    +0.000 C 
ATOM     28  C   UNL     1       6.583   5.706  16.973  0.00  0.00    +0.000 C 
ATOM     29  C   UNL     1       7.178   5.308  15.634  0.00  0.00    +0.000 C 
ATOM     30  N   UNL     1       6.172   4.662  14.783  0.00  0.00    +0.000 NA
ATOM     31  C   UNL     1       6.777   4.291  13.504  0.00  0.00    +0.000 C 
ATOM     32  C   UNL     1       5.581   3.483  15.431  0.00  0.00    +0.000 C 
ATOM     33  C   UNL     1       4.913   3.854  16.755  0.00  0.00    +0.000 C 
ENDBRANCH  26  27
ENDBRANCH  25  26
ENDBRANCH  11  25
TORSDOF 5
ENDMDL
MODEL 9
REMARK VINA RESULT:      -7.4      3.413     10.189
REMARK  Name = 
REMARK  7 active torsions:
REMARK  status: ('A' for Active; 'I' for Inactive)
REMARK    1  A    between atoms: C_1  and  O_2
REMARK    2  A    between atoms: O_2  and  C_3
REMARK    3  A    between atoms: N_7  and  C_8
REMARK    4  A    between atoms: C_23  and  O_24
REMARK    5  A    between atoms: O_24  and  C_25
REMARK    6  A    between atoms: C_25  and  C_26
REMARK    7  A    between atoms: N_29  and  C_30
REMARK                            x       y       z     vdW  Elec       q    Type
REMARK                         _______ _______ _______ _____ _____    ______ ____
ROOT
ATOM      1  C   UNL     1       0.917   9.365  19.349  0.00  0.00    +0.000 A 
ATOM      2  C   UNL     1       0.052  10.458  19.551  0.00  0.00    +0.000 A 
ATOM      3  C   UNL     1      -0.497  10.761  20.829  0.00  0.00    +0.000 A 
ATOM      4  C   UNL     1      -1.350  11.826  21.159  0.00  0.00    +0.000 A 
ATOM      5  N   UNL     1      -1.771  12.728  20.150  0.00  0.00    +0.000 N 
ATOM      6  N   UNL     1      -1.786  12.035  22.428  0.00  0.00    +0.000 NA
ATOM      7  C   UNL     1      -1.343  11.208  23.365  0.00  0.00    +0.000 A 
ATOM      8  N   UNL     1      -0.560  10.160  23.166  0.00  0.00    +0.000 NA
ATOM      9  C   UNL     1      -0.155   9.959  21.910  0.00  0.00    +0.000 A 
ATOM     10  C   UNL     1       0.663   8.878  21.693  0.00  0.00    +0.000 A 
ATOM     11  C   UNL     1       1.211   8.541  20.443  0.00  0.00    +0.000 A 
ATOM     12  H   UNL     1      -2.339  12.223  19.470  0.00  0.00    +0.000 HD
ENDROOT
BRANCH   5  13
ATOM     13  C   UNL     1      -2.336  13.985  20.465  0.00  0.00    +0.000 A 
ATOM     14  C   UNL     1      -1.573  15.167  20.607  0.00  0.00    +0.000 A 
ATOM     15 CL   UNL     1       0.105  15.240  20.170  0.00  0.00    +0.000 Cl
ATOM     16  C   UNL     1      -2.161  16.365  21.053  0.00  0.00    +0.000 A 
ATOM     17  C   UNL     1      -3.527  16.426  21.329  0.00  0.00    +0.000 A 
ATOM     18  C   UNL     1      -4.271  15.284  21.123  0.00  0.00    +0.000 A 
ATOM     19  C   UNL     1      -3.699  14.103  20.704  0.00  0.00    +0.000 A 
ATOM     20  O   UNL     1      -4.624  13.105  20.579  0.00  0.00    +0.000 OA
ATOM     21  C   UNL     1      -5.843  13.825  20.876  0.00  0.00    +0.000 C 
ATOM     22  O   UNL     1      -5.615  15.181  21.306  0.00  0.00    +0.000 OA
ENDBRANCH   5  13
BRANCH   1  24
ATOM     23  C   UNL     1       2.535   8.606  17.725  0.00  0.00    +0.000 C 
ATOM     24  O   UNL     1       1.297   9.225  18.046  0.00  0.00    +0.000 OA
ENDBRANCH   1  24
BRANCH  11  25
ATOM     25  O   UNL     1       2.004   7.417  20.288  0.00  0.00    +0.000 OA
BRANCH  25  26
ATOM     26  C   UNL     1       1.434   6.255  20.891  0.00  0.00    +0.000 C 
BRANCH  26  27
ATOM     27  C   UNL     1       2.175   4.958  20.631  0.00  0.00    +0.000 C 
ATOM     28  C   UNL     1       2.989   5.163  19.343  0.00  0.00    +0.000 C 
ATOM     29  C   UNL     1       3.703   3.893  18.917  0.00  0.00    +0.000 C 
ATOM     30  N   UNL     1       2.757   2.779  18.779  0.00  0.00    +0.000 NA
ATOM     31  C   UNL     1       3.476   1.573  18.370  0.00  0.00    +0.000 C 
ATOM     32  C   UNL     1       2.014   2.534  20.024  0.00  0.00    +0.000 C 
ATOM     33  C   UNL     1       1.227   3.772  20.453  0.00  0.00    +0.000 C 
ENDBRANCH  26  27
ENDBRANCH  25  26
ENDBRANCH  11  25
TORSDOF 5
ENDMDL
