MODEL 1
REMARK VINA RESULT:      -7.7      0.000      0.000
REMARK  Name = 
REMARK  11 active torsions:
REMARK  status: ('A' for Active; 'I' for Inactive)
REMARK    1  A    between atoms: C_1  and  C_2
REMARK    2  A    between atoms: C_2  and  C_3
REMARK    3  A    between atoms: C_3  and  C_4
REMARK    4  A    between atoms: C_3  and  C_7
REMARK    5  A    between atoms: C_4  and  O_6
REMARK    6  A    between atoms: C_12  and  O_13
REMARK    7  A    between atoms: O_13  and  C_14
REMARK    8  A    between atoms: C_14  and  C_15
REMARK    9  A    between atoms: C_15  and  C_16
REMARK   10  A    between atoms: C_17  and  C_18
REMARK   11  A    between atoms: C_21  and  C_22
REMARK                            x       y       z     vdW  Elec       q    Type
REMARK                         _______ _______ _______ _____ _____    ______ ____
ROOT
ATOM      1  C   UNL     1       5.086   3.734  17.012  0.00  0.00    +0.000 C 
ATOM      2  C   UNL     1       3.873   2.787  16.828  0.00  0.00    +0.000 C 
ATOM      3  C   UNL     1       2.784   3.277  17.793  0.00  0.00    +0.000 C 
ATOM      4  C   UNL     1       3.099   4.740  17.880  0.00  0.00    +0.000 A 
ATOM      5  C   UNL     1       2.275   5.766  18.333  0.00  0.00    +0.000 A 
ATOM      6  C   UNL     1       2.787   7.066  18.381  0.00  0.00    +0.000 A 
ATOM      7  C   UNL     1       4.100   7.323  17.968  0.00  0.00    +0.000 A 
ATOM      8  C   UNL     1       4.924   6.289  17.542  0.00  0.00    +0.000 A 
ATOM      9  C   UNL     1       4.410   5.000  17.475  0.00  0.00    +0.000 A 
ENDROOT
BRANCH   1  10
ATOM     10  C   UNL     1       5.989   3.873  15.756  0.00  0.00    +0.000 C 
BRANCH  10  12
ATOM     11  C   UNL     1       5.502   3.923  13.181  0.00  0.00    +0.000 C 
ATOM     12  C   UNL     1       5.206   4.490  14.562  0.00  0.00    +0.000 C 
ENDBRANCH  10  12
BRANCH  10  13
ATOM     13  C   UNL     1       7.252   4.661  16.104  0.00  0.00    +0.000 C 
ATOM     14  O   UNL     1       7.624   5.676  15.528  0.00  0.00    +0.000 OA
BRANCH  13  15
ATOM     15  O   UNL     1       7.983   4.149  17.120  0.00  0.00    +0.000 OA
ATOM     16  H   UNL     1       8.707   3.546  16.875  0.00  0.00    +0.000 HD
ENDBRANCH  13  15
ENDBRANCH  10  13
ENDBRANCH   1  10
BRANCH   6  17
ATOM     17  O   UNL     1       2.102   8.178  18.802  0.00  0.00    +0.000 OA
BRANCH  17  18
ATOM     18  C   UNL     1       1.727   9.085  17.766  0.00  0.00    +0.000 C 
BRANCH  18  19
ATOM     19  C   UNL     1       0.488   9.864  18.216  0.00  0.00    +0.000 C 
BRANCH  19  20
ATOM     20  C   UNL     1       0.724  10.595  19.492  0.00  0.00    +0.000 A 
ATOM     21  C   UNL     1       1.326  11.875  19.674  0.00  0.00    +0.000 A 
ATOM     22  C   UNL     1       1.854  12.823  18.663  0.00  0.00    +0.000 C 
ATOM     23  N   UNL     1       1.398  12.202  20.968  0.00  0.00    +0.000 NA
ATOM     24  O   UNL     1       0.836  11.150  21.656  0.00  0.00    +0.000 OA
ATOM     25  C   UNL     1       0.435  10.193  20.780  0.00  0.00    +0.000 A 
ATOM     26  C   UNL     1      -0.187   8.998  21.381  0.00  0.00    +0.000 C 
ENDBRANCH  19  20
ENDBRANCH  18  19
ENDBRANCH  17  18
ENDBRANCH   6  17
TORSDOF 8
ENDMDL
MODEL 2
REMARK VINA RESULT:      -7.5      2.723      8.249
REMARK  Name = 
REMARK  11 active torsions:
REMARK  status: ('A' for Active; 'I' for Inactive)
REMARK    1  A    between atoms: C_1  and  C_2
REMARK    2  A    between atoms: C_2  and  C_3
REMARK    3  A    between atoms: C_3  and  C_4
REMARK    4  A    between atoms: C_3  and  C_7
REMARK    5  A    between atoms: C_4  and  O_6
REMARK    6  A    between atoms: C_12  and  O_13
REMARK    7  A    between atoms: O_13  and  C_14
REMARK    8  A    between atoms: C_14  and  C_15
REMARK    9  A    between atoms: C_15  and  C_16
REMARK   10  A    between atoms: C_17  and  C_18
REMARK   11  A    between atoms: C_21  and  C_22
REMARK                            x       y       z     vdW  Elec       q    Type
REMARK                         _______ _______ _______ _____ _____    ______ ____
ROOT
ATOM      1  C   UNL     1       1.562   9.175  19.864  0.00  0.00    +0.000 C 
ATOM      2  C   UNL     1       1.455   9.689  18.407  0.00  0.00    +0.000 C 
ATOM      3  C   UNL     1       2.412   8.830  17.567  0.00  0.00    +0.000 C 
ATOM      4  C   UNL     1       2.412   7.544  18.338  0.00  0.00    +0.000 A 
ATOM      5  C   UNL     1       2.825   6.288  17.902  0.00  0.00    +0.000 A 
ATOM      6  C   UNL     1       2.791   5.221  18.805  0.00  0.00    +0.000 A 
ATOM      7  C   UNL     1       2.339   5.419  20.115  0.00  0.00    +0.000 A 
ATOM      8  C   UNL     1       1.954   6.682  20.549  0.00  0.00    +0.000 A 
ATOM      9  C   UNL     1       1.968   7.739  19.647  0.00  0.00    +0.000 A 
ENDROOT
BRANCH   1  10
ATOM     10  C   UNL     1       0.283   9.391  20.719  0.00  0.00    +0.000 C 
BRANCH  10  12
ATOM     11  C   UNL     1      -0.477   9.646  23.214  0.00  0.00    +0.000 C 
ATOM     12  C   UNL     1       0.560   9.130  22.226  0.00  0.00    +0.000 C 
ENDBRANCH  10  12
BRANCH  10  13
ATOM     13  C   UNL     1      -0.292  10.783  20.456  0.00  0.00    +0.000 C 
ATOM     14  O   UNL     1      -1.383  11.005  19.945  0.00  0.00    +0.000 OA
BRANCH  13  15
ATOM     15  O   UNL     1       0.509  11.810  20.819  0.00  0.00    +0.000 OA
ATOM     16  H   UNL     1       0.609  12.533  20.176  0.00  0.00    +0.000 HD
ENDBRANCH  13  15
ENDBRANCH  10  13
ENDBRANCH   1  10
BRANCH   6  17
ATOM     17  O   UNL     1       3.164   3.930  18.527  0.00  0.00    +0.000 OA
BRANCH  17  18
ATOM     18  C   UNL     1       4.538   3.758  18.186  0.00  0.00    +0.000 C 
BRANCH  18  19
ATOM     19  C   UNL     1       4.670   3.730  16.661  0.00  0.00    +0.000 C 
BRANCH  19  20
ATOM     20  C   UNL     1       5.817   4.554  16.188  0.00  0.00    +0.000 A 
ATOM     21  C   UNL     1       6.411   4.573  14.891  0.00  0.00    +0.000 A 
ATOM     22  C   UNL     1       6.048   3.808  13.675  0.00  0.00    +0.000 C 
ATOM     23  N   UNL     1       7.443   5.421  14.839  0.00  0.00    +0.000 NA
ATOM     24  O   UNL     1       7.538   5.980  16.094  0.00  0.00    +0.000 OA
ATOM     25  C   UNL     1       6.572   5.466  16.897  0.00  0.00    +0.000 A 
ATOM     26  C   UNL     1       6.555   5.977  18.282  0.00  0.00    +0.000 C 
ENDBRANCH  19  20
ENDBRANCH  18  19
ENDBRANCH  17  18
ENDBRANCH   6  17
TORSDOF 8
ENDMDL
MODEL 3
REMARK VINA RESULT:      -7.5      2.533      8.401
REMARK  Name = 
REMARK  11 active torsions:
REMARK  status: ('A' for Active; 'I' for Inactive)
REMARK    1  A    between atoms: C_1  and  C_2
REMARK    2  A    between atoms: C_2  and  C_3
REMARK    3  A    between atoms: C_3  and  C_4
REMARK    4  A    between atoms: C_3  and  C_7
REMARK    5  A    between atoms: C_4  and  O_6
REMARK    6  A    between atoms: C_12  and  O_13
REMARK    7  A    between atoms: O_13  and  C_14
REMARK    8  A    between atoms: C_14  and  C_15
REMARK    9  A    between atoms: C_15  and  C_16
REMARK   10  A    between atoms: C_17  and  C_18
REMARK   11  A    between atoms: C_21  and  C_22
REMARK                            x       y       z     vdW  Elec       q    Type
REMARK                         _______ _______ _______ _____ _____    ______ ____
ROOT
ATOM      1  C   UNL     1       1.160   9.666  19.962  0.00  0.00    +0.000 C 
ATOM      2  C   UNL     1       1.188  10.197  18.507  0.00  0.00    +0.000 C 
ATOM      3  C   UNL     1       2.262   9.387  17.766  0.00  0.00    +0.000 C 
ATOM      4  C   UNL     1       2.230   8.091  18.519  0.00  0.00    +0.000 A 
ATOM      5  C   UNL     1       2.734   6.857  18.117  0.00  0.00    +0.000 A 
ATOM      6  C   UNL     1       2.647   5.777  18.999  0.00  0.00    +0.000 A 
ATOM      7  C   UNL     1       2.050   5.939  20.255  0.00  0.00    +0.000 A 
ATOM      8  C   UNL     1       1.573   7.180  20.659  0.00  0.00    +0.000 A 
ATOM      9  C   UNL     1       1.642   8.250  19.775  0.00  0.00    +0.000 A 
ENDROOT
BRANCH   1  10
ATOM     10  C   UNL     1      -0.211   9.822  20.677  0.00  0.00    +0.000 C 
BRANCH  10  12
ATOM     11  C   UNL     1      -0.899  10.268  23.167  0.00  0.00    +0.000 C 
ATOM     12  C   UNL     1      -0.115   9.420  22.176  0.00  0.00    +0.000 C 
ENDBRANCH  10  12
BRANCH  10  13
ATOM     13  C   UNL     1      -0.745  11.241  20.480  0.00  0.00    +0.000 C 
ATOM     14  O   UNL     1      -0.220  12.255  20.925  0.00  0.00    +0.000 OA
BRANCH  13  15
ATOM     15  O   UNL     1      -1.892  11.326  19.769  0.00  0.00    +0.000 OA
ATOM     16  H   UNL     1      -2.049  12.160  19.292  0.00  0.00    +0.000 HD
ENDBRANCH  13  15
ENDBRANCH  10  13
ENDBRANCH   1  10
BRANCH   6  17
ATOM     17  O   UNL     1       3.096   4.505  18.750  0.00  0.00    +0.000 OA
BRANCH  17  18
ATOM     18  C   UNL     1       3.296   4.194  17.372  0.00  0.00    +0.000 C 
BRANCH  18  19
ATOM     19  C   UNL     1       4.632   3.463  17.218  0.00  0.00    +0.000 C 
BRANCH  19  20
ATOM     20  C   UNL     1       5.732   4.391  16.834  0.00  0.00    +0.000 A 
ATOM     21  C   UNL     1       6.502   5.241  17.681  0.00  0.00    +0.000 A 
ATOM     22  C   UNL     1       6.438   5.419  19.150  0.00  0.00    +0.000 C 
ATOM     23  N   UNL     1       7.388   5.957  16.979  0.00  0.00    +0.000 NA
ATOM     24  O   UNL     1       7.221   5.582  15.665  0.00  0.00    +0.000 OA
ATOM     25  C   UNL     1       6.237   4.651  15.576  0.00  0.00    +0.000 A 
ATOM     26  C   UNL     1       5.948   4.157  14.216  0.00  0.00    +0.000 C 
ENDBRANCH  19  20
ENDBRANCH  18  19
ENDBRANCH  17  18
ENDBRANCH   6  17
TORSDOF 8
ENDMDL
MODEL 4
REMARK VINA RESULT:      -7.4      2.285      3.163
REMARK  Name = 
REMARK  11 active torsions:
REMARK  status: ('A' for Active; 'I' for Inactive)
REMARK    1  A    between atoms: C_1  and  C_2
REMARK    2  A    between atoms: C_2  and  C_3
REMARK    3  A    between atoms: C_3  and  C_4
REMARK    4  A    between atoms: C_3  and  C_7
REMARK    5  A    between atoms: C_4  and  O_6
REMARK    6  A    between atoms: C_12  and  O_13
REMARK    7  A    between atoms: O_13  and  C_14
REMARK    8  A    between atoms: C_14  and  C_15
REMARK    9  A    between atoms: C_15  and  C_16
REMARK   10  A    between atoms: C_17  and  C_18
REMARK   11  A    between atoms: C_21  and  C_22
REMARK                            x       y       z     vdW  Elec       q    Type
REMARK                         _______ _______ _______ _____ _____    ______ ____
ROOT
ATOM      1  C   UNL     1       3.309   4.560  18.901  0.00  0.00    +0.000 C 
ATOM      2  C   UNL     1       2.445   4.047  20.081  0.00  0.00    +0.000 C 
ATOM      3  C   UNL     1       2.170   5.259  20.983  0.00  0.00    +0.000 C 
ATOM      4  C   UNL     1       2.216   6.384  19.993  0.00  0.00    +0.000 A 
ATOM      5  C   UNL     1       1.720   7.676  20.144  0.00  0.00    +0.000 A 
ATOM      6  C   UNL     1       1.915   8.595  19.109  0.00  0.00    +0.000 A 
ATOM      7  C   UNL     1       2.586   8.211  17.942  0.00  0.00    +0.000 A 
ATOM      8  C   UNL     1       3.101   6.927  17.810  0.00  0.00    +0.000 A 
ATOM      9  C   UNL     1       2.890   6.007  18.830  0.00  0.00    +0.000 A 
ENDROOT
BRANCH   1  10
ATOM     10  C   UNL     1       3.152   3.747  17.587  0.00  0.00    +0.000 C 
BRANCH  10  12
ATOM     11  C   UNL     1       5.705   4.287  17.342  0.00  0.00    +0.000 C 
ATOM     12  C   UNL     1       4.392   3.919  16.665  0.00  0.00    +0.000 C 
ENDBRANCH  10  12
BRANCH  10  13
ATOM     13  C   UNL     1       2.854   2.283  17.910  0.00  0.00    +0.000 C 
ATOM     14  O   UNL     1       3.688   1.463  18.273  0.00  0.00    +0.000 OA
BRANCH  13  15
ATOM     15  O   UNL     1       1.562   1.914  17.752  0.00  0.00    +0.000 OA
ATOM     16  H   UNL     1       1.348   0.985  17.943  0.00  0.00    +0.000 HD
ENDBRANCH  13  15
ENDBRANCH  10  13
ENDBRANCH   1  10
BRANCH   6  17
ATOM     17  O   UNL     1       1.488   9.898  19.110  0.00  0.00    +0.000 OA
BRANCH  17  18
ATOM     18  C   UNL     1       0.256  10.131  18.428  0.00  0.00    +0.000 C 
BRANCH  18  19
ATOM     19  C   UNL     1      -0.883  10.132  19.452  0.00  0.00    +0.000 C 
BRANCH  19  20
ATOM     20  C   UNL     1      -0.555  10.958  20.647  0.00  0.00    +0.000 A 
ATOM     21  C   UNL     1      -0.309  12.362  20.705  0.00  0.00    +0.000 A 
ATOM     22  C   UNL     1      -0.330  13.370  19.619  0.00  0.00    +0.000 C 
ATOM     23  N   UNL     1      -0.017  12.755  21.949  0.00  0.00    +0.000 NA
ATOM     24  O   UNL     1      -0.077  11.622  22.729  0.00  0.00    +0.000 OA
ATOM     25  C   UNL     1      -0.397  10.552  21.956  0.00  0.00    +0.000 A 
ATOM     26  C   UNL     1      -0.494   9.261  22.664  0.00  0.00    +0.000 C 
ENDBRANCH  19  20
ENDBRANCH  18  19
ENDBRANCH  17  18
ENDBRANCH   6  17
TORSDOF 8
ENDMDL
MODEL 5
REMARK VINA RESULT:      -7.4      1.485      1.696
REMARK  Name = 
REMARK  11 active torsions:
REMARK  status: ('A' for Active; 'I' for Inactive)
REMARK    1  A    between atoms: C_1  and  C_2
REMARK    2  A    between atoms: C_2  and  C_3
REMARK    3  A    between atoms: C_3  and  C_4
REMARK    4  A    between atoms: C_3  and  C_7
REMARK    5  A    between atoms: C_4  and  O_6
REMARK    6  A    between atoms: C_12  and  O_13
REMARK    7  A    between atoms: O_13  and  C_14
REMARK    8  A    between atoms: C_14  and  C_15
REMARK    9  A    between atoms: C_15  and  C_16
REMARK   10  A    between atoms: C_17  and  C_18
REMARK   11  A    between atoms: C_21  and  C_22
REMARK                            x       y       z     vdW  Elec       q    Type
REMARK                         _______ _______ _______ _____ _____    ______ ____
ROOT
ATOM      1  C   UNL     1       5.037   4.051  17.499  0.00  0.00    +0.000 C 
ATOM      2  C   UNL     1       3.959   2.938  17.477  0.00  0.00    +0.000 C 
ATOM      3  C   UNL     1       2.726   3.508  18.193  0.00  0.00    +0.000 C 
ATOM      4  C   UNL     1       2.873   4.975  17.918  0.00  0.00    +0.000 A 
ATOM      5  C   UNL     1       1.900   5.965  18.023  0.00  0.00    +0.000 A 
ATOM      6  C   UNL     1       2.262   7.291  17.769  0.00  0.00    +0.000 A 
ATOM      7  C   UNL     1       3.577   7.605  17.405  0.00  0.00    +0.000 A 
ATOM      8  C   UNL     1       4.548   6.614  17.328  0.00  0.00    +0.000 A 
ATOM      9  C   UNL     1       4.184   5.293  17.562  0.00  0.00    +0.000 A 
ENDROOT
BRANCH   1  10
ATOM     10  C   UNL     1       6.050   3.988  16.323  0.00  0.00    +0.000 C 
BRANCH  10  12
ATOM     11  C   UNL     1       5.924   3.876  13.707  0.00  0.00    +0.000 C 
ATOM     12  C   UNL     1       5.411   4.496  14.999  0.00  0.00    +0.000 C 
ENDBRANCH  10  12
BRANCH  10  13
ATOM     13  C   UNL     1       7.327   4.744  16.691  0.00  0.00    +0.000 C 
ATOM     14  O   UNL     1       7.648   5.837  16.240  0.00  0.00    +0.000 OA
BRANCH  13  15
ATOM     15  O   UNL     1       8.133   4.109  17.571  0.00  0.00    +0.000 OA
ATOM     16  H   UNL     1       9.090   4.243  17.462  0.00  0.00    +0.000 HD
ENDBRANCH  13  15
ENDBRANCH  10  13
ENDBRANCH   1  10
BRANCH   6  17
ATOM     17  O   UNL     1       1.422   8.373  17.830  0.00  0.00    +0.000 OA
BRANCH  17  18
ATOM     18  C   UNL     1       1.994   9.552  18.395  0.00  0.00    +0.000 C 
BRANCH  18  19
ATOM     19  C   UNL     1       1.018  10.132  19.422  0.00  0.00    +0.000 C 
BRANCH  19  20
ATOM     20  C   UNL     1       0.194  11.231  18.846  0.00  0.00    +0.000 A 
ATOM     21  C   UNL     1       0.502  12.622  18.782  0.00  0.00    +0.000 A 
ATOM     22  C   UNL     1       1.711  13.343  19.244  0.00  0.00    +0.000 C 
ATOM     23  N   UNL     1      -0.491  13.317  18.218  0.00  0.00    +0.000 NA
ATOM     24  O   UNL     1      -1.461  12.396  17.892  0.00  0.00    +0.000 OA
ATOM     25  C   UNL     1      -1.056  11.155  18.265  0.00  0.00    +0.000 A 
ATOM     26  C   UNL     1      -2.004  10.061  17.977  0.00  0.00    +0.000 C 
ENDBRANCH  19  20
ENDBRANCH  18  19
ENDBRANCH  17  18
ENDBRANCH   6  17
TORSDOF 8
ENDMDL
MODEL 6
REMARK VINA RESULT:      -7.4      1.503      1.981
REMARK  Name = 
REMARK  11 active torsions:
REMARK  status: ('A' for Active; 'I' for Inactive)
REMARK    1  A    between atoms: C_1  and  C_2
REMARK    2  A    between atoms: C_2  and  C_3
REMARK    3  A    between atoms: C_3  and  C_4
REMARK    4  A    between atoms: C_3  and  C_7
REMARK    5  A    between atoms: C_4  and  O_6
REMARK    6  A    between atoms: C_12  and  O_13
REMARK    7  A    between atoms: O_13  and  C_14
REMARK    8  A    between atoms: C_14  and  C_15
REMARK    9  A    between atoms: C_15  and  C_16
REMARK   10  A    between atoms: C_17  and  C_18
REMARK   11  A    between atoms: C_21  and  C_22
REMARK                            x       y       z     vdW  Elec       q    Type
REMARK                         _______ _______ _______ _____ _____    ______ ____
ROOT
ATOM      1  C   UNL     1       4.912   4.031  17.476  0.00  0.00    +0.000 C 
ATOM      2  C   UNL     1       3.784   2.979  17.323  0.00  0.00    +0.000 C 
ATOM      3  C   UNL     1       2.548   3.556  18.028  0.00  0.00    +0.000 C 
ATOM      4  C   UNL     1       2.778   5.030  17.873  0.00  0.00    +0.000 A 
ATOM      5  C   UNL     1       1.849   6.058  18.012  0.00  0.00    +0.000 A 
ATOM      6  C   UNL     1       2.286   7.379  17.876  0.00  0.00    +0.000 A 
ATOM      7  C   UNL     1       3.630   7.652  17.592  0.00  0.00    +0.000 A 
ATOM      8  C   UNL     1       4.555   6.621  17.481  0.00  0.00    +0.000 A 
ATOM      9  C   UNL     1       4.118   5.307  17.597  0.00  0.00    +0.000 A 
ENDROOT
BRANCH   1  10
ATOM     10  C   UNL     1       5.974   4.003  16.342  0.00  0.00    +0.000 C 
BRANCH  10  12
ATOM     11  C   UNL     1       5.941   3.906  13.723  0.00  0.00    +0.000 C 
ATOM     12  C   UNL     1       5.381   4.516  15.000  0.00  0.00    +0.000 C 
ENDBRANCH  10  12
BRANCH  10  13
ATOM     13  C   UNL     1       7.219   4.780  16.773  0.00  0.00    +0.000 C 
ATOM     14  O   UNL     1       7.646   5.783  16.215  0.00  0.00    +0.000 OA
BRANCH  13  15
ATOM     15  O   UNL     1       7.868   4.269  17.844  0.00  0.00    +0.000 OA
ATOM     16  H   UNL     1       7.553   3.410  18.176  0.00  0.00    +0.000 HD
ENDBRANCH  13  15
ENDBRANCH  10  13
ENDBRANCH   1  10
BRANCH   6  17
ATOM     17  O   UNL     1       1.496   8.495  17.984  0.00  0.00    +0.000 OA
BRANCH  17  18
ATOM     18  C   UNL     1       1.682   9.253  19.179  0.00  0.00    +0.000 C 
BRANCH  18  19
ATOM     19  C   UNL     1       0.311   9.564  19.785  0.00  0.00    +0.000 C 
BRANCH  19  20
ATOM     20  C   UNL     1      -0.268  10.822  19.235  0.00  0.00    +0.000 A 
ATOM     21  C   UNL     1      -1.207  10.967  18.171  0.00  0.00    +0.000 A 
ATOM     22  C   UNL     1      -1.869   9.927  17.348  0.00  0.00    +0.000 C 
ATOM     23  N   UNL     1      -1.478  12.253  17.932  0.00  0.00    +0.000 NA
ATOM     24  O   UNL     1      -0.733  12.973  18.838  0.00  0.00    +0.000 OA
ATOM     25  C   UNL     1      -0.012  12.124  19.614  0.00  0.00    +0.000 A 
ATOM     26  C   UNL     1       0.841  12.762  20.636  0.00  0.00    +0.000 C 
ENDBRANCH  19  20
ENDBRANCH  18  19
ENDBRANCH  17  18
ENDBRANCH   6  17
TORSDOF 8
ENDMDL
MODEL 7
REMARK VINA RESULT:      -7.3      1.106      1.932
REMARK  Name = 
REMARK  11 active torsions:
REMARK  status: ('A' for Active; 'I' for Inactive)
REMARK    1  A    between atoms: C_1  and  C_2
REMARK    2  A    between atoms: C_2  and  C_3
REMARK    3  A    between atoms: C_3  and  C_4
REMARK    4  A    between atoms: C_3  and  C_7
REMARK    5  A    between atoms: C_4  and  O_6
REMARK    6  A    between atoms: C_12  and  O_13
REMARK    7  A    between atoms: O_13  and  C_14
REMARK    8  A    between atoms: C_14  and  C_15
REMARK    9  A    between atoms: C_15  and  C_16
REMARK   10  A    between atoms: C_17  and  C_18
REMARK   11  A    between atoms: C_21  and  C_22
REMARK                            x       y       z     vdW  Elec       q    Type
REMARK                         _______ _______ _______ _____ _____    ______ ____
ROOT
ATOM      1  C   UNL     1       4.908   4.111  17.572  0.00  0.00    +0.000 C 
ATOM      2  C   UNL     1       3.765   3.071  17.448  0.00  0.00    +0.000 C 
ATOM      3  C   UNL     1       2.536   3.687  18.131  0.00  0.00    +0.000 C 
ATOM      4  C   UNL     1       2.787   5.152  17.932  0.00  0.00    +0.000 A 
ATOM      5  C   UNL     1       1.873   6.197  18.036  0.00  0.00    +0.000 A 
ATOM      6  C   UNL     1       2.329   7.507  17.861  0.00  0.00    +0.000 A 
ATOM      7  C   UNL     1       3.677   7.751  17.574  0.00  0.00    +0.000 A 
ATOM      8  C   UNL     1       4.588   6.704  17.497  0.00  0.00    +0.000 A 
ATOM      9  C   UNL     1       4.132   5.401  17.652  0.00  0.00    +0.000 A 
ENDROOT
BRANCH   1  10
ATOM     10  C   UNL     1       5.972   4.033  16.443  0.00  0.00    +0.000 C 
BRANCH  10  12
ATOM     11  C   UNL     1       5.883   3.927  13.826  0.00  0.00    +0.000 C 
ATOM     12  C   UNL     1       5.421   4.607  15.107  0.00  0.00    +0.000 C 
ENDBRANCH  10  12
BRANCH  10  13
ATOM     13  C   UNL     1       7.263   4.719  16.893  0.00  0.00    +0.000 C 
ATOM     14  O   UNL     1       7.955   4.357  17.836  0.00  0.00    +0.000 OA
BRANCH  13  15
ATOM     15  O   UNL     1       7.611   5.809  16.172  0.00  0.00    +0.000 OA
ATOM     16  H   UNL     1       7.317   5.830  15.245  0.00  0.00    +0.000 HD
ENDBRANCH  13  15
ENDBRANCH  10  13
ENDBRANCH   1  10
BRANCH   6  17
ATOM     17  O   UNL     1       1.555   8.637  17.933  0.00  0.00    +0.000 OA
BRANCH  17  18
ATOM     18  C   UNL     1       1.341   9.140  19.251  0.00  0.00    +0.000 C 
BRANCH  18  19
ATOM     19  C   UNL     1       0.291  10.253  19.191  0.00  0.00    +0.000 C 
BRANCH  19  20
ATOM     20  C   UNL     1       0.743  11.482  19.899  0.00  0.00    +0.000 A 
ATOM     21  C   UNL     1       0.353  11.947  21.190  0.00  0.00    +0.000 A 
ATOM     22  C   UNL     1      -0.576  11.340  22.172  0.00  0.00    +0.000 C 
ATOM     23  N   UNL     1       0.945  13.108  21.490  0.00  0.00    +0.000 NA
ATOM     24  O   UNL     1       1.739  13.419  20.409  0.00  0.00    +0.000 OA
ATOM     25  C   UNL     1       1.621  12.453  19.462  0.00  0.00    +0.000 A 
ATOM     26  C   UNL     1       2.421  12.657  18.239  0.00  0.00    +0.000 C 
ENDBRANCH  19  20
ENDBRANCH  18  19
ENDBRANCH  17  18
ENDBRANCH   6  17
TORSDOF 8
ENDMDL
MODEL 8
REMARK VINA RESULT:      -7.3      0.624      1.691
REMARK  Name = 
REMARK  11 active torsions:
REMARK  status: ('A' for Active; 'I' for Inactive)
REMARK    1  A    between atoms: C_1  and  C_2
REMARK    2  A    between atoms: C_2  and  C_3
REMARK    3  A    between atoms: C_3  and  C_4
REMARK    4  A    between atoms: C_3  and  C_7
REMARK    5  A    between atoms: C_4  and  O_6
REMARK    6  A    between atoms: C_12  and  O_13
REMARK    7  A    between atoms: O_13  and  C_14
REMARK    8  A    between atoms: C_14  and  C_15
REMARK    9  A    between atoms: C_15  and  C_16
REMARK   10  A    between atoms: C_17  and  C_18
REMARK   11  A    between atoms: C_21  and  C_22
REMARK                            x       y       z     vdW  Elec       q    Type
REMARK                         _______ _______ _______ _____ _____    ______ ____
ROOT
ATOM      1  C   UNL     1       5.028   4.088  17.200  0.00  0.00    +0.000 C 
ATOM      2  C   UNL     1       3.784   3.165  17.227  0.00  0.00    +0.000 C 
ATOM      3  C   UNL     1       2.733   3.870  18.097  0.00  0.00    +0.000 C 
ATOM      4  C   UNL     1       3.094   5.311  17.891  0.00  0.00    +0.000 A 
ATOM      5  C   UNL     1       2.312   6.433  18.151  0.00  0.00    +0.000 A 
ATOM      6  C   UNL     1       2.863   7.699  17.936  0.00  0.00    +0.000 A 
ATOM      7  C   UNL     1       4.173   7.826  17.456  0.00  0.00    +0.000 A 
ATOM      8  C   UNL     1       4.956   6.701  17.225  0.00  0.00    +0.000 A 
ATOM      9  C   UNL     1       4.402   5.442  17.420  0.00  0.00    +0.000 A 
ENDROOT
BRANCH   1  10
ATOM     10  C   UNL     1       5.904   3.950  15.924  0.00  0.00    +0.000 C 
BRANCH  10  12
ATOM     11  C   UNL     1       5.520   3.815  13.335  0.00  0.00    +0.000 C 
ATOM     12  C   UNL     1       5.150   4.460  14.664  0.00  0.00    +0.000 C 
ENDBRANCH  10  12
BRANCH  10  13
ATOM     13  C   UNL     1       7.247   4.650  16.133  0.00  0.00    +0.000 C 
ATOM     14  O   UNL     1       7.677   5.560  15.435  0.00  0.00    +0.000 OA
BRANCH  13  15
ATOM     15  O   UNL     1       7.980   4.182  17.168  0.00  0.00    +0.000 OA
ATOM     16  H   UNL     1       8.333   4.845  17.787  0.00  0.00    +0.000 HD
ENDBRANCH  13  15
ENDBRANCH  10  13
ENDBRANCH   1  10
BRANCH   6  17
ATOM     17  O   UNL     1       2.222   8.893  18.144  0.00  0.00    +0.000 OA
BRANCH  17  18
ATOM     18  C   UNL     1       0.807   8.859  17.965  0.00  0.00    +0.000 C 
BRANCH  18  19
ATOM     19  C   UNL     1       0.241  10.258  18.227  0.00  0.00    +0.000 C 
BRANCH  19  20
ATOM     20  C   UNL     1       0.691  10.803  19.538  0.00  0.00    +0.000 A 
ATOM     21  C   UNL     1       0.446  10.277  20.840  0.00  0.00    +0.000 A 
ATOM     22  C   UNL     1      -0.292   9.056  21.242  0.00  0.00    +0.000 C 
ATOM     23  N   UNL     1       0.983  11.050  21.789  0.00  0.00    +0.000 NA
ATOM     24  O   UNL     1       1.597  12.090  21.127  0.00  0.00    +0.000 OA
ATOM     25  C   UNL     1       1.425  11.945  19.789  0.00  0.00    +0.000 A 
ATOM     26  C   UNL     1       2.034  12.995  18.949  0.00  0.00    +0.000 C 
ENDBRANCH  19  20
ENDBRANCH  18  19
ENDBRANCH  17  18
ENDBRANCH   6  17
TORSDOF 8
ENDMDL
MODEL 9
REMARK VINA RESULT:      -7.2      2.615      8.281
REMARK  Name = 
REMARK  11 active torsions:
REMARK  status: ('A' for Active; 'I' for Inactive)
REMARK    1  A    between atoms: C_1  and  C_2
REMARK    2  A    between atoms: C_2  and  C_3
REMARK    3  A    between atoms: C_3  and  C_4
REMARK    4  A    between atoms: C_3  and  C_7
REMARK    5  A    between atoms: C_4  and  O_6
REMARK    6  A    between atoms: C_12  and  O_13
REMARK    7  A    between atoms: O_13  and  C_14
REMARK    8  A    between atoms: C_14  and  C_15
REMARK    9  A    between atoms: C_15  and  C_16
REMARK   10  A    between atoms: C_17  and  C_18
REMARK   11  A    between atoms: C_21  and  C_22
REMARK                            x       y       z     vdW  Elec       q    Type
REMARK                         _______ _______ _______ _____ _____    ______ ____
ROOT
ATOM      1  C   UNL     1       0.131   9.984  20.038  0.00  0.00    +0.000 C 
ATOM      2  C   UNL     1       0.401   9.590  21.512  0.00  0.00    +0.000 C 
ATOM      3  C   UNL     1       0.916   8.144  21.493  0.00  0.00    +0.000 C 
ATOM      4  C   UNL     1       1.569   8.079  20.145  0.00  0.00    +0.000 A 
ATOM      5  C   UNL     1       2.493   7.143  19.688  0.00  0.00    +0.000 A 
ATOM      6  C   UNL     1       2.943   7.233  18.367  0.00  0.00    +0.000 A 
ATOM      7  C   UNL     1       2.477   8.256  17.533  0.00  0.00    +0.000 A 
ATOM      8  C   UNL     1       1.535   9.171  17.989  0.00  0.00    +0.000 A 
ATOM      9  C   UNL     1       1.102   9.093  19.307  0.00  0.00    +0.000 A 
ENDROOT
BRANCH   1  10
ATOM     10  C   UNL     1       0.258  11.505  19.745  0.00  0.00    +0.000 C 
BRANCH  10  12
ATOM     11  C   UNL     1      -1.714  11.071  18.074  0.00  0.00    +0.000 C 
ATOM     12  C   UNL     1      -0.997  12.042  19.001  0.00  0.00    +0.000 C 
ENDBRANCH  10  12
BRANCH  10  13
ATOM     13  C   UNL     1       0.548  12.265  21.039  0.00  0.00    +0.000 C 
ATOM     14  O   UNL     1      -0.297  12.592  21.863  0.00  0.00    +0.000 OA
BRANCH  13  15
ATOM     15  O   UNL     1       1.847  12.589  21.232  0.00  0.00    +0.000 OA
ATOM     16  H   UNL     1       2.116  12.786  22.146  0.00  0.00    +0.000 HD
ENDBRANCH  13  15
ENDBRANCH  10  13
ENDBRANCH   1  10
BRANCH   6  17
ATOM     17  O   UNL     1       3.846   6.390  17.774  0.00  0.00    +0.000 OA
BRANCH  17  18
ATOM     18  C   UNL     1       3.411   5.039  17.632  0.00  0.00    +0.000 C 
BRANCH  18  19
ATOM     19  C   UNL     1       4.631   4.116  17.690  0.00  0.00    +0.000 C 
BRANCH  19  20
ATOM     20  C   UNL     1       5.836   4.752  17.088  0.00  0.00    +0.000 A 
ATOM     21  C   UNL     1       6.187   4.842  15.708  0.00  0.00    +0.000 A 
ATOM     22  C   UNL     1       5.455   4.357  14.515  0.00  0.00    +0.000 C 
ATOM     23  N   UNL     1       7.360   5.460  15.542  0.00  0.00    +0.000 NA
ATOM     24  O   UNL     1       7.795   5.795  16.805  0.00  0.00    +0.000 OA
ATOM     25  C   UNL     1       6.890   5.375  17.726  0.00  0.00    +0.000 A 
ATOM     26  C   UNL     1       7.229   5.666  19.132  0.00  0.00    +0.000 C 
ENDBRANCH  19  20
ENDBRANCH  18  19
ENDBRANCH  17  18
ENDBRANCH   6  17
TORSDOF 8
ENDMDL
