MODEL 1
REMARK VINA RESULT:      -6.6      0.000      0.000
REMARK  Name = 
REMARK  5 active torsions:
REMARK  status: ('A' for Active; 'I' for Inactive)
REMARK    1  A    between atoms: C_1  and  N_2
REMARK    2  A    between atoms: C_6  and  C_7
REMARK    3  A    between atoms: N_12  and  N_13
REMARK    4  A    between atoms: C_14  and  C_15
REMARK    5  A    between atoms: C_14  and  C_16
REMARK                            x       y       z     vdW  Elec       q    Type
REMARK                         _______ _______ _______ _____ _____    ______ ____
ROOT
ATOM      1  C   UNL     1       0.523   2.298  18.874  0.00  0.00    +0.000 C 
ATOM      2  N   UNL     1       1.232   3.564  18.790  0.00  0.00    +0.000 NA
ATOM      3  C   UNL     1       2.485   3.609  18.508  0.00  0.00    +0.000 A 
ATOM      4  S   UNL     1       3.501   2.134  18.393  0.00  0.00    +0.000 S 
ATOM      5  C   UNL     1       4.935   3.093  18.240  0.00  0.00    +0.000 A 
ATOM      6  C   UNL     1       4.679   4.416  18.186  0.00  0.00    +0.000 A 
ATOM      7  N   UNL     1       3.296   4.739  18.263  0.00  0.00    +0.000 N 
ENDROOT
BRANCH   6   8
ATOM      8  C   UNL     1       5.775   5.346  18.113  0.00  0.00    +0.000 A 
ATOM      9  C   UNL     1       6.816   5.540  19.011  0.00  0.00    +0.000 A 
ATOM     10  C   UNL     1       7.747   6.541  18.605  0.00  0.00    +0.000 A 
ATOM     11  C   UNL     1       7.405   7.095  17.395  0.00  0.00    +0.000 A 
ATOM     12  S   UNL     1       5.962   6.433  16.775  0.00  0.00    +0.000 S 
ENDBRANCH   6   8
BRANCH   7  13
ATOM     13  N   UNL     1       2.909   6.067  18.182  0.00  0.00    +0.000 NA
ATOM     14  C   UNL     1       2.448   6.746  19.190  0.00  0.00    +0.000 C 
ATOM     15  C   UNL     1       2.221   6.289  20.611  0.00  0.00    +0.000 C 
BRANCH  14  16
ATOM     16  C   UNL     1       2.035   8.125  18.948  0.00  0.00    +0.000 A 
ATOM     17  C   UNL     1       2.156   8.950  17.846  0.00  0.00    +0.000 A 
ATOM     18  C   UNL     1       1.440  10.136  18.143  0.00  0.00    +0.000 A 
ATOM     19  C   UNL     1       0.971   9.992  19.426  0.00  0.00    +0.000 A 
ATOM     20  O   UNL     1       1.322   8.778  19.922  0.00  0.00    +0.000 OA
ENDBRANCH  14  16
ENDBRANCH   7  13
TORSDOF 3
ENDMDL
MODEL 2
REMARK VINA RESULT:      -6.5      1.493      1.677
REMARK  Name = 
REMARK  5 active torsions:
REMARK  status: ('A' for Active; 'I' for Inactive)
REMARK    1  A    between atoms: C_1  and  N_2
REMARK    2  A    between atoms: C_6  and  C_7
REMARK    3  A    between atoms: N_12  and  N_13
REMARK    4  A    between atoms: C_14  and  C_15
REMARK    5  A    between atoms: C_14  and  C_16
REMARK                            x       y       z     vdW  Elec       q    Type
REMARK                         _______ _______ _______ _____ _____    ______ ____
ROOT
ATOM      1  C   UNL     1       1.450   2.595  21.692  0.00  0.00    +0.000 C 
ATOM      2  N   UNL     1       1.998   3.844  21.190  0.00  0.00    +0.000 NA
ATOM      3  C   UNL     1       3.032   3.859  20.427  0.00  0.00    +0.000 A 
ATOM      4  S   UNL     1       3.999   2.387  20.083  0.00  0.00    +0.000 S 
ATOM      5  C   UNL     1       5.201   3.325  19.263  0.00  0.00    +0.000 A 
ATOM      6  C   UNL     1       4.873   4.629  19.166  0.00  0.00    +0.000 A 
ATOM      7  N   UNL     1       3.617   4.954  19.752  0.00  0.00    +0.000 N 
ENDROOT
BRANCH   6   8
ATOM      8  C   UNL     1       5.798   5.549  18.556  0.00  0.00    +0.000 A 
ATOM      9  C   UNL     1       5.610   6.371  17.453  0.00  0.00    +0.000 A 
ATOM     10  C   UNL     1       6.744   7.175  17.136  0.00  0.00    +0.000 A 
ATOM     11  C   UNL     1       7.783   6.958  18.008  0.00  0.00    +0.000 A 
ATOM     12  S   UNL     1       7.401   5.777  19.176  0.00  0.00    +0.000 S 
ENDBRANCH   6   8
BRANCH   7  13
ATOM     13  N   UNL     1       3.159   6.259  19.683  0.00  0.00    +0.000 NA
ATOM     14  C   UNL     1       2.326   6.684  18.780  0.00  0.00    +0.000 C 
ATOM     15  C   UNL     1       1.694   5.917  17.644  0.00  0.00    +0.000 C 
BRANCH  14  16
ATOM     16  C   UNL     1       1.965   8.098  18.800  0.00  0.00    +0.000 A 
ATOM     17  C   UNL     1       2.029   9.086  17.836  0.00  0.00    +0.000 A 
ATOM     18  C   UNL     1       1.406  10.234  18.385  0.00  0.00    +0.000 A 
ATOM     19  C   UNL     1       1.047   9.901  19.669  0.00  0.00    +0.000 A 
ATOM     20  O   UNL     1       1.378   8.610  19.930  0.00  0.00    +0.000 OA
ENDBRANCH  14  16
ENDBRANCH   7  13
TORSDOF 3
ENDMDL
MODEL 3
REMARK VINA RESULT:      -6.3      1.579      4.506
REMARK  Name = 
REMARK  5 active torsions:
REMARK  status: ('A' for Active; 'I' for Inactive)
REMARK    1  A    between atoms: C_1  and  N_2
REMARK    2  A    between atoms: C_6  and  C_7
REMARK    3  A    between atoms: N_12  and  N_13
REMARK    4  A    between atoms: C_14  and  C_15
REMARK    5  A    between atoms: C_14  and  C_16
REMARK                            x       y       z     vdW  Elec       q    Type
REMARK                         _______ _______ _______ _____ _____    ______ ____
ROOT
ATOM      1  C   UNL     1       7.228   7.499  17.112  0.00  0.00    +0.000 C 
ATOM      2  N   UNL     1       5.946   7.266  17.757  0.00  0.00    +0.000 NA
ATOM      3  C   UNL     1       5.467   6.080  17.879  0.00  0.00    +0.000 A 
ATOM      4  S   UNL     1       6.223   4.650  17.102  0.00  0.00    +0.000 S 
ATOM      5  C   UNL     1       4.888   3.649  17.565  0.00  0.00    +0.000 A 
ATOM      6  C   UNL     1       3.982   4.300  18.322  0.00  0.00    +0.000 A 
ATOM      7  N   UNL     1       4.315   5.659  18.579  0.00  0.00    +0.000 N 
ENDROOT
BRANCH   6   8
ATOM      8  C   UNL     1       2.787   3.615  18.742  0.00  0.00    +0.000 A 
ATOM      9  C   UNL     1       1.613   3.397  18.033  0.00  0.00    +0.000 A 
ATOM     10  C   UNL     1       0.634   2.654  18.757  0.00  0.00    +0.000 A 
ATOM     11  C   UNL     1       1.079   2.311  20.011  0.00  0.00    +0.000 A 
ATOM     12  S   UNL     1       2.647   2.904  20.316  0.00  0.00    +0.000 S 
ENDBRANCH   6   8
BRANCH   7  13
ATOM     13  N   UNL     1       3.474   6.419  19.376  0.00  0.00    +0.000 NA
ATOM     14  C   UNL     1       2.594   7.253  18.907  0.00  0.00    +0.000 C 
ATOM     15  C   UNL     1       2.290   7.592  17.468  0.00  0.00    +0.000 C 
BRANCH  14  16
ATOM     16  C   UNL     1       1.808   8.023  19.866  0.00  0.00    +0.000 A 
ATOM     17  C   UNL     1       1.468   7.791  21.185  0.00  0.00    +0.000 A 
ATOM     18  C   UNL     1       0.810   8.957  21.649  0.00  0.00    +0.000 A 
ATOM     19  C   UNL     1       0.737   9.811  20.575  0.00  0.00    +0.000 A 
ATOM     20  O   UNL     1       1.341   9.258  19.492  0.00  0.00    +0.000 OA
ENDBRANCH  14  16
ENDBRANCH   7  13
TORSDOF 3
ENDMDL
MODEL 4
REMARK VINA RESULT:      -6.2      3.040      5.743
REMARK  Name = 
REMARK  5 active torsions:
REMARK  status: ('A' for Active; 'I' for Inactive)
REMARK    1  A    between atoms: C_1  and  N_2
REMARK    2  A    between atoms: C_6  and  C_7
REMARK    3  A    between atoms: N_12  and  N_13
REMARK    4  A    between atoms: C_14  and  C_15
REMARK    5  A    between atoms: C_14  and  C_16
REMARK                            x       y       z     vdW  Elec       q    Type
REMARK                         _______ _______ _______ _____ _____    ______ ____
ROOT
ATOM      1  C   UNL     1       2.489   9.623  17.857  0.00  0.00    +0.000 C 
ATOM      2  N   UNL     1       3.130   8.363  17.515  0.00  0.00    +0.000 NA
ATOM      3  C   UNL     1       2.868   7.286  18.165  0.00  0.00    +0.000 A 
ATOM      4  S   UNL     1       1.863   7.275  19.652  0.00  0.00    +0.000 S 
ATOM      5  C   UNL     1       2.232   5.607  19.931  0.00  0.00    +0.000 A 
ATOM      6  C   UNL     1       2.975   5.062  18.946  0.00  0.00    +0.000 A 
ATOM      7  N   UNL     1       3.292   5.966  17.894  0.00  0.00    +0.000 N 
ENDROOT
BRANCH   6   8
ATOM      8  C   UNL     1       3.408   3.693  19.061  0.00  0.00    +0.000 A 
ATOM      9  C   UNL     1       4.390   3.156  19.883  0.00  0.00    +0.000 A 
ATOM     10  C   UNL     1       4.541   1.744  19.750  0.00  0.00    +0.000 A 
ATOM     11  C   UNL     1       3.665   1.221  18.830  0.00  0.00    +0.000 A 
ATOM     12  S   UNL     1       2.694   2.427  18.116  0.00  0.00    +0.000 S 
ENDBRANCH   6   8
BRANCH   7  13
ATOM     13  N   UNL     1       4.023   5.508  16.810  0.00  0.00    +0.000 NA
ATOM     14  C   UNL     1       5.321   5.541  16.749  0.00  0.00    +0.000 C 
ATOM     15  C   UNL     1       6.300   6.062  17.773  0.00  0.00    +0.000 C 
BRANCH  14  16
ATOM     16  C   UNL     1       5.956   5.067  15.523  0.00  0.00    +0.000 A 
ATOM     17  C   UNL     1       5.544   4.177  14.549  0.00  0.00    +0.000 A 
ATOM     18  C   UNL     1       6.516   4.220  13.519  0.00  0.00    +0.000 A 
ATOM     19  C   UNL     1       7.490   5.090  13.945  0.00  0.00    +0.000 A 
ATOM     20  O   UNL     1       7.161   5.610  15.155  0.00  0.00    +0.000 OA
ENDBRANCH  14  16
ENDBRANCH   7  13
TORSDOF 3
ENDMDL
MODEL 5
REMARK VINA RESULT:      -6.0      1.498      1.683
REMARK  Name = 
REMARK  5 active torsions:
REMARK  status: ('A' for Active; 'I' for Inactive)
REMARK    1  A    between atoms: C_1  and  N_2
REMARK    2  A    between atoms: C_6  and  C_7
REMARK    3  A    between atoms: N_12  and  N_13
REMARK    4  A    between atoms: C_14  and  C_15
REMARK    5  A    between atoms: C_14  and  C_16
REMARK                            x       y       z     vdW  Elec       q    Type
REMARK                         _______ _______ _______ _____ _____    ______ ____
ROOT
ATOM      1  C   UNL     1       1.410   2.530  21.790  0.00  0.00    +0.000 C 
ATOM      2  N   UNL     1       1.976   3.760  21.260  0.00  0.00    +0.000 NA
ATOM      3  C   UNL     1       3.012   3.743  20.500  0.00  0.00    +0.000 A 
ATOM      4  S   UNL     1       3.960   2.250  20.193  0.00  0.00    +0.000 S 
ATOM      5  C   UNL     1       5.176   3.153  19.354  0.00  0.00    +0.000 A 
ATOM      6  C   UNL     1       4.865   4.459  19.226  0.00  0.00    +0.000 A 
ATOM      7  N   UNL     1       3.613   4.814  19.801  0.00  0.00    +0.000 N 
ENDROOT
BRANCH   6   8
ATOM      8  C   UNL     1       5.804   5.351  18.597  0.00  0.00    +0.000 A 
ATOM      9  C   UNL     1       7.003   5.847  19.094  0.00  0.00    +0.000 A 
ATOM     10  C   UNL     1       7.694   6.697  18.181  0.00  0.00    +0.000 A 
ATOM     11  C   UNL     1       7.014   6.835  16.996  0.00  0.00    +0.000 A 
ATOM     12  S   UNL     1       5.545   5.970  16.998  0.00  0.00    +0.000 S 
ENDBRANCH   6   8
BRANCH   7  13
ATOM     13  N   UNL     1       3.172   6.123  19.700  0.00  0.00    +0.000 NA
ATOM     14  C   UNL     1       2.355   6.540  18.779  0.00  0.00    +0.000 C 
ATOM     15  C   UNL     1       1.727   5.758  17.651  0.00  0.00    +0.000 C 
BRANCH  14  16
ATOM     16  C   UNL     1       2.013   7.959  18.767  0.00  0.00    +0.000 A 
ATOM     17  C   UNL     1       1.387   8.770  19.693  0.00  0.00    +0.000 A 
ATOM     18  C   UNL     1       1.458  10.094  19.193  0.00  0.00    +0.000 A 
ATOM     19  C   UNL     1       2.073  10.009  17.967  0.00  0.00    +0.000 A 
ATOM     20  O   UNL     1       2.416   8.723  17.700  0.00  0.00    +0.000 OA
ENDBRANCH  14  16
ENDBRANCH   7  13
TORSDOF 3
ENDMDL
MODEL 6
REMARK VINA RESULT:      -6.0      2.971      5.705
REMARK  Name = 
REMARK  5 active torsions:
REMARK  status: ('A' for Active; 'I' for Inactive)
REMARK    1  A    between atoms: C_1  and  N_2
REMARK    2  A    between atoms: C_6  and  C_7
REMARK    3  A    between atoms: N_12  and  N_13
REMARK    4  A    between atoms: C_14  and  C_15
REMARK    5  A    between atoms: C_14  and  C_16
REMARK                            x       y       z     vdW  Elec       q    Type
REMARK                         _______ _______ _______ _____ _____    ______ ____
ROOT
ATOM      1  C   UNL     1       2.100   9.957  17.758  0.00  0.00    +0.000 C 
ATOM      2  N   UNL     1       2.747   8.662  17.620  0.00  0.00    +0.000 NA
ATOM      3  C   UNL     1       2.523   7.713  18.457  0.00  0.00    +0.000 A 
ATOM      4  S   UNL     1       1.570   7.955  19.958  0.00  0.00    +0.000 S 
ATOM      5  C   UNL     1       1.973   6.365  20.512  0.00  0.00    +0.000 A 
ATOM      6  C   UNL     1       2.690   5.661  19.611  0.00  0.00    +0.000 A 
ATOM      7  N   UNL     1       2.958   6.370  18.407  0.00  0.00    +0.000 N 
ENDROOT
BRANCH   6   8
ATOM      8  C   UNL     1       3.147   4.338  19.948  0.00  0.00    +0.000 A 
ATOM      9  C   UNL     1       4.241   3.641  19.453  0.00  0.00    +0.000 A 
ATOM     10  C   UNL     1       4.409   2.349  20.033  0.00  0.00    +0.000 A 
ATOM     11  C   UNL     1       3.441   2.080  20.969  0.00  0.00    +0.000 A 
ATOM     12  S   UNL     1       2.328   3.361  21.123  0.00  0.00    +0.000 S 
ENDBRANCH   6   8
BRANCH   7  13
ATOM     13  N   UNL     1       3.657   5.735  17.393  0.00  0.00    +0.000 NA
ATOM     14  C   UNL     1       4.927   5.908  17.176  0.00  0.00    +0.000 C 
ATOM     15  C   UNL     1       5.898   6.796  17.916  0.00  0.00    +0.000 C 
BRANCH  14  16
ATOM     16  C   UNL     1       5.524   5.209  16.041  0.00  0.00    +0.000 A 
ATOM     17  C   UNL     1       5.194   4.030  15.401  0.00  0.00    +0.000 A 
ATOM     18  C   UNL     1       6.044   3.926  14.272  0.00  0.00    +0.000 A 
ATOM     19  C   UNL     1       6.878   5.017  14.317  0.00  0.00    +0.000 A 
ATOM     20  O   UNL     1       6.571   5.802  15.381  0.00  0.00    +0.000 OA
ENDBRANCH  14  16
ENDBRANCH   7  13
TORSDOF 3
ENDMDL
MODEL 7
REMARK VINA RESULT:      -5.9      2.579      4.898
REMARK  Name = 
REMARK  5 active torsions:
REMARK  status: ('A' for Active; 'I' for Inactive)
REMARK    1  A    between atoms: C_1  and  N_2
REMARK    2  A    between atoms: C_6  and  C_7
REMARK    3  A    between atoms: N_12  and  N_13
REMARK    4  A    between atoms: C_14  and  C_15
REMARK    5  A    between atoms: C_14  and  C_16
REMARK                            x       y       z     vdW  Elec       q    Type
REMARK                         _______ _______ _______ _____ _____    ______ ____
ROOT
ATOM      1  C   UNL     1       4.575   1.250  20.295  0.00  0.00    +0.000 C 
ATOM      2  N   UNL     1       4.730   2.631  19.870  0.00  0.00    +0.000 NA
ATOM      3  C   UNL     1       3.762   3.470  19.966  0.00  0.00    +0.000 A 
ATOM      4  S   UNL     1       2.101   2.978  20.436  0.00  0.00    +0.000 S 
ATOM      5  C   UNL     1       1.496   4.563  20.089  0.00  0.00    +0.000 A 
ATOM      6  C   UNL     1       2.466   5.430  19.735  0.00  0.00    +0.000 A 
ATOM      7  N   UNL     1       3.771   4.863  19.725  0.00  0.00    +0.000 N 
ENDROOT
BRANCH   6   8
ATOM      8  C   UNL     1       2.113   6.775  19.363  0.00  0.00    +0.000 A 
ATOM      9  C   UNL     1       2.152   7.372  18.110  0.00  0.00    +0.000 A 
ATOM     10  C   UNL     1       1.704   8.726  18.105  0.00  0.00    +0.000 A 
ATOM     11  C   UNL     1       1.324   9.143  19.358  0.00  0.00    +0.000 A 
ATOM     12  S   UNL     1       1.533   7.921  20.528  0.00  0.00    +0.000 S 
ENDBRANCH   6   8
BRANCH   7  13
ATOM     13  N   UNL     1       4.853   5.668  19.410  0.00  0.00    +0.000 NA
ATOM     14  C   UNL     1       5.351   5.772  18.213  0.00  0.00    +0.000 C 
ATOM     15  C   UNL     1       4.912   5.080  16.946  0.00  0.00    +0.000 C 
BRANCH  14  16
ATOM     16  C   UNL     1       6.523   6.624  18.037  0.00  0.00    +0.000 A 
ATOM     17  C   UNL     1       6.785   7.675  17.180  0.00  0.00    +0.000 A 
ATOM     18  C   UNL     1       8.039   8.212  17.563  0.00  0.00    +0.000 A 
ATOM     19  C   UNL     1       8.495   7.427  18.594  0.00  0.00    +0.000 A 
ATOM     20  O   UNL     1       7.585   6.465  18.891  0.00  0.00    +0.000 OA
ENDBRANCH  14  16
ENDBRANCH   7  13
TORSDOF 3
ENDMDL
MODEL 8
REMARK VINA RESULT:      -5.9      2.310      4.764
REMARK  Name = 
REMARK  5 active torsions:
REMARK  status: ('A' for Active; 'I' for Inactive)
REMARK    1  A    between atoms: C_1  and  N_2
REMARK    2  A    between atoms: C_6  and  C_7
REMARK    3  A    between atoms: N_12  and  N_13
REMARK    4  A    between atoms: C_14  and  C_15
REMARK    5  A    between atoms: C_14  and  C_16
REMARK                            x       y       z     vdW  Elec       q    Type
REMARK                         _______ _______ _______ _____ _____    ______ ____
ROOT
ATOM      1  C   UNL     1       3.882   0.855  18.825  0.00  0.00    +0.000 C 
ATOM      2  N   UNL     1       4.135   2.286  18.791  0.00  0.00    +0.000 NA
ATOM      3  C   UNL     1       3.272   3.126  19.241  0.00  0.00    +0.000 A 
ATOM      4  S   UNL     1       1.626   2.634  19.758  0.00  0.00    +0.000 S 
ATOM      5  C   UNL     1       1.154   4.289  19.950  0.00  0.00    +0.000 A 
ATOM      6  C   UNL     1       2.168   5.152  19.736  0.00  0.00    +0.000 A 
ATOM      7  N   UNL     1       3.401   4.523  19.403  0.00  0.00    +0.000 N 
ENDROOT
BRANCH   6   8
ATOM      8  C   UNL     1       1.919   6.568  19.807  0.00  0.00    +0.000 A 
ATOM      9  C   UNL     1       1.521   7.330  20.898  0.00  0.00    +0.000 A 
ATOM     10  C   UNL     1       1.390   8.721  20.611  0.00  0.00    +0.000 A 
ATOM     11  C   UNL     1       1.697   9.002  19.302  0.00  0.00    +0.000 A 
ATOM     12  S   UNL     1       2.109   7.599  18.426  0.00  0.00    +0.000 S 
ENDBRANCH   6   8
BRANCH   7  13
ATOM     13  N   UNL     1       4.523   5.309  19.195  0.00  0.00    +0.000 NA
ATOM     14  C   UNL     1       5.031   5.544  18.022  0.00  0.00    +0.000 C 
ATOM     15  C   UNL     1       4.565   5.046  16.675  0.00  0.00    +0.000 C 
BRANCH  14  16
ATOM     16  C   UNL     1       6.244   6.352  17.957  0.00  0.00    +0.000 A 
ATOM     17  C   UNL     1       6.591   7.445  17.186  0.00  0.00    +0.000 A 
ATOM     18  C   UNL     1       7.846   7.900  17.661  0.00  0.00    +0.000 A 
ATOM     19  C   UNL     1       8.219   7.028  18.656  0.00  0.00    +0.000 A 
ATOM     20  O   UNL     1       7.256   6.090  18.846  0.00  0.00    +0.000 OA
ENDBRANCH  14  16
ENDBRANCH   7  13
TORSDOF 3
ENDMDL
MODEL 9
REMARK VINA RESULT:      -5.6      2.619      5.466
REMARK  Name = 
REMARK  5 active torsions:
REMARK  status: ('A' for Active; 'I' for Inactive)
REMARK    1  A    between atoms: C_1  and  N_2
REMARK    2  A    between atoms: C_6  and  C_7
REMARK    3  A    between atoms: N_12  and  N_13
REMARK    4  A    between atoms: C_14  and  C_15
REMARK    5  A    between atoms: C_14  and  C_16
REMARK                            x       y       z     vdW  Elec       q    Type
REMARK                         _______ _______ _______ _____ _____    ______ ____
ROOT
ATOM      1  C   UNL     1       6.904   4.126  15.961  0.00  0.00    +0.000 C 
ATOM      2  N   UNL     1       5.975   4.400  17.045  0.00  0.00    +0.000 NA
ATOM      3  C   UNL     1       5.185   5.412  17.004  0.00  0.00    +0.000 A 
ATOM      4  S   UNL     1       5.290   6.669  15.727  0.00  0.00    +0.000 S 
ATOM      5  C   UNL     1       4.123   7.650  16.547  0.00  0.00    +0.000 A 
ATOM      6  C   UNL     1       3.616   7.055  17.646  0.00  0.00    +0.000 A 
ATOM      7  N   UNL     1       4.143   5.757  17.894  0.00  0.00    +0.000 N 
ENDROOT
BRANCH   6   8
ATOM      8  C   UNL     1       2.672   7.769  18.465  0.00  0.00    +0.000 A 
ATOM      9  C   UNL     1       2.227   7.469  19.746  0.00  0.00    +0.000 A 
ATOM     10  C   UNL     1       1.298   8.416  20.269  0.00  0.00    +0.000 A 
ATOM     11  C   UNL     1       1.050   9.432  19.378  0.00  0.00    +0.000 A 
ATOM     12  S   UNL     1       1.908   9.226  17.920  0.00  0.00    +0.000 S 
ENDBRANCH   6   8
BRANCH   7  13
ATOM     13  N   UNL     1       3.671   5.034  18.978  0.00  0.00    +0.000 NA
ATOM     14  C   UNL     1       2.812   4.063  18.878  0.00  0.00    +0.000 C 
ATOM     15  C   UNL     1       2.146   3.517  17.638  0.00  0.00    +0.000 C 
BRANCH  14  16
ATOM     16  C   UNL     1       2.367   3.420  20.110  0.00  0.00    +0.000 A 
ATOM     17  C   UNL     1       1.160   3.436  20.781  0.00  0.00    +0.000 A 
ATOM     18  C   UNL     1       1.271   2.509  21.846  0.00  0.00    +0.000 A 
ATOM     19  C   UNL     1       2.555   2.020  21.799  0.00  0.00    +0.000 A 
ATOM     20  O   UNL     1       3.226   2.563  20.751  0.00  0.00    +0.000 OA
ENDBRANCH  14  16
ENDBRANCH   7  13
TORSDOF 3
ENDMDL
