MODEL 1
REMARK VINA RESULT:      -8.6      0.000      0.000
REMARK  Name = 
REMARK  5 active torsions:
REMARK  status: ('A' for Active; 'I' for Inactive)
REMARK    1  A    between atoms: C_1  and  C_2
REMARK    2  A    between atoms: C_4  and  C_5
REMARK    3  A    between atoms: C_5  and  N_6
REMARK    4  A    between atoms: C_5  and  C_15
REMARK    5  A    between atoms: C_7  and  C_9
REMARK                            x       y       z     vdW  Elec       q    Type
REMARK                         _______ _______ _______ _____ _____    ______ ____
ROOT
ATOM      1  C   UNL     1       2.769   6.458  18.150  0.00  0.00    +0.000 C 
ENDROOT
BRANCH   1   5
ATOM      2  C   UNL     1       0.392   9.452  21.502  0.00  0.00    +0.000 C 
ATOM      3  C   UNL     1       1.037   9.275  20.157  0.00  0.00    +0.000 A 
ATOM      4  C   UNL     1       1.611   8.035  19.823  0.00  0.00    +0.000 A 
ATOM      5  C   UNL     1       2.194   7.812  18.561  0.00  0.00    +0.000 A 
ATOM      6  C   UNL     1       2.190   8.861  17.628  0.00  0.00    +0.000 A 
ATOM      7  C   UNL     1       1.645  10.103  17.954  0.00  0.00    +0.000 A 
ATOM      8  C   UNL     1       1.078  10.311  19.212  0.00  0.00    +0.000 A 
ATOM      9 CL   UNL     1       0.427  11.873  19.555  0.00  0.00    +0.000 Cl
ENDBRANCH   1   5
BRANCH   1  10
ATOM     10  C   UNL     1       2.451   5.324  19.122  0.00  0.00    +0.000 A 
ATOM     11  C   UNL     1       1.472   4.377  18.765  0.00  0.00    +0.000 A 
ATOM     12  C   UNL     1       1.077   3.378  19.660  0.00  0.00    +0.000 A 
ATOM     13  C   UNL     1       1.669   3.303  20.917  0.00  0.00    +0.000 A 
ATOM     14 CL   UNL     1       1.142   2.115  22.043  0.00  0.00    +0.000 Cl
ATOM     15  C   UNL     1       2.676   4.195  21.272  0.00  0.00    +0.000 A 
ATOM     16  C   UNL     1       3.073   5.192  20.375  0.00  0.00    +0.000 A 
ENDBRANCH   1  10
BRANCH   1  17
ATOM     17  N   UNL     1       4.192   6.525  17.884  0.00  0.00    +0.000 N 
ATOM     18  C   UNL     1       4.833   5.596  17.089  0.00  0.00    +0.000 C 
ATOM     19  O   UNL     1       4.257   4.657  16.548  0.00  0.00    +0.000 OA
ATOM     20  H   UNL     1       4.741   7.250  18.331  0.00  0.00    +0.000 HD
BRANCH  18  21
ATOM     21  C   UNL     1       6.320   5.889  16.874  0.00  0.00    +0.000 C 
ATOM     22  C   UNL     1       7.114   4.638  16.564  0.00  0.00    +0.000 C 
ATOM     23  N   UNL     1       7.599   4.283  17.854  0.00  0.00    +0.000 N 
ATOM     24  C   UNL     1       7.555   5.360  18.688  0.00  0.00    +0.000 C 
ATOM     25  O   UNL     1       8.034   5.411  19.808  0.00  0.00    +0.000 OA
ATOM     26  O   UNL     1       6.912   6.399  18.075  0.00  0.00    +0.000 OA
ATOM     27  H   UNL     1       8.157   3.471  18.090  0.00  0.00    +0.000 HD
ENDBRANCH  18  21
ENDBRANCH   1  17
TORSDOF 4
ENDMDL
MODEL 2
REMARK VINA RESULT:      -8.3      3.296      5.026
REMARK  Name = 
REMARK  5 active torsions:
REMARK  status: ('A' for Active; 'I' for Inactive)
REMARK    1  A    between atoms: C_1  and  C_2
REMARK    2  A    between atoms: C_4  and  C_5
REMARK    3  A    between atoms: C_5  and  N_6
REMARK    4  A    between atoms: C_5  and  C_15
REMARK    5  A    between atoms: C_7  and  C_9
REMARK                            x       y       z     vdW  Elec       q    Type
REMARK                         _______ _______ _______ _____ _____    ______ ____
ROOT
ATOM      1  C   UNL     1       3.911   5.775  18.873  0.00  0.00    +0.000 C 
ENDROOT
BRANCH   1   5
ATOM      2  C   UNL     1       0.512   8.759  21.197  0.00  0.00    +0.000 C 
ATOM      3  C   UNL     1       1.374   8.468  20.001  0.00  0.00    +0.000 A 
ATOM      4  C   UNL     1       2.226   7.349  20.017  0.00  0.00    +0.000 A 
ATOM      5  C   UNL     1       3.024   7.018  18.905  0.00  0.00    +0.000 A 
ATOM      6  C   UNL     1       2.951   7.832  17.764  0.00  0.00    +0.000 A 
ATOM      7  C   UNL     1       2.128   8.957  17.743  0.00  0.00    +0.000 A 
ATOM      8  C   UNL     1       1.348   9.278  18.856  0.00  0.00    +0.000 A 
ATOM      9 CL   UNL     1       0.357  10.688  18.767  0.00  0.00    +0.000 Cl
ENDBRANCH   1   5
BRANCH   1  10
ATOM     10  C   UNL     1       4.807   5.681  17.639  0.00  0.00    +0.000 A 
ATOM     11  C   UNL     1       4.364   4.931  16.533  0.00  0.00    +0.000 A 
ATOM     12  C   UNL     1       5.188   4.736  15.420  0.00  0.00    +0.000 A 
ATOM     13  C   UNL     1       6.458   5.302  15.393  0.00  0.00    +0.000 A 
ATOM     14 CL   UNL     1       7.498   5.012  14.054  0.00  0.00    +0.000 Cl
ATOM     15  C   UNL     1       6.898   6.090  16.452  0.00  0.00    +0.000 A 
ATOM     16  C   UNL     1       6.072   6.289  17.563  0.00  0.00    +0.000 A 
ENDBRANCH   1  10
BRANCH   1  17
ATOM     17  N   UNL     1       3.151   4.554  19.052  0.00  0.00    +0.000 N 
ATOM     18  C   UNL     1       3.744   3.377  19.459  0.00  0.00    +0.000 C 
ATOM     19  O   UNL     1       4.943   3.271  19.702  0.00  0.00    +0.000 OA
ATOM     20  H   UNL     1       2.162   4.555  18.831  0.00  0.00    +0.000 HD
BRANCH  18  21
ATOM     21  C   UNL     1       2.755   2.226  19.661  0.00  0.00    +0.000 C 
ATOM     22  C   UNL     1       1.363   2.574  19.180  0.00  0.00    +0.000 C 
ATOM     23  N   UNL     1       0.749   3.018  20.385  0.00  0.00    +0.000 N 
ATOM     24  C   UNL     1       1.438   2.552  21.465  0.00  0.00    +0.000 C 
ATOM     25  O   UNL     1       1.080   2.641  22.626  0.00  0.00    +0.000 OA
ATOM     26  O   UNL     1       2.590   1.941  21.056  0.00  0.00    +0.000 OA
ATOM     27  H   UNL     1      -0.194   3.375  20.490  0.00  0.00    +0.000 HD
ENDBRANCH  18  21
ENDBRANCH   1  17
TORSDOF 4
ENDMDL
MODEL 3
REMARK VINA RESULT:      -8.2      1.648      5.098
REMARK  Name = 
REMARK  5 active torsions:
REMARK  status: ('A' for Active; 'I' for Inactive)
REMARK    1  A    between atoms: C_1  and  C_2
REMARK    2  A    between atoms: C_4  and  C_5
REMARK    3  A    between atoms: C_5  and  N_6
REMARK    4  A    between atoms: C_5  and  C_15
REMARK    5  A    between atoms: C_7  and  C_9
REMARK                            x       y       z     vdW  Elec       q    Type
REMARK                         _______ _______ _______ _____ _____    ______ ____
ROOT
ATOM      1  C   UNL     1       2.914   7.068  19.104  0.00  0.00    +0.000 C 
ENDROOT
BRANCH   1   5
ATOM      2  C   UNL     1       1.432   2.869  21.558  0.00  0.00    +0.000 C 
ATOM      3  C   UNL     1       1.580   3.631  20.271  0.00  0.00    +0.000 A 
ATOM      4  C   UNL     1       2.103   4.936  20.296  0.00  0.00    +0.000 A 
ATOM      5  C   UNL     1       2.292   5.673  19.112  0.00  0.00    +0.000 A 
ATOM      6  C   UNL     1       1.951   5.074  17.889  0.00  0.00    +0.000 A 
ATOM      7  C   UNL     1       1.410   3.789  17.852  0.00  0.00    +0.000 A 
ATOM      8  C   UNL     1       1.220   3.073  19.036  0.00  0.00    +0.000 A 
ATOM      9 CL   UNL     1       0.540   1.490  18.920  0.00  0.00    +0.000 Cl
ENDBRANCH   1   5
BRANCH   1  10
ATOM     10  C   UNL     1       1.898   8.205  19.201  0.00  0.00    +0.000 A 
ATOM     11  C   UNL     1       1.301   8.478  20.446  0.00  0.00    +0.000 A 
ATOM     12  C   UNL     1       0.297   9.443  20.565  0.00  0.00    +0.000 A 
ATOM     13  C   UNL     1      -0.111  10.158  19.444  0.00  0.00    +0.000 A 
ATOM     14 CL   UNL     1      -1.390  11.301  19.574  0.00  0.00    +0.000 Cl
ATOM     15  C   UNL     1       0.501   9.943  18.213  0.00  0.00    +0.000 A 
ATOM     16  C   UNL     1       1.509   8.980  18.095  0.00  0.00    +0.000 A 
ENDBRANCH   1  10
BRANCH   1  17
ATOM     17  N   UNL     1       3.802   7.266  17.976  0.00  0.00    +0.000 N 
ATOM     18  C   UNL     1       5.057   6.695  17.923  0.00  0.00    +0.000 C 
ATOM     19  O   UNL     1       5.513   5.981  18.812  0.00  0.00    +0.000 OA
ATOM     20  H   UNL     1       3.509   7.877  17.222  0.00  0.00    +0.000 HD
BRANCH  18  21
ATOM     21  C   UNL     1       5.803   6.965  16.614  0.00  0.00    +0.000 C 
ATOM     22  C   UNL     1       5.124   6.325  15.422  0.00  0.00    +0.000 C 
ATOM     23  N   UNL     1       5.836   5.097  15.316  0.00  0.00    +0.000 N 
ATOM     24  C   UNL     1       7.034   5.188  15.962  0.00  0.00    +0.000 C 
ATOM     25  O   UNL     1       7.923   4.357  15.927  0.00  0.00    +0.000 OA
ATOM     26  O   UNL     1       7.107   6.370  16.644  0.00  0.00    +0.000 OA
ATOM     27  H   UNL     1       5.666   4.352  14.651  0.00  0.00    +0.000 HD
ENDBRANCH  18  21
ENDBRANCH   1  17
TORSDOF 4
ENDMDL
MODEL 4
REMARK VINA RESULT:      -8.0      3.143      4.904
REMARK  Name = 
REMARK  5 active torsions:
REMARK  status: ('A' for Active; 'I' for Inactive)
REMARK    1  A    between atoms: C_1  and  C_2
REMARK    2  A    between atoms: C_4  and  C_5
REMARK    3  A    between atoms: C_5  and  N_6
REMARK    4  A    between atoms: C_5  and  C_15
REMARK    5  A    between atoms: C_7  and  C_9
REMARK                            x       y       z     vdW  Elec       q    Type
REMARK                         _______ _______ _______ _____ _____    ______ ____
ROOT
ATOM      1  C   UNL     1       4.118   5.880  18.962  0.00  0.00    +0.000 C 
ENDROOT
BRANCH   1   5
ATOM      2  C   UNL     1       0.444   8.582  21.211  0.00  0.00    +0.000 C 
ATOM      3  C   UNL     1       1.344   8.356  20.030  0.00  0.00    +0.000 A 
ATOM      4  C   UNL     1       2.288   7.314  20.068  0.00  0.00    +0.000 A 
ATOM      5  C   UNL     1       3.127   7.043  18.971  0.00  0.00    +0.000 A 
ATOM      6  C   UNL     1       3.001   7.837  17.820  0.00  0.00    +0.000 A 
ATOM      7  C   UNL     1       2.085   8.888  17.777  0.00  0.00    +0.000 A 
ATOM      8  C   UNL     1       1.266   9.150  18.877  0.00  0.00    +0.000 A 
ATOM      9 CL   UNL     1       0.159  10.470  18.761  0.00  0.00    +0.000 Cl
ENDBRANCH   1   5
BRANCH   1  10
ATOM     10  C   UNL     1       4.955   5.783  17.687  0.00  0.00    +0.000 A 
ATOM     11  C   UNL     1       4.441   5.068  16.590  0.00  0.00    +0.000 A 
ATOM     12  C   UNL     1       5.209   4.870  15.437  0.00  0.00    +0.000 A 
ATOM     13  C   UNL     1       6.493   5.400  15.364  0.00  0.00    +0.000 A 
ATOM     14 CL   UNL     1       7.463   5.106  13.974  0.00  0.00    +0.000 Cl
ATOM     15  C   UNL     1       7.002   6.155  16.415  0.00  0.00    +0.000 A 
ATOM     16  C   UNL     1       6.233   6.356  17.566  0.00  0.00    +0.000 A 
ENDBRANCH   1  10
BRANCH   1  17
ATOM     17  N   UNL     1       3.478   4.613  19.256  0.00  0.00    +0.000 N 
ATOM     18  C   UNL     1       4.204   3.485  19.581  0.00  0.00    +0.000 C 
ATOM     19  O   UNL     1       5.429   3.466  19.652  0.00  0.00    +0.000 OA
ATOM     20  H   UNL     1       2.470   4.542  19.177  0.00  0.00    +0.000 HD
BRANCH  18  21
ATOM     21  C   UNL     1       3.336   2.273  19.929  0.00  0.00    +0.000 C 
ATOM     22  C   UNL     1       3.377   1.209  18.853  0.00  0.00    +0.000 C 
ATOM     23  N   UNL     1       2.222   1.536  18.087  0.00  0.00    +0.000 N 
ATOM     24  C   UNL     1       1.367   2.300  18.825  0.00  0.00    +0.000 C 
ATOM     25  O   UNL     1       0.236   2.615  18.499  0.00  0.00    +0.000 OA
ATOM     26  O   UNL     1       1.955   2.647  20.009  0.00  0.00    +0.000 OA
ATOM     27  H   UNL     1       1.903   1.075  17.243  0.00  0.00    +0.000 HD
ENDBRANCH  18  21
ENDBRANCH   1  17
TORSDOF 4
ENDMDL
MODEL 5
REMARK VINA RESULT:      -8.0      3.400      5.246
REMARK  Name = 
REMARK  5 active torsions:
REMARK  status: ('A' for Active; 'I' for Inactive)
REMARK    1  A    between atoms: C_1  and  C_2
REMARK    2  A    between atoms: C_4  and  C_5
REMARK    3  A    between atoms: C_5  and  N_6
REMARK    4  A    between atoms: C_5  and  C_15
REMARK    5  A    between atoms: C_7  and  C_9
REMARK                            x       y       z     vdW  Elec       q    Type
REMARK                         _______ _______ _______ _____ _____    ______ ____
ROOT
ATOM      1  C   UNL     1       4.057   5.465  18.757  0.00  0.00    +0.000 C 
ENDROOT
BRANCH   1   5
ATOM      2  C   UNL     1       0.790   8.644  21.010  0.00  0.00    +0.000 C 
ATOM      3  C   UNL     1       1.648   8.296  19.827  0.00  0.00    +0.000 A 
ATOM      4  C   UNL     1       2.441   7.136  19.865  0.00  0.00    +0.000 A 
ATOM      5  C   UNL     1       3.233   6.752  18.766  0.00  0.00    +0.000 A 
ATOM      6  C   UNL     1       3.213   7.554  17.614  0.00  0.00    +0.000 A 
ATOM      7  C   UNL     1       2.447   8.719  17.571  0.00  0.00    +0.000 A 
ATOM      8  C   UNL     1       1.674   9.091  18.672  0.00  0.00    +0.000 A 
ATOM      9 CL   UNL     1       0.755  10.549  18.556  0.00  0.00    +0.000 Cl
ENDBRANCH   1   5
BRANCH   1  10
ATOM     10  C   UNL     1       4.935   5.295  17.519  0.00  0.00    +0.000 A 
ATOM     11  C   UNL     1       6.205   5.901  17.498  0.00  0.00    +0.000 A 
ATOM     12  C   UNL     1       7.005   5.855  16.352  0.00  0.00    +0.000 A 
ATOM     13  C   UNL     1       6.551   5.189  15.219  0.00  0.00    +0.000 A 
ATOM     14 CL   UNL     1       7.505   5.184  13.788  0.00  0.00    +0.000 Cl
ATOM     15  C   UNL     1       5.322   4.538  15.233  0.00  0.00    +0.000 A 
ATOM     16  C   UNL     1       4.523   4.581  16.381  0.00  0.00    +0.000 A 
ENDBRANCH   1  10
BRANCH   1  17
ATOM     17  N   UNL     1       3.239   4.289  18.974  0.00  0.00    +0.000 N 
ATOM     18  C   UNL     1       3.752   3.131  19.521  0.00  0.00    +0.000 C 
ATOM     19  O   UNL     1       4.923   3.008  19.867  0.00  0.00    +0.000 OA
ATOM     20  H   UNL     1       2.270   4.302  18.674  0.00  0.00    +0.000 HD
BRANCH  18  21
ATOM     21  C   UNL     1       2.707   2.033  19.735  0.00  0.00    +0.000 C 
ATOM     22  C   UNL     1       1.341   2.432  19.218  0.00  0.00    +0.000 C 
ATOM     23  N   UNL     1       0.727   2.938  20.398  0.00  0.00    +0.000 N 
ATOM     24  C   UNL     1       1.374   2.471  21.504  0.00  0.00    +0.000 C 
ATOM     25  O   UNL     1       1.000   2.609  22.655  0.00  0.00    +0.000 OA
ATOM     26  O   UNL     1       2.503   1.796  21.133  0.00  0.00    +0.000 OA
ATOM     27  H   UNL     1      -0.199   3.341  20.476  0.00  0.00    +0.000 HD
ENDBRANCH  18  21
ENDBRANCH   1  17
TORSDOF 4
ENDMDL
MODEL 6
REMARK VINA RESULT:      -8.0      1.263      1.867
REMARK  Name = 
REMARK  5 active torsions:
REMARK  status: ('A' for Active; 'I' for Inactive)
REMARK    1  A    between atoms: C_1  and  C_2
REMARK    2  A    between atoms: C_4  and  C_5
REMARK    3  A    between atoms: C_5  and  N_6
REMARK    4  A    between atoms: C_5  and  C_15
REMARK    5  A    between atoms: C_7  and  C_9
REMARK                            x       y       z     vdW  Elec       q    Type
REMARK                         _______ _______ _______ _____ _____    ______ ____
ROOT
ATOM      1  C   UNL     1       2.850   5.959  18.447  0.00  0.00    +0.000 C 
ENDROOT
BRANCH   1   5
ATOM      2  C   UNL     1       0.543   9.510  21.261  0.00  0.00    +0.000 C 
ATOM      3  C   UNL     1       1.233   9.118  19.985  0.00  0.00    +0.000 A 
ATOM      4  C   UNL     1       1.733   7.811  19.843  0.00  0.00    +0.000 A 
ATOM      5  C   UNL     1       2.354   7.389  18.652  0.00  0.00    +0.000 A 
ATOM      6  C   UNL     1       2.464   8.305  17.594  0.00  0.00    +0.000 A 
ATOM      7  C   UNL     1       1.994   9.611  17.731  0.00  0.00    +0.000 A 
ATOM      8  C   UNL     1       1.387  10.017  18.921  0.00  0.00    +0.000 A 
ATOM      9 CL   UNL     1       0.833  11.650  19.027  0.00  0.00    +0.000 Cl
ENDBRANCH   1   5
BRANCH   1  10
ATOM     10  C   UNL     1       2.280   4.952  19.444  0.00  0.00    +0.000 A 
ATOM     11  C   UNL     1       2.792   4.929  20.755  0.00  0.00    +0.000 A 
ATOM     12  C   UNL     1       2.372   3.963  21.674  0.00  0.00    +0.000 A 
ATOM     13  C   UNL     1       1.421   3.019  21.299  0.00  0.00    +0.000 A 
ATOM     14 CL   UNL     1       0.948   1.792  22.407  0.00  0.00    +0.000 Cl
ATOM     15  C   UNL     1       0.862   3.055  20.025  0.00  0.00    +0.000 A 
ATOM     16  C   UNL     1       1.281   4.023  19.107  0.00  0.00    +0.000 A 
ENDBRANCH   1  10
BRANCH   1  17
ATOM     17  N   UNL     1       4.297   5.882  18.406  0.00  0.00    +0.000 N 
ATOM     18  C   UNL     1       4.957   4.817  17.826  0.00  0.00    +0.000 C 
ATOM     19  O   UNL     1       4.380   3.869  17.302  0.00  0.00    +0.000 OA
ATOM     20  H   UNL     1       4.840   6.610  18.855  0.00  0.00    +0.000 HD
BRANCH  18  21
ATOM     21  C   UNL     1       6.480   4.965  17.821  0.00  0.00    +0.000 C 
ATOM     22  C   UNL     1       6.917   6.413  17.754  0.00  0.00    +0.000 C 
ATOM     23  N   UNL     1       7.119   6.585  16.356  0.00  0.00    +0.000 N 
ATOM     24  C   UNL     1       7.281   5.375  15.750  0.00  0.00    +0.000 C 
ATOM     25  O   UNL     1       7.613   5.201  14.591  0.00  0.00    +0.000 OA
ATOM     26  O   UNL     1       7.041   4.369  16.644  0.00  0.00    +0.000 OA
ATOM     27  H   UNL     1       7.390   7.439  15.882  0.00  0.00    +0.000 HD
ENDBRANCH  18  21
ENDBRANCH   1  17
TORSDOF 4
ENDMDL
MODEL 7
REMARK VINA RESULT:      -7.9      0.805      1.279
REMARK  Name = 
REMARK  5 active torsions:
REMARK  status: ('A' for Active; 'I' for Inactive)
REMARK    1  A    between atoms: C_1  and  C_2
REMARK    2  A    between atoms: C_4  and  C_5
REMARK    3  A    between atoms: C_5  and  N_6
REMARK    4  A    between atoms: C_5  and  C_15
REMARK    5  A    between atoms: C_7  and  C_9
REMARK                            x       y       z     vdW  Elec       q    Type
REMARK                         _______ _______ _______ _____ _____    ______ ____
ROOT
ATOM      1  C   UNL     1       2.965   6.625  17.815  0.00  0.00    +0.000 C 
ENDROOT
BRANCH   1   5
ATOM      2  C   UNL     1       0.795   8.893  21.815  0.00  0.00    +0.000 C 
ATOM      3  C   UNL     1       1.273   8.961  20.392  0.00  0.00    +0.000 A 
ATOM      4  C   UNL     1       1.903   7.841  19.820  0.00  0.00    +0.000 A 
ATOM      5  C   UNL     1       2.334   7.847  18.480  0.00  0.00    +0.000 A 
ATOM      6  C   UNL     1       2.119   9.003  17.713  0.00  0.00    +0.000 A 
ATOM      7  C   UNL     1       1.516  10.128  18.275  0.00  0.00    +0.000 A 
ATOM      8  C   UNL     1       1.101  10.110  19.608  0.00  0.00    +0.000 A 
ATOM      9 CL   UNL     1       0.368  11.539  20.244  0.00  0.00    +0.000 Cl
ENDBRANCH   1   5
BRANCH   1  10
ATOM     10  C   UNL     1       2.481   5.290  18.376  0.00  0.00    +0.000 A 
ATOM     11  C   UNL     1       3.013   4.832  19.596  0.00  0.00    +0.000 A 
ATOM     12  C   UNL     1       2.674   3.573  20.102  0.00  0.00    +0.000 A 
ATOM     13  C   UNL     1       1.785   2.764  19.401  0.00  0.00    +0.000 A 
ATOM     14 CL   UNL     1       1.414   1.190  19.988  0.00  0.00    +0.000 Cl
ATOM     15  C   UNL     1       1.206   3.217  18.221  0.00  0.00    +0.000 A 
ATOM     16  C   UNL     1       1.542   4.478  17.717  0.00  0.00    +0.000 A 
ENDBRANCH   1  10
BRANCH   1  17
ATOM     17  N   UNL     1       4.413   6.689  17.812  0.00  0.00    +0.000 N 
ATOM     18  C   UNL     1       5.178   5.916  16.963  0.00  0.00    +0.000 C 
ATOM     19  O   UNL     1       4.701   5.129  16.151  0.00  0.00    +0.000 OA
ATOM     20  H   UNL     1       4.879   7.287  18.484  0.00  0.00    +0.000 HD
BRANCH  18  21
ATOM     21  C   UNL     1       6.681   6.189  17.066  0.00  0.00    +0.000 C 
ATOM     22  C   UNL     1       7.509   4.949  16.806  0.00  0.00    +0.000 C 
ATOM     23  N   UNL     1       7.731   4.473  18.130  0.00  0.00    +0.000 N 
ATOM     24  C   UNL     1       7.534   5.476  19.031  0.00  0.00    +0.000 C 
ATOM     25  O   UNL     1       7.786   5.419  20.222  0.00  0.00    +0.000 OA
ATOM     26  O   UNL     1       7.032   6.580  18.400  0.00  0.00    +0.000 OA
ATOM     27  H   UNL     1       8.226   3.630  18.397  0.00  0.00    +0.000 HD
ENDBRANCH  18  21
ENDBRANCH   1  17
TORSDOF 4
ENDMDL
MODEL 8
REMARK VINA RESULT:      -7.9      1.589      5.206
REMARK  Name = 
REMARK  5 active torsions:
REMARK  status: ('A' for Active; 'I' for Inactive)
REMARK    1  A    between atoms: C_1  and  C_2
REMARK    2  A    between atoms: C_4  and  C_5
REMARK    3  A    between atoms: C_5  and  N_6
REMARK    4  A    between atoms: C_5  and  C_15
REMARK    5  A    between atoms: C_7  and  C_9
REMARK                            x       y       z     vdW  Elec       q    Type
REMARK                         _______ _______ _______ _____ _____    ______ ____
ROOT
ATOM      1  C   UNL     1       3.098   6.804  19.119  0.00  0.00    +0.000 C 
ENDROOT
BRANCH   1   5
ATOM      2  C   UNL     1       1.482   2.658  21.580  0.00  0.00    +0.000 C 
ATOM      3  C   UNL     1       1.648   3.416  20.293  0.00  0.00    +0.000 A 
ATOM      4  C   UNL     1       2.218   4.701  20.315  0.00  0.00    +0.000 A 
ATOM      5  C   UNL     1       2.425   5.433  19.131  0.00  0.00    +0.000 A 
ATOM      6  C   UNL     1       2.052   4.849  17.910  0.00  0.00    +0.000 A 
ATOM      7  C   UNL     1       1.465   3.584  17.875  0.00  0.00    +0.000 A 
ATOM      8  C   UNL     1       1.258   2.874  19.059  0.00  0.00    +0.000 A 
ATOM      9 CL   UNL     1       0.520   1.317  18.947  0.00  0.00    +0.000 Cl
ENDBRANCH   1   5
BRANCH   1  10
ATOM     10  C   UNL     1       2.121   7.979  19.141  0.00  0.00    +0.000 A 
ATOM     11  C   UNL     1       1.893   8.696  17.952  0.00  0.00    +0.000 A 
ATOM     12  C   UNL     1       1.083   9.835  17.943  0.00  0.00    +0.000 A 
ATOM     13  C   UNL     1       0.477  10.262  19.121  0.00  0.00    +0.000 A 
ATOM     14 CL   UNL     1      -0.469  11.698  19.127  0.00  0.00    +0.000 Cl
ATOM     15  C   UNL     1       0.645   9.539  20.298  0.00  0.00    +0.000 A 
ATOM     16  C   UNL     1       1.453   8.397  20.305  0.00  0.00    +0.000 A 
ENDBRANCH   1  10
BRANCH   1  17
ATOM     17  N   UNL     1       4.044   6.942  18.030  0.00  0.00    +0.000 N 
ATOM     18  C   UNL     1       5.283   6.335  18.057  0.00  0.00    +0.000 C 
ATOM     19  O   UNL     1       5.675   5.638  18.988  0.00  0.00    +0.000 OA
ATOM     20  H   UNL     1       3.806   7.537  17.245  0.00  0.00    +0.000 HD
BRANCH  18  21
ATOM     21  C   UNL     1       6.099   6.543  16.778  0.00  0.00    +0.000 C 
ATOM     22  C   UNL     1       5.221   6.681  15.552  0.00  0.00    +0.000 C 
ATOM     23  N   UNL     1       5.208   5.346  15.061  0.00  0.00    +0.000 N 
ATOM     24  C   UNL     1       6.264   4.646  15.565  0.00  0.00    +0.000 C 
ATOM     25  O   UNL     1       6.604   3.528  15.220  0.00  0.00    +0.000 OA
ATOM     26  O   UNL     1       6.913   5.395  16.507  0.00  0.00    +0.000 OA
ATOM     27  H   UNL     1       4.698   5.000  14.256  0.00  0.00    +0.000 HD
ENDBRANCH  18  21
ENDBRANCH   1  17
TORSDOF 4
ENDMDL
MODEL 9
REMARK VINA RESULT:      -7.9      1.400      1.738
REMARK  Name = 
REMARK  5 active torsions:
REMARK  status: ('A' for Active; 'I' for Inactive)
REMARK    1  A    between atoms: C_1  and  C_2
REMARK    2  A    between atoms: C_4  and  C_5
REMARK    3  A    between atoms: C_5  and  N_6
REMARK    4  A    between atoms: C_5  and  C_15
REMARK    5  A    between atoms: C_7  and  C_9
REMARK                            x       y       z     vdW  Elec       q    Type
REMARK                         _______ _______ _______ _____ _____    ______ ____
ROOT
ATOM      1  C   UNL     1       3.052   5.565  18.496  0.00  0.00    +0.000 C 
ENDROOT
BRANCH   1   5
ATOM      2  C   UNL     1       0.888   9.121  21.417  0.00  0.00    +0.000 C 
ATOM      3  C   UNL     1       1.470   8.713  20.093  0.00  0.00    +0.000 A 
ATOM      4  C   UNL     1       2.002   7.420  19.940  0.00  0.00    +0.000 A 
ATOM      5  C   UNL     1       2.524   6.983  18.708  0.00  0.00    +0.000 A 
ATOM      6  C   UNL     1       2.501   7.869  17.619  0.00  0.00    +0.000 A 
ATOM      7  C   UNL     1       1.996   9.162  17.764  0.00  0.00    +0.000 A 
ATOM      8  C   UNL     1       1.489   9.584  18.994  0.00  0.00    +0.000 A 
ATOM      9 CL   UNL     1       0.887  11.198  19.107  0.00  0.00    +0.000 Cl
ENDBRANCH   1   5
BRANCH   1  10
ATOM     10  C   UNL     1       2.539   4.550  19.515  0.00  0.00    +0.000 A 
ATOM     11  C   UNL     1       1.236   4.038  19.368  0.00  0.00    +0.000 A 
ATOM     12  C   UNL     1       0.687   3.181  20.327  0.00  0.00    +0.000 A 
ATOM     13  C   UNL     1       1.441   2.813  21.437  0.00  0.00    +0.000 A 
ATOM     14 CL   UNL     1       0.748   1.810  22.650  0.00  0.00    +0.000 Cl
ATOM     15  C   UNL     1       2.750   3.264  21.577  0.00  0.00    +0.000 A 
ATOM     16  C   UNL     1       3.300   4.118  20.615  0.00  0.00    +0.000 A 
ENDBRANCH   1  10
BRANCH   1  17
ATOM     17  N   UNL     1       4.498   5.526  18.413  0.00  0.00    +0.000 N 
ATOM     18  C   UNL     1       5.162   4.580  17.659  0.00  0.00    +0.000 C 
ATOM     19  O   UNL     1       4.590   3.713  17.005  0.00  0.00    +0.000 OA
ATOM     20  H   UNL     1       5.039   6.186  18.959  0.00  0.00    +0.000 HD
BRANCH  18  21
ATOM     21  C   UNL     1       6.683   4.759  17.645  0.00  0.00    +0.000 C 
ATOM     22  C   UNL     1       7.090   6.216  17.682  0.00  0.00    +0.000 C 
ATOM     23  N   UNL     1       7.267   6.497  16.297  0.00  0.00    +0.000 N 
ATOM     24  C   UNL     1       7.445   5.338  15.600  0.00  0.00    +0.000 C 
ATOM     25  O   UNL     1       7.762   5.259  14.427  0.00  0.00    +0.000 OA
ATOM     26  O   UNL     1       7.237   4.264  16.419  0.00  0.00    +0.000 OA
ATOM     27  H   UNL     1       7.515   7.388  15.885  0.00  0.00    +0.000 HD
ENDBRANCH  18  21
ENDBRANCH   1  17
TORSDOF 4
ENDMDL
