MODEL 1
REMARK VINA RESULT:      -7.0      0.000      0.000
REMARK  Name = 
REMARK  5 active torsions:
REMARK  status: ('A' for Active; 'I' for Inactive)
REMARK    1  A    between atoms: C_1  and  C_2
REMARK    2  A    between atoms: C_2  and  C_3
REMARK    3  A    between atoms: N_5  and  C_6
REMARK    4  A    between atoms: C_9  and  C_10
REMARK    5  A    between atoms: C_14  and  C_15
REMARK                            x       y       z     vdW  Elec       q    Type
REMARK                         _______ _______ _______ _____ _____    ______ ____
ROOT
ATOM      1  C   UNL     1       2.906   6.815  18.414  0.00  0.00    +0.000 A 
ATOM      2  N   UNL     1       2.387   7.691  19.280  0.00  0.00    +0.000 NA
ATOM      3  N   UNL     1       1.874   6.923  20.258  0.00  0.00    +0.000 N 
ATOM      4  C   UNL     1       1.053   7.536  21.272  0.00  0.00    +0.000 C 
ATOM      5  C   UNL     1       2.095   5.580  20.072  0.00  0.00    +0.000 A 
ATOM      6  C   UNL     1       2.836   5.474  18.906  0.00  0.00    +0.000 A 
ATOM      7  C   UNL     1       3.374   4.243  18.339  0.00  0.00    +0.000 C 
ATOM      8  N   UNL     1       2.744   3.114  18.368  0.00  0.00    +0.000 NA
ATOM      9  C   UNL     1       1.418   3.028  18.988  0.00  0.00    +0.000 C 
ATOM     10  C   UNL     1       1.486   3.235  20.508  0.00  0.00    +0.000 C 
ATOM     11  N   UNL     1       1.587   4.638  20.904  0.00  0.00    +0.000 N 
ATOM     12  H   UNL     1       1.384   4.830  21.881  0.00  0.00    +0.000 HD
ENDROOT
BRANCH   7  13
ATOM     13  C   UNL     1       4.724   4.279  17.689  0.00  0.00    +0.000 A 
ATOM     14  C   UNL     1       5.894   4.514  18.424  0.00  0.00    +0.000 A 
ATOM     15  C   UNL     1       7.127   4.587  17.772  0.00  0.00    +0.000 A 
ATOM     16  C   UNL     1       7.203   4.398  16.391  0.00  0.00    +0.000 A 
ATOM     17  C   UNL     1       6.050   4.121  15.650  0.00  0.00    +0.000 A 
ATOM     18  C   UNL     1       6.113   3.910  14.167  0.00  0.00    +0.000 C 
ATOM     19  C   UNL     1       4.814   4.060  16.308  0.00  0.00    +0.000 A 
ENDBRANCH   7  13
BRANCH   1  21
ATOM     20  C   UNL     1       4.926   7.617  17.126  0.00  0.00    +0.000 C 
ATOM     21  C   UNL     1       3.439   7.290  17.098  0.00  0.00    +0.000 C 
ENDBRANCH   1  21
TORSDOF 2
ENDMDL
MODEL 2
REMARK VINA RESULT:      -6.7      1.947      5.592
REMARK  Name = 
REMARK  5 active torsions:
REMARK  status: ('A' for Active; 'I' for Inactive)
REMARK    1  A    between atoms: C_1  and  C_2
REMARK    2  A    between atoms: C_2  and  C_3
REMARK    3  A    between atoms: N_5  and  C_6
REMARK    4  A    between atoms: C_9  and  C_10
REMARK    5  A    between atoms: C_14  and  C_15
REMARK                            x       y       z     vdW  Elec       q    Type
REMARK                         _______ _______ _______ _____ _____    ______ ____
ROOT
ATOM      1  C   UNL     1       2.667   3.957  19.220  0.00  0.00    +0.000 A 
ATOM      2  N   UNL     1       3.023   2.894  19.947  0.00  0.00    +0.000 NA
ATOM      3  N   UNL     1       4.363   2.858  19.845  0.00  0.00    +0.000 N 
ATOM      4  C   UNL     1       5.074   1.709  20.350  0.00  0.00    +0.000 C 
ATOM      5  C   UNL     1       4.884   3.898  19.114  0.00  0.00    +0.000 A 
ATOM      6  C   UNL     1       3.804   4.685  18.748  0.00  0.00    +0.000 A 
ATOM      7  C   UNL     1       3.868   5.947  18.021  0.00  0.00    +0.000 C 
ATOM      8  N   UNL     1       4.710   6.174  17.065  0.00  0.00    +0.000 NA
ATOM      9  C   UNL     1       5.659   5.131  16.660  0.00  0.00    +0.000 C 
ATOM     10  C   UNL     1       6.699   4.853  17.754  0.00  0.00    +0.000 C 
ATOM     11  N   UNL     1       6.206   3.994  18.828  0.00  0.00    +0.000 N 
ATOM     12  H   UNL     1       6.921   3.589  19.425  0.00  0.00    +0.000 HD
ENDROOT
BRANCH   7  13
ATOM     13  C   UNL     1       2.916   7.042  18.393  0.00  0.00    +0.000 A 
ATOM     14  C   UNL     1       2.429   7.955  17.448  0.00  0.00    +0.000 A 
ATOM     15  C   UNL     1       1.582   8.992  17.847  0.00  0.00    +0.000 A 
ATOM     16  C   UNL     1       1.193   9.105  19.183  0.00  0.00    +0.000 A 
ATOM     17  C   UNL     1       1.637   8.177  20.131  0.00  0.00    +0.000 A 
ATOM     18  C   UNL     1       1.226   8.281  21.569  0.00  0.00    +0.000 C 
ATOM     19  C   UNL     1       2.497   7.147  19.726  0.00  0.00    +0.000 A 
ENDBRANCH   7  13
BRANCH   1  21
ATOM     20  C   UNL     1       0.344   2.992  18.987  0.00  0.00    +0.000 C 
ATOM     21  C   UNL     1       1.219   4.238  18.963  0.00  0.00    +0.000 C 
ENDBRANCH   1  21
TORSDOF 2
ENDMDL
MODEL 3
REMARK VINA RESULT:      -6.4      1.873      3.107
REMARK  Name = 
REMARK  5 active torsions:
REMARK  status: ('A' for Active; 'I' for Inactive)
REMARK    1  A    between atoms: C_1  and  C_2
REMARK    2  A    between atoms: C_2  and  C_3
REMARK    3  A    between atoms: N_5  and  C_6
REMARK    4  A    between atoms: C_9  and  C_10
REMARK    5  A    between atoms: C_14  and  C_15
REMARK                            x       y       z     vdW  Elec       q    Type
REMARK                         _______ _______ _______ _____ _____    ______ ____
ROOT
ATOM      1  C   UNL     1       2.767   5.451  19.910  0.00  0.00    +0.000 A 
ATOM      2  N   UNL     1       2.098   5.031  20.988  0.00  0.00    +0.000 NA
ATOM      3  N   UNL     1       2.020   3.697  20.830  0.00  0.00    +0.000 N 
ATOM      4  C   UNL     1       1.182   2.934  21.720  0.00  0.00    +0.000 C 
ATOM      5  C   UNL     1       2.666   3.243  19.706  0.00  0.00    +0.000 A 
ATOM      6  C   UNL     1       3.234   4.359  19.114  0.00  0.00    +0.000 A 
ATOM      7  C   UNL     1       4.084   4.365  17.929  0.00  0.00    +0.000 C 
ATOM      8  N   UNL     1       3.895   3.583  16.916  0.00  0.00    +0.000 NA
ATOM      9  C   UNL     1       2.777   2.633  16.920  0.00  0.00    +0.000 C 
ATOM     10  C   UNL     1       2.974   1.528  17.967  0.00  0.00    +0.000 C 
ATOM     11  N   UNL     1       2.633   1.941  19.327  0.00  0.00    +0.000 N 
ATOM     12  H   UNL     1       2.510   1.185  19.993  0.00  0.00    +0.000 HD
ENDROOT
BRANCH   7  13
ATOM     13  C   UNL     1       5.237   5.320  17.874  0.00  0.00    +0.000 A 
ATOM     14  C   UNL     1       5.308   6.342  16.918  0.00  0.00    +0.000 A 
ATOM     15  C   UNL     1       6.425   7.180  16.871  0.00  0.00    +0.000 A 
ATOM     16  C   UNL     1       7.460   7.022  17.793  0.00  0.00    +0.000 A 
ATOM     17  C   UNL     1       7.384   6.034  18.780  0.00  0.00    +0.000 A 
ATOM     18  C   UNL     1       8.485   5.853  19.782  0.00  0.00    +0.000 C 
ATOM     19  C   UNL     1       6.267   5.188  18.815  0.00  0.00    +0.000 A 
ENDBRANCH   7  13
BRANCH   1  21
ATOM     20  C   UNL     1       2.172   7.395  18.410  0.00  0.00    +0.000 C 
ATOM     21  C   UNL     1       2.919   6.917  19.648  0.00  0.00    +0.000 C 
ENDBRANCH   1  21
TORSDOF 2
ENDMDL
MODEL 4
REMARK VINA RESULT:      -6.4      0.742      1.796
REMARK  Name = 
REMARK  5 active torsions:
REMARK  status: ('A' for Active; 'I' for Inactive)
REMARK    1  A    between atoms: C_1  and  C_2
REMARK    2  A    between atoms: C_2  and  C_3
REMARK    3  A    between atoms: N_5  and  C_6
REMARK    4  A    between atoms: C_9  and  C_10
REMARK    5  A    between atoms: C_14  and  C_15
REMARK                            x       y       z     vdW  Elec       q    Type
REMARK                         _______ _______ _______ _____ _____    ______ ____
ROOT
ATOM      1  C   UNL     1       2.694   6.939  18.811  0.00  0.00    +0.000 A 
ATOM      2  N   UNL     1       2.115   7.704  19.741  0.00  0.00    +0.000 NA
ATOM      3  N   UNL     1       1.566   6.824  20.597  0.00  0.00    +0.000 N 
ATOM      4  C   UNL     1       0.682   7.309  21.629  0.00  0.00    +0.000 C 
ATOM      5  C   UNL     1       1.819   5.514  20.272  0.00  0.00    +0.000 A 
ATOM      6  C   UNL     1       2.621   5.550  19.143  0.00  0.00    +0.000 A 
ATOM      7  C   UNL     1       3.209   4.398  18.470  0.00  0.00    +0.000 C 
ATOM      8  N   UNL     1       2.598   3.265  18.337  0.00  0.00    +0.000 NA
ATOM      9  C   UNL     1       1.243   3.095  18.871  0.00  0.00    +0.000 C 
ATOM     10  C   UNL     1       1.229   3.128  20.407  0.00  0.00    +0.000 C 
ATOM     11  N   UNL     1       1.284   4.478  20.964  0.00  0.00    +0.000 N 
ATOM     12  H   UNL     1       1.028   4.555  21.944  0.00  0.00    +0.000 HD
ENDROOT
BRANCH   7  13
ATOM     13  C   UNL     1       4.590   4.522  17.902  0.00  0.00    +0.000 A 
ATOM     14  C   UNL     1       4.888   4.139  16.587  0.00  0.00    +0.000 A 
ATOM     15  C   UNL     1       6.199   4.225  16.113  0.00  0.00    +0.000 A 
ATOM     16  C   UNL     1       7.212   4.720  16.936  0.00  0.00    +0.000 A 
ATOM     17  C   UNL     1       6.922   5.145  18.237  0.00  0.00    +0.000 A 
ATOM     18  C   UNL     1       7.997   5.684  19.134  0.00  0.00    +0.000 C 
ATOM     19  C   UNL     1       5.607   5.045  18.711  0.00  0.00    +0.000 A 
ENDBRANCH   7  13
BRANCH   1  21
ATOM     20  C   UNL     1       2.789   8.983  17.329  0.00  0.00    +0.000 C 
ATOM     21  C   UNL     1       3.286   7.566  17.587  0.00  0.00    +0.000 C 
ENDBRANCH   1  21
TORSDOF 2
ENDMDL
MODEL 5
REMARK VINA RESULT:      -6.4      2.100      5.374
REMARK  Name = 
REMARK  5 active torsions:
REMARK  status: ('A' for Active; 'I' for Inactive)
REMARK    1  A    between atoms: C_1  and  C_2
REMARK    2  A    between atoms: C_2  and  C_3
REMARK    3  A    between atoms: N_5  and  C_6
REMARK    4  A    between atoms: C_9  and  C_10
REMARK    5  A    between atoms: C_14  and  C_15
REMARK                            x       y       z     vdW  Elec       q    Type
REMARK                         _______ _______ _______ _____ _____    ______ ____
ROOT
ATOM      1  C   UNL     1       5.503   6.285  16.939  0.00  0.00    +0.000 A 
ATOM      2  N   UNL     1       6.138   5.834  15.854  0.00  0.00    +0.000 NA
ATOM      3  N   UNL     1       5.734   4.556  15.742  0.00  0.00    +0.000 N 
ATOM      4  C   UNL     1       6.383   3.697  14.783  0.00  0.00    +0.000 C 
ATOM      5  C   UNL     1       4.815   4.188  16.695  0.00  0.00    +0.000 A 
ATOM      6  C   UNL     1       4.582   5.321  17.457  0.00  0.00    +0.000 A 
ATOM      7  C   UNL     1       3.622   5.440  18.548  0.00  0.00    +0.000 C 
ATOM      8  N   UNL     1       3.384   4.488  19.391  0.00  0.00    +0.000 NA
ATOM      9  C   UNL     1       4.101   3.213  19.281  0.00  0.00    +0.000 C 
ATOM     10  C   UNL     1       3.694   2.440  18.017  0.00  0.00    +0.000 C 
ATOM     11  N   UNL     1       4.349   2.919  16.802  0.00  0.00    +0.000 N 
ATOM     12  H   UNL     1       4.303   2.289  16.006  0.00  0.00    +0.000 HD
ENDROOT
BRANCH   7  13
ATOM     13  C   UNL     1       2.867   6.724  18.707  0.00  0.00    +0.000 A 
ATOM     14  C   UNL     1       2.658   7.600  17.633  0.00  0.00    +0.000 A 
ATOM     15  C   UNL     1       1.992   8.810  17.835  0.00  0.00    +0.000 A 
ATOM     16  C   UNL     1       1.505   9.141  19.101  0.00  0.00    +0.000 A 
ATOM     17  C   UNL     1       1.669   8.258  20.174  0.00  0.00    +0.000 A 
ATOM     18  C   UNL     1       1.149   8.594  21.540  0.00  0.00    +0.000 C 
ATOM     19  C   UNL     1       2.349   7.050  19.967  0.00  0.00    +0.000 A 
ENDBRANCH   7  13
BRANCH   1  21
ATOM     20  C   UNL     1       7.314   7.936  17.552  0.00  0.00    +0.000 C 
ATOM     21  C   UNL     1       5.821   7.643  17.483  0.00  0.00    +0.000 C 
ENDBRANCH   1  21
TORSDOF 2
ENDMDL
MODEL 6
REMARK VINA RESULT:      -6.3      2.042      5.519
REMARK  Name = 
REMARK  5 active torsions:
REMARK  status: ('A' for Active; 'I' for Inactive)
REMARK    1  A    between atoms: C_1  and  C_2
REMARK    2  A    between atoms: C_2  and  C_3
REMARK    3  A    between atoms: N_5  and  C_6
REMARK    4  A    between atoms: C_9  and  C_10
REMARK    5  A    between atoms: C_14  and  C_15
REMARK                            x       y       z     vdW  Elec       q    Type
REMARK                         _______ _______ _______ _____ _____    ______ ____
ROOT
ATOM      1  C   UNL     1       2.573   3.707  19.829  0.00  0.00    +0.000 A 
ATOM      2  N   UNL     1       3.041   2.615  20.440  0.00  0.00    +0.000 NA
ATOM      3  N   UNL     1       4.342   2.579  20.100  0.00  0.00    +0.000 N 
ATOM      4  C   UNL     1       5.120   1.409  20.427  0.00  0.00    +0.000 C 
ATOM      5  C   UNL     1       4.736   3.646  19.329  0.00  0.00    +0.000 A 
ATOM      6  C   UNL     1       3.616   4.450  19.192  0.00  0.00    +0.000 A 
ATOM      7  C   UNL     1       3.562   5.740  18.514  0.00  0.00    +0.000 C 
ATOM      8  N   UNL     1       4.224   6.002  17.434  0.00  0.00    +0.000 NA
ATOM      9  C   UNL     1       5.076   4.975  16.827  0.00  0.00    +0.000 C 
ATOM     10  C   UNL     1       6.291   4.650  17.708  0.00  0.00    +0.000 C 
ATOM     11  N   UNL     1       5.987   3.749  18.817  0.00  0.00    +0.000 N 
ATOM     12  H   UNL     1       6.792   3.320  19.262  0.00  0.00    +0.000 HD
ENDROOT
BRANCH   7  13
ATOM     13  C   UNL     1       2.702   6.822  19.092  0.00  0.00    +0.000 A 
ATOM     14  C   UNL     1       2.257   6.786  20.421  0.00  0.00    +0.000 A 
ATOM     15  C   UNL     1       1.416   7.791  20.905  0.00  0.00    +0.000 A 
ATOM     16  C   UNL     1       1.040   8.850  20.078  0.00  0.00    +0.000 A 
ATOM     17  C   UNL     1       1.510   8.922  18.762  0.00  0.00    +0.000 A 
ATOM     18  C   UNL     1       1.119  10.055  17.861  0.00  0.00    +0.000 C 
ATOM     19  C   UNL     1       2.343   7.905  18.278  0.00  0.00    +0.000 A 
ENDBRANCH   7  13
BRANCH   1  21
ATOM     20  C   UNL     1       0.271   2.982  19.080  0.00  0.00    +0.000 C 
ATOM     21  C   UNL     1       1.105   4.002  19.844  0.00  0.00    +0.000 C 
ENDBRANCH   1  21
TORSDOF 2
ENDMDL
MODEL 7
REMARK VINA RESULT:      -6.2      9.388     11.868
REMARK  Name = 
REMARK  5 active torsions:
REMARK  status: ('A' for Active; 'I' for Inactive)
REMARK    1  A    between atoms: C_1  and  C_2
REMARK    2  A    between atoms: C_2  and  C_3
REMARK    3  A    between atoms: N_5  and  C_6
REMARK    4  A    between atoms: C_9  and  C_10
REMARK    5  A    between atoms: C_14  and  C_15
REMARK                            x       y       z     vdW  Elec       q    Type
REMARK                         _______ _______ _______ _____ _____    ______ ____
ROOT
ATOM      1  C   UNL     1      10.999  15.146  17.223  0.00  0.00    +0.000 A 
ATOM      2  N   UNL     1      11.789  16.195  16.978  0.00  0.00    +0.000 NA
ATOM      3  N   UNL     1      11.156  17.228  17.562  0.00  0.00    +0.000 N 
ATOM      4  C   UNL     1      11.634  18.567  17.323  0.00  0.00    +0.000 C 
ATOM      5  C   UNL     1      10.007  16.863  18.221  0.00  0.00    +0.000 A 
ATOM      6  C   UNL     1       9.909  15.489  18.083  0.00  0.00    +0.000 A 
ATOM      7  C   UNL     1       8.887  14.636  18.679  0.00  0.00    +0.000 C 
ATOM      8  N   UNL     1       7.648  14.990  18.797  0.00  0.00    +0.000 NA
ATOM      9  C   UNL     1       7.210  16.304  18.314  0.00  0.00    +0.000 C 
ATOM     10  C   UNL     1       7.805  17.445  19.152  0.00  0.00    +0.000 C 
ATOM     11  N   UNL     1       9.186  17.771  18.803  0.00  0.00    +0.000 N 
ATOM     12  H   UNL     1       9.522  18.664  19.149  0.00  0.00    +0.000 HD
ENDROOT
BRANCH   7  13
ATOM     13  C   UNL     1       9.282  13.282  19.184  0.00  0.00    +0.000 A 
ATOM     14  C   UNL     1      10.128  13.121  20.290  0.00  0.00    +0.000 A 
ATOM     15  C   UNL     1      10.512  11.841  20.697  0.00  0.00    +0.000 A 
ATOM     16  C   UNL     1      10.030  10.717  20.025  0.00  0.00    +0.000 A 
ATOM     17  C   UNL     1       9.151  10.860  18.946  0.00  0.00    +0.000 A 
ATOM     18  C   UNL     1       8.621   9.663  18.215  0.00  0.00    +0.000 C 
ATOM     19  C   UNL     1       8.780  12.147  18.534  0.00  0.00    +0.000 A 
ENDBRANCH   7  13
BRANCH   1  21
ATOM     20  C   UNL     1      12.303  12.986  17.368  0.00  0.00    +0.000 C 
ATOM     21  C   UNL     1      11.295  13.821  16.590  0.00  0.00    +0.000 C 
ENDBRANCH   1  21
TORSDOF 2
ENDMDL
MODEL 8
REMARK VINA RESULT:      -6.1      2.479      5.388
REMARK  Name = 
REMARK  5 active torsions:
REMARK  status: ('A' for Active; 'I' for Inactive)
REMARK    1  A    between atoms: C_1  and  C_2
REMARK    2  A    between atoms: C_2  and  C_3
REMARK    3  A    between atoms: N_5  and  C_6
REMARK    4  A    between atoms: C_9  and  C_10
REMARK    5  A    between atoms: C_14  and  C_15
REMARK                            x       y       z     vdW  Elec       q    Type
REMARK                         _______ _______ _______ _____ _____    ______ ____
ROOT
ATOM      1  C   UNL     1       4.729   6.067  16.493  0.00  0.00    +0.000 A 
ATOM      2  N   UNL     1       5.216   5.968  15.252  0.00  0.00    +0.000 NA
ATOM      3  N   UNL     1       6.400   5.351  15.411  0.00  0.00    +0.000 N 
ATOM      4  C   UNL     1       7.298   5.257  14.286  0.00  0.00    +0.000 C 
ATOM      5  C   UNL     1       6.666   5.004  16.714  0.00  0.00    +0.000 A 
ATOM      6  C   UNL     1       5.556   5.393  17.445  0.00  0.00    +0.000 A 
ATOM      7  C   UNL     1       5.342   5.166  18.869  0.00  0.00    +0.000 C 
ATOM      8  N   UNL     1       6.289   5.234  19.749  0.00  0.00    +0.000 NA
ATOM      9  C   UNL     1       7.656   5.561  19.331  0.00  0.00    +0.000 C 
ATOM     10  C   UNL     1       8.277   4.439  18.486  0.00  0.00    +0.000 C 
ATOM     11  N   UNL     1       7.843   4.448  17.091  0.00  0.00    +0.000 N 
ATOM     12  H   UNL     1       8.410   3.893  16.456  0.00  0.00    +0.000 HD
ENDROOT
BRANCH   7  13
ATOM     13  C   UNL     1       3.962   4.833  19.348  0.00  0.00    +0.000 A 
ATOM     14  C   UNL     1       3.223   5.713  20.150  0.00  0.00    +0.000 A 
ATOM     15  C   UNL     1       1.959   5.343  20.615  0.00  0.00    +0.000 A 
ATOM     16  C   UNL     1       1.414   4.109  20.259  0.00  0.00    +0.000 A 
ATOM     17  C   UNL     1       2.121   3.237  19.424  0.00  0.00    +0.000 A 
ATOM     18  C   UNL     1       1.549   1.909  19.028  0.00  0.00    +0.000 C 
ATOM     19  C   UNL     1       3.395   3.609  18.971  0.00  0.00    +0.000 A 
ENDBRANCH   7  13
BRANCH   1  21
ATOM     20  C   UNL     1       3.706   8.126  17.541  0.00  0.00    +0.000 C 
ATOM     21  C   UNL     1       3.476   6.848  16.745  0.00  0.00    +0.000 C 
ENDBRANCH   1  21
TORSDOF 2
ENDMDL
MODEL 9
REMARK VINA RESULT:      -5.8      1.841      5.135
REMARK  Name = 
REMARK  5 active torsions:
REMARK  status: ('A' for Active; 'I' for Inactive)
REMARK    1  A    between atoms: C_1  and  C_2
REMARK    2  A    between atoms: C_2  and  C_3
REMARK    3  A    between atoms: N_5  and  C_6
REMARK    4  A    between atoms: C_9  and  C_10
REMARK    5  A    between atoms: C_14  and  C_15
REMARK                            x       y       z     vdW  Elec       q    Type
REMARK                         _______ _______ _______ _____ _____    ______ ____
ROOT
ATOM      1  C   UNL     1       4.142   4.794  18.225  0.00  0.00    +0.000 A 
ATOM      2  N   UNL     1       4.450   3.712  17.504  0.00  0.00    +0.000 NA
ATOM      3  N   UNL     1       3.660   2.746  18.006  0.00  0.00    +0.000 N 
ATOM      4  C   UNL     1       3.873   1.381  17.590  0.00  0.00    +0.000 C 
ATOM      5  C   UNL     1       2.815   3.189  18.995  0.00  0.00    +0.000 A 
ATOM      6  C   UNL     1       3.050   4.548  19.116  0.00  0.00    +0.000 A 
ATOM      7  C   UNL     1       2.336   5.469  19.992  0.00  0.00    +0.000 C 
ATOM      8  N   UNL     1       1.936   5.152  21.181  0.00  0.00    +0.000 NA
ATOM      9  C   UNL     1       2.202   3.811  21.712  0.00  0.00    +0.000 C 
ATOM     10  C   UNL     1       1.406   2.733  20.960  0.00  0.00    +0.000 C 
ATOM     11  N   UNL     1       2.000   2.351  19.681  0.00  0.00    +0.000 N 
ATOM     12  H   UNL     1       1.652   1.484  19.282  0.00  0.00    +0.000 HD
ENDROOT
BRANCH   7  13
ATOM     13  C   UNL     1       2.043   6.853  19.499  0.00  0.00    +0.000 A 
ATOM     14  C   UNL     1       2.203   7.210  18.153  0.00  0.00    +0.000 A 
ATOM     15  C   UNL     1       1.967   8.524  17.744  0.00  0.00    +0.000 A 
ATOM     16  C   UNL     1       1.542   9.481  18.668  0.00  0.00    +0.000 A 
ATOM     17  C   UNL     1       1.337   9.130  20.006  0.00  0.00    +0.000 A 
ATOM     18  C   UNL     1       0.876  10.143  21.011  0.00  0.00    +0.000 C 
ATOM     19  C   UNL     1       1.588   7.812  20.413  0.00  0.00    +0.000 A 
ENDBRANCH   7  13
BRANCH   1  21
ATOM     20  C   UNL     1       5.408   6.295  16.635  0.00  0.00    +0.000 C 
ATOM     21  C   UNL     1       4.936   6.053  18.063  0.00  0.00    +0.000 C 
ENDBRANCH   1  21
TORSDOF 2
ENDMDL
