MODEL 1
REMARK VINA RESULT:      -8.1      0.000      0.000
REMARK  Name = 
REMARK  8 active torsions:
REMARK  status: ('A' for Active; 'I' for Inactive)
REMARK    1  A    between atoms: C_1  and  C_2
REMARK    2  A    between atoms: C_2  and  C_3
REMARK    3  A    between atoms: C_3  and  N_4
REMARK    4  A    between atoms: C_9  and  C_10
REMARK    5  A    between atoms: C_13  and  C_14
REMARK    6  A    between atoms: N_21  and  C_22
REMARK    7  A    between atoms: C_22  and  C_23
REMARK    8  A    between atoms: C_23  and  C_24
REMARK                            x       y       z     vdW  Elec       q    Type
REMARK                         _______ _______ _______ _____ _____    ______ ____
ROOT
ATOM      1  N   UNL     1       4.208   4.789  18.107  0.00  0.00    +0.000 N 
ATOM      2  C   UNL     1       3.779   6.124  17.932  0.00  0.00    +0.000 A 
ATOM      3  O   UNL     1       4.101   6.834  16.985  0.00  0.00    +0.000 OA
ATOM      4  C   UNL     1       2.911   6.583  18.993  0.00  0.00    +0.000 A 
ATOM      5  N   UNL     1       2.328   7.815  19.179  0.00  0.00    +0.000 NA
ATOM      6  C   UNL     1       1.631   7.724  20.304  0.00  0.00    +0.000 A 
ATOM      7  N   UNL     1       1.728   6.443  20.807  0.00  0.00    +0.000 N 
ATOM      8  C   UNL     1       2.562   5.734  20.002  0.00  0.00    +0.000 A 
ATOM      9  N   UNL     1       2.997   4.438  20.161  0.00  0.00    +0.000 N 
ATOM     10  C   UNL     1       3.932   3.964  19.221  0.00  0.00    +0.000 A 
ATOM     11  O   UNL     1       4.469   2.862  19.367  0.00  0.00    +0.000 OA
ATOM     12  H   UNL     1       1.299   6.113  21.658  0.00  0.00    +0.000 HD
ENDROOT
BRANCH   6  13
ATOM     13  C   UNL     1       0.868   8.795  20.951  0.00  0.00    +0.000 A 
ATOM     14  C   UNL     1       0.387   9.869  20.185  0.00  0.00    +0.000 A 
ATOM     15  C   UNL     1      -0.346  10.911  20.771  0.00  0.00    +0.000 A 
ATOM     16  C   UNL     1      -0.612  10.899  22.144  0.00  0.00    +0.000 A 
ATOM     17  C   UNL     1      -0.128   9.834  22.915  0.00  0.00    +0.000 A 
ATOM     18  C   UNL     1       0.602   8.798  22.328  0.00  0.00    +0.000 A 
BRANCH  16  19
ATOM     19  C   UNL     1      -1.384  11.961  22.851  0.00  0.00    +0.000 C 
ATOM     20  N   UNL     1      -0.882  13.230  22.879  0.00  0.00    +0.000 N 
ATOM     21  O   UNL     1      -2.451  11.713  23.400  0.00  0.00    +0.000 OA
ATOM     22  H   UNL     1      -0.024  13.530  22.446  0.00  0.00    +0.000 HD
ATOM     23  H   UNL     1      -1.437  13.926  23.361  0.00  0.00    +0.000 HD
ENDBRANCH  16  19
ENDBRANCH   6  13
BRANCH   1  24
ATOM     24  C   UNL     1       5.074   4.231  17.069  0.00  0.00    +0.000 C 
BRANCH  24  26
ATOM     25  C   UNL     1       7.230   4.889  15.869  0.00  0.00    +0.000 C 
ATOM     26  C   UNL     1       6.547   4.643  17.206  0.00  0.00    +0.000 C 
ENDBRANCH  24  26
ENDBRANCH   1  24
BRANCH   9  27
ATOM     27  C   UNL     1       2.544   3.548  21.230  0.00  0.00    +0.000 C 
BRANCH  27  28
ATOM     28  C   UNL     1       1.162   2.930  21.010  0.00  0.00    +0.000 C 
ATOM     29  C   UNL     1       0.809   2.688  19.551  0.00  0.00    +0.000 C 
ENDBRANCH  27  28
ENDBRANCH   9  27
TORSDOF 6
ENDMDL
MODEL 2
REMARK VINA RESULT:      -8.0      0.723      1.231
REMARK  Name = 
REMARK  8 active torsions:
REMARK  status: ('A' for Active; 'I' for Inactive)
REMARK    1  A    between atoms: C_1  and  C_2
REMARK    2  A    between atoms: C_2  and  C_3
REMARK    3  A    between atoms: C_3  and  N_4
REMARK    4  A    between atoms: C_9  and  C_10
REMARK    5  A    between atoms: C_13  and  C_14
REMARK    6  A    between atoms: N_21  and  C_22
REMARK    7  A    between atoms: C_22  and  C_23
REMARK    8  A    between atoms: C_23  and  C_24
REMARK                            x       y       z     vdW  Elec       q    Type
REMARK                         _______ _______ _______ _____ _____    ______ ____
ROOT
ATOM      1  N   UNL     1       4.319   4.826  17.810  0.00  0.00    +0.000 N 
ATOM      2  C   UNL     1       3.910   6.170  17.665  0.00  0.00    +0.000 A 
ATOM      3  O   UNL     1       4.239   6.896  16.732  0.00  0.00    +0.000 OA
ATOM      4  C   UNL     1       3.052   6.620  18.738  0.00  0.00    +0.000 A 
ATOM      5  N   UNL     1       2.488   7.856  18.952  0.00  0.00    +0.000 NA
ATOM      6  C   UNL     1       1.794   7.751  20.078  0.00  0.00    +0.000 A 
ATOM      7  N   UNL     1       1.873   6.459  20.553  0.00  0.00    +0.000 N 
ATOM      8  C   UNL     1       2.694   5.755  19.730  0.00  0.00    +0.000 A 
ATOM      9  N   UNL     1       3.110   4.450  19.860  0.00  0.00    +0.000 N 
ATOM     10  C   UNL     1       4.034   3.982  18.908  0.00  0.00    +0.000 A 
ATOM     11  O   UNL     1       4.555   2.869  19.028  0.00  0.00    +0.000 OA
ATOM     12  H   UNL     1       1.442   6.118  21.398  0.00  0.00    +0.000 HD
ENDROOT
BRANCH   6  13
ATOM     13  C   UNL     1       1.049   8.820  20.750  0.00  0.00    +0.000 A 
ATOM     14  C   UNL     1       0.754   8.709  22.118  0.00  0.00    +0.000 A 
ATOM     15  C   UNL     1       0.042   9.712  22.794  0.00  0.00    +0.000 A 
ATOM     16  C   UNL     1      -0.391  10.851  22.107  0.00  0.00    +0.000 A 
ATOM     17  C   UNL     1      -0.106  10.964  20.740  0.00  0.00    +0.000 A 
ATOM     18  C   UNL     1       0.603   9.963  20.071  0.00  0.00    +0.000 A 
BRANCH  16  19
ATOM     19  C   UNL     1      -1.149  11.967  22.743  0.00  0.00    +0.000 C 
ATOM     20  N   UNL     1      -2.346  11.693  23.339  0.00  0.00    +0.000 N 
ATOM     21  O   UNL     1      -0.716  13.113  22.738  0.00  0.00    +0.000 OA
ATOM     22  H   UNL     1      -2.772  10.784  23.404  0.00  0.00    +0.000 HD
ATOM     23  H   UNL     1      -2.828  12.474  23.766  0.00  0.00    +0.000 HD
ENDBRANCH  16  19
ENDBRANCH   6  13
BRANCH   1  24
ATOM     24  C   UNL     1       5.173   4.277  16.757  0.00  0.00    +0.000 C 
BRANCH  24  26
ATOM     25  C   UNL     1       7.468   4.638  17.817  0.00  0.00    +0.000 C 
ATOM     26  C   UNL     1       6.544   4.962  16.654  0.00  0.00    +0.000 C 
ENDBRANCH  24  26
ENDBRANCH   1  24
BRANCH   9  27
ATOM     27  C   UNL     1       2.647   3.544  20.912  0.00  0.00    +0.000 C 
BRANCH  27  28
ATOM     28  C   UNL     1       1.204   3.060  20.756  0.00  0.00    +0.000 C 
ATOM     29  C   UNL     1       0.843   2.612  19.348  0.00  0.00    +0.000 C 
ENDBRANCH  27  28
ENDBRANCH   9  27
TORSDOF 6
ENDMDL
MODEL 3
REMARK VINA RESULT:      -7.8      1.621      1.927
REMARK  Name = 
REMARK  8 active torsions:
REMARK  status: ('A' for Active; 'I' for Inactive)
REMARK    1  A    between atoms: C_1  and  C_2
REMARK    2  A    between atoms: C_2  and  C_3
REMARK    3  A    between atoms: C_3  and  N_4
REMARK    4  A    between atoms: C_9  and  C_10
REMARK    5  A    between atoms: C_13  and  C_14
REMARK    6  A    between atoms: N_21  and  C_22
REMARK    7  A    between atoms: C_22  and  C_23
REMARK    8  A    between atoms: C_23  and  C_24
REMARK                            x       y       z     vdW  Elec       q    Type
REMARK                         _______ _______ _______ _____ _____    ______ ____
ROOT
ATOM      1  N   UNL     1       5.280   5.197  17.468  0.00  0.00    +0.000 N 
ATOM      2  C   UNL     1       4.739   6.423  17.020  0.00  0.00    +0.000 A 
ATOM      3  O   UNL     1       5.121   7.022  16.019  0.00  0.00    +0.000 OA
ATOM      4  C   UNL     1       3.674   6.914  17.864  0.00  0.00    +0.000 A 
ATOM      5  N   UNL     1       2.938   8.071  17.766  0.00  0.00    +0.000 NA
ATOM      6  C   UNL     1       2.091   8.055  18.787  0.00  0.00    +0.000 A 
ATOM      7  N   UNL     1       2.251   6.886  19.503  0.00  0.00    +0.000 N 
ATOM      8  C   UNL     1       3.271   6.184  18.944  0.00  0.00    +0.000 A 
ATOM      9  N   UNL     1       3.816   4.995  19.371  0.00  0.00    +0.000 N 
ATOM     10  C   UNL     1       4.930   4.516  18.656  0.00  0.00    +0.000 A 
ATOM     11  O   UNL     1       5.556   3.528  19.051  0.00  0.00    +0.000 OA
ATOM     12  H   UNL     1       1.736   6.632  20.332  0.00  0.00    +0.000 HD
ENDROOT
BRANCH   6  13
ATOM     13  C   UNL     1       1.126   9.099  19.141  0.00  0.00    +0.000 A 
ATOM     14  C   UNL     1       0.611   9.940  18.142  0.00  0.00    +0.000 A 
ATOM     15  C   UNL     1      -0.315  10.950  18.445  0.00  0.00    +0.000 A 
ATOM     16  C   UNL     1      -0.743  11.139  19.762  0.00  0.00    +0.000 A 
ATOM     17  C   UNL     1      -0.227  10.309  20.766  0.00  0.00    +0.000 A 
ATOM     18  C   UNL     1       0.694   9.304  20.460  0.00  0.00    +0.000 A 
BRANCH  16  19
ATOM     19  C   UNL     1      -1.724  12.184  20.176  0.00  0.00    +0.000 C 
ATOM     20  N   UNL     1      -2.681  12.576  19.286  0.00  0.00    +0.000 N 
ATOM     21  O   UNL     1      -1.684  12.687  21.293  0.00  0.00    +0.000 OA
ATOM     22  H   UNL     1      -2.800  12.210  18.356  0.00  0.00    +0.000 HD
ATOM     23  H   UNL     1      -3.334  13.281  19.604  0.00  0.00    +0.000 HD
ENDBRANCH  16  19
ENDBRANCH   6  13
BRANCH   1  24
ATOM     24  C   UNL     1       6.350   4.612  16.660  0.00  0.00    +0.000 C 
BRANCH  24  26
ATOM     25  C   UNL     1       6.247   4.187  14.145  0.00  0.00    +0.000 C 
ATOM     26  C   UNL     1       5.844   3.704  15.529  0.00  0.00    +0.000 C 
ENDBRANCH  24  26
ENDBRANCH   1  24
BRANCH   9  27
ATOM     27  C   UNL     1       3.307   4.220  20.503  0.00  0.00    +0.000 C 
BRANCH  27  28
ATOM     28  C   UNL     1       2.072   3.370  20.196  0.00  0.00    +0.000 C 
ATOM     29  C   UNL     1       1.400   2.776  21.425  0.00  0.00    +0.000 C 
ENDBRANCH  27  28
ENDBRANCH   9  27
TORSDOF 6
ENDMDL
MODEL 4
REMARK VINA RESULT:      -7.8      1.597      2.085
REMARK  Name = 
REMARK  8 active torsions:
REMARK  status: ('A' for Active; 'I' for Inactive)
REMARK    1  A    between atoms: C_1  and  C_2
REMARK    2  A    between atoms: C_2  and  C_3
REMARK    3  A    between atoms: C_3  and  N_4
REMARK    4  A    between atoms: C_9  and  C_10
REMARK    5  A    between atoms: C_13  and  C_14
REMARK    6  A    between atoms: N_21  and  C_22
REMARK    7  A    between atoms: C_22  and  C_23
REMARK    8  A    between atoms: C_23  and  C_24
REMARK                            x       y       z     vdW  Elec       q    Type
REMARK                         _______ _______ _______ _____ _____    ______ ____
ROOT
ATOM      1  N   UNL     1       5.294   5.109  17.483  0.00  0.00    +0.000 N 
ATOM      2  C   UNL     1       4.824   6.375  17.068  0.00  0.00    +0.000 A 
ATOM      3  O   UNL     1       5.287   7.008  16.124  0.00  0.00    +0.000 OA
ATOM      4  C   UNL     1       3.728   6.864  17.873  0.00  0.00    +0.000 A 
ATOM      5  N   UNL     1       3.040   8.052  17.790  0.00  0.00    +0.000 NA
ATOM      6  C   UNL     1       2.133   8.018  18.758  0.00  0.00    +0.000 A 
ATOM      7  N   UNL     1       2.207   6.810  19.421  0.00  0.00    +0.000 N 
ATOM      8  C   UNL     1       3.234   6.098  18.888  0.00  0.00    +0.000 A 
ATOM      9  N   UNL     1       3.710   4.869  19.284  0.00  0.00    +0.000 N 
ATOM     10  C   UNL     1       4.848   4.384  18.611  0.00  0.00    +0.000 A 
ATOM     11  O   UNL     1       5.414   3.354  18.992  0.00  0.00    +0.000 OA
ATOM     12  H   UNL     1       1.634   6.535  20.203  0.00  0.00    +0.000 HD
ENDROOT
BRANCH   6  13
ATOM     13  C   UNL     1       1.184   9.079  19.108  0.00  0.00    +0.000 A 
ATOM     14  C   UNL     1       0.879   9.324  20.456  0.00  0.00    +0.000 A 
ATOM     15  C   UNL     1      -0.024  10.332  20.828  0.00  0.00    +0.000 A 
ATOM     16  C   UNL     1      -0.644  11.116  19.849  0.00  0.00    +0.000 A 
ATOM     17  C   UNL     1      -0.350  10.871  18.502  0.00  0.00    +0.000 A 
ATOM     18  C   UNL     1       0.551   9.867  18.136  0.00  0.00    +0.000 A 
BRANCH  16  19
ATOM     19  C   UNL     1      -1.614  12.208  20.150  0.00  0.00    +0.000 C 
ATOM     20  N   UNL     1      -2.023  13.022  19.134  0.00  0.00    +0.000 N 
ATOM     21  O   UNL     1      -2.044  12.382  21.285  0.00  0.00    +0.000 OA
ATOM     22  H   UNL     1      -1.735  12.947  18.173  0.00  0.00    +0.000 HD
ATOM     23  H   UNL     1      -2.686  13.747  19.375  0.00  0.00    +0.000 HD
ENDBRANCH  16  19
ENDBRANCH   6  13
BRANCH   1  24
ATOM     24  C   UNL     1       6.390   4.524  16.711  0.00  0.00    +0.000 C 
BRANCH  24  26
ATOM     25  C   UNL     1       6.366   4.265  14.171  0.00  0.00    +0.000 C 
ATOM     26  C   UNL     1       5.922   3.692  15.508  0.00  0.00    +0.000 C 
ENDBRANCH  24  26
ENDBRANCH   1  24
BRANCH   9  27
ATOM     27  C   UNL     1       3.106   4.059  20.341  0.00  0.00    +0.000 C 
BRANCH  27  28
ATOM     28  C   UNL     1       1.756   3.435  19.982  0.00  0.00    +0.000 C 
ATOM     29  C   UNL     1       1.853   2.182  19.126  0.00  0.00    +0.000 C 
ENDBRANCH  27  28
ENDBRANCH   9  27
TORSDOF 6
ENDMDL
MODEL 5
REMARK VINA RESULT:      -7.6      1.474      1.838
REMARK  Name = 
REMARK  8 active torsions:
REMARK  status: ('A' for Active; 'I' for Inactive)
REMARK    1  A    between atoms: C_1  and  C_2
REMARK    2  A    between atoms: C_2  and  C_3
REMARK    3  A    between atoms: C_3  and  N_4
REMARK    4  A    between atoms: C_9  and  C_10
REMARK    5  A    between atoms: C_13  and  C_14
REMARK    6  A    between atoms: N_21  and  C_22
REMARK    7  A    between atoms: C_22  and  C_23
REMARK    8  A    between atoms: C_23  and  C_24
REMARK                            x       y       z     vdW  Elec       q    Type
REMARK                         _______ _______ _______ _____ _____    ______ ____
ROOT
ATOM      1  N   UNL     1       4.926   4.565  16.651  0.00  0.00    +0.000 N 
ATOM      2  C   UNL     1       4.836   5.959  16.857  0.00  0.00    +0.000 A 
ATOM      3  O   UNL     1       5.590   6.783  16.348  0.00  0.00    +0.000 OA
ATOM      4  C   UNL     1       3.754   6.333  17.739  0.00  0.00    +0.000 A 
ATOM      5  N   UNL     1       3.378   7.577  18.191  0.00  0.00    +0.000 NA
ATOM      6  C   UNL     1       2.330   7.379  18.980  0.00  0.00    +0.000 A 
ATOM      7  N   UNL     1       2.011   6.037  18.999  0.00  0.00    +0.000 N 
ATOM      8  C   UNL     1       2.928   5.373  18.247  0.00  0.00    +0.000 A 
ATOM      9  N   UNL     1       3.036   4.017  18.043  0.00  0.00    +0.000 N 
ATOM     10  C   UNL     1       4.134   3.577  17.281  0.00  0.00    +0.000 A 
ATOM     11  O   UNL     1       4.377   2.372  17.161  0.00  0.00    +0.000 OA
ATOM     12  H   UNL     1       1.261   5.621  19.529  0.00  0.00    +0.000 HD
ENDROOT
BRANCH   6  13
ATOM     13  C   UNL     1       1.600   8.399  19.739  0.00  0.00    +0.000 A 
ATOM     14  C   UNL     1       1.155   9.563  19.092  0.00  0.00    +0.000 A 
ATOM     15  C   UNL     1       0.454  10.559  19.787  0.00  0.00    +0.000 A 
ATOM     16  C   UNL     1       0.185  10.409  21.151  0.00  0.00    +0.000 A 
ATOM     17  C   UNL     1       0.634   9.254  21.804  0.00  0.00    +0.000 A 
ATOM     18  C   UNL     1       1.332   8.263  21.108  0.00  0.00    +0.000 A 
BRANCH  16  19
ATOM     19  C   UNL     1      -0.554  11.413  21.969  0.00  0.00    +0.000 C 
ATOM     20  N   UNL     1      -1.195  12.436  21.332  0.00  0.00    +0.000 N 
ATOM     21  O   UNL     1      -0.594  11.333  23.191  0.00  0.00    +0.000 OA
ATOM     22  H   UNL     1      -1.229  12.575  20.336  0.00  0.00    +0.000 HD
ATOM     23  H   UNL     1      -1.693  13.094  21.919  0.00  0.00    +0.000 HD
ENDBRANCH  16  19
ENDBRANCH   6  13
BRANCH   1  24
ATOM     24  C   UNL     1       5.980   4.095  15.753  0.00  0.00    +0.000 C 
BRANCH  24  26
ATOM     25  C   UNL     1       6.732   4.309  13.322  0.00  0.00    +0.000 C 
ATOM     26  C   UNL     1       5.568   4.079  14.273  0.00  0.00    +0.000 C 
ENDBRANCH  24  26
ENDBRANCH   1  24
BRANCH   9  27
ATOM     27  C   UNL     1       2.086   3.033  18.562  0.00  0.00    +0.000 C 
BRANCH  27  28
ATOM     28  C   UNL     1       2.348   2.583  20.001  0.00  0.00    +0.000 C 
ATOM     29  C   UNL     1       1.330   3.090  21.011  0.00  0.00    +0.000 C 
ENDBRANCH  27  28
ENDBRANCH   9  27
TORSDOF 6
ENDMDL
MODEL 6
REMARK VINA RESULT:      -7.5      1.112      1.150
REMARK  Name = 
REMARK  8 active torsions:
REMARK  status: ('A' for Active; 'I' for Inactive)
REMARK    1  A    between atoms: C_1  and  C_2
REMARK    2  A    between atoms: C_2  and  C_3
REMARK    3  A    between atoms: C_3  and  N_4
REMARK    4  A    between atoms: C_9  and  C_10
REMARK    5  A    between atoms: C_13  and  C_14
REMARK    6  A    between atoms: N_21  and  C_22
REMARK    7  A    between atoms: C_22  and  C_23
REMARK    8  A    between atoms: C_23  and  C_24
REMARK                            x       y       z     vdW  Elec       q    Type
REMARK                         _______ _______ _______ _____ _____    ______ ____
ROOT
ATOM      1  N   UNL     1       3.982   5.796  17.943  0.00  0.00    +0.000 N 
ATOM      2  C   UNL     1       3.425   7.090  17.842  0.00  0.00    +0.000 A 
ATOM      3  O   UNL     1       3.629   7.858  16.907  0.00  0.00    +0.000 OA
ATOM      4  C   UNL     1       2.578   7.431  18.962  0.00  0.00    +0.000 A 
ATOM      5  N   UNL     1       1.897   8.597  19.224  0.00  0.00    +0.000 NA
ATOM      6  C   UNL     1       1.274   8.405  20.380  0.00  0.00    +0.000 A 
ATOM      7  N   UNL     1       1.513   7.122  20.828  0.00  0.00    +0.000 N 
ATOM      8  C   UNL     1       2.363   6.521  19.955  0.00  0.00    +0.000 A 
ATOM      9  N   UNL     1       2.921   5.266  20.041  0.00  0.00    +0.000 N 
ATOM     10  C   UNL     1       3.842   4.912  19.038  0.00  0.00    +0.000 A 
ATOM     11  O   UNL     1       4.484   3.859  19.114  0.00  0.00    +0.000 OA
ATOM     12  H   UNL     1       1.163   6.726  21.686  0.00  0.00    +0.000 HD
ENDROOT
BRANCH   6  13
ATOM     13  C   UNL     1       0.454   9.379  21.105  0.00  0.00    +0.000 A 
ATOM     14  C   UNL     1      -0.003  10.533  20.448  0.00  0.00    +0.000 A 
ATOM     15  C   UNL     1      -0.789  11.486  21.112  0.00  0.00    +0.000 A 
ATOM     16  C   UNL     1      -1.134  11.302  22.455  0.00  0.00    +0.000 A 
ATOM     17  C   UNL     1      -0.676  10.157  23.118  0.00  0.00    +0.000 A 
ATOM     18  C   UNL     1       0.108   9.209  22.454  0.00  0.00    +0.000 A 
BRANCH  16  19
ATOM     19  C   UNL     1      -1.967  12.259  23.238  0.00  0.00    +0.000 C 
ATOM     20  N   UNL     1      -3.242  11.903  23.569  0.00  0.00    +0.000 N 
ATOM     21  O   UNL     1      -1.526  13.348  23.586  0.00  0.00    +0.000 OA
ATOM     22  H   UNL     1      -3.683  11.028  23.340  0.00  0.00    +0.000 HD
ATOM     23  H   UNL     1      -3.774  12.575  24.108  0.00  0.00    +0.000 HD
ENDBRANCH  16  19
ENDBRANCH   6  13
BRANCH   1  24
ATOM     24  C   UNL     1       4.837   5.355  16.842  0.00  0.00    +0.000 C 
BRANCH  24  26
ATOM     25  C   UNL     1       6.853   6.716  17.617  0.00  0.00    +0.000 C 
ATOM     26  C   UNL     1       6.334   5.354  17.184  0.00  0.00    +0.000 C 
ENDBRANCH  24  26
ENDBRANCH   1  24
BRANCH   9  27
ATOM     27  C   UNL     1       2.610   4.303  21.098  0.00  0.00    +0.000 C 
BRANCH  27  28
ATOM     28  C   UNL     1       1.234   3.645  20.983  0.00  0.00    +0.000 C 
ATOM     29  C   UNL     1       1.057   2.775  19.748  0.00  0.00    +0.000 C 
ENDBRANCH  27  28
ENDBRANCH   9  27
TORSDOF 6
ENDMDL
MODEL 7
REMARK VINA RESULT:      -7.5      1.611      2.323
REMARK  Name = 
REMARK  8 active torsions:
REMARK  status: ('A' for Active; 'I' for Inactive)
REMARK    1  A    between atoms: C_1  and  C_2
REMARK    2  A    between atoms: C_2  and  C_3
REMARK    3  A    between atoms: C_3  and  N_4
REMARK    4  A    between atoms: C_9  and  C_10
REMARK    5  A    between atoms: C_13  and  C_14
REMARK    6  A    between atoms: N_21  and  C_22
REMARK    7  A    between atoms: C_22  and  C_23
REMARK    8  A    between atoms: C_23  and  C_24
REMARK                            x       y       z     vdW  Elec       q    Type
REMARK                         _______ _______ _______ _____ _____    ______ ____
ROOT
ATOM      1  N   UNL     1       5.258   4.761  16.429  0.00  0.00    +0.000 N 
ATOM      2  C   UNL     1       5.171   6.128  16.773  0.00  0.00    +0.000 A 
ATOM      3  O   UNL     1       5.988   6.979  16.433  0.00  0.00    +0.000 OA
ATOM      4  C   UNL     1       4.011   6.438  17.577  0.00  0.00    +0.000 A 
ATOM      5  N   UNL     1       3.612   7.637  18.118  0.00  0.00    +0.000 NA
ATOM      6  C   UNL     1       2.485   7.387  18.772  0.00  0.00    +0.000 A 
ATOM      7  N   UNL     1       2.143   6.060  18.615  0.00  0.00    +0.000 N 
ATOM      8  C   UNL     1       3.121   5.453  17.893  0.00  0.00    +0.000 A 
ATOM      9  N   UNL     1       3.226   4.124  17.556  0.00  0.00    +0.000 N 
ATOM     10  C   UNL     1       4.389   3.735  16.866  0.00  0.00    +0.000 A 
ATOM     11  O   UNL     1       4.622   2.543  16.643  0.00  0.00    +0.000 OA
ATOM     12  H   UNL     1       1.335   5.612  19.019  0.00  0.00    +0.000 HD
ENDROOT
BRANCH   6  13
ATOM     13  C   UNL     1       1.698   8.342  19.558  0.00  0.00    +0.000 A 
ATOM     14  C   UNL     1       1.425   8.074  20.909  0.00  0.00    +0.000 A 
ATOM     15  C   UNL     1       0.675   8.965  21.691  0.00  0.00    +0.000 A 
ATOM     16  C   UNL     1       0.180  10.147  21.131  0.00  0.00    +0.000 A 
ATOM     17  C   UNL     1       0.442  10.416  19.782  0.00  0.00    +0.000 A 
ATOM     18  C   UNL     1       1.190   9.526  19.006  0.00  0.00    +0.000 A 
BRANCH  16  19
ATOM     19  C   UNL     1      -0.624  11.152  21.886  0.00  0.00    +0.000 C 
ATOM     20  N   UNL     1      -1.511  11.931  21.202  0.00  0.00    +0.000 N 
ATOM     21  O   UNL     1      -0.499  11.285  23.097  0.00  0.00    +0.000 OA
ATOM     22  H   UNL     1      -1.691  11.884  20.213  0.00  0.00    +0.000 HD
ATOM     23  H   UNL     1      -2.044  12.597  21.748  0.00  0.00    +0.000 HD
ENDBRANCH  16  19
ENDBRANCH   6  13
BRANCH   1  24
ATOM     24  C   UNL     1       6.391   4.358  15.596  0.00  0.00    +0.000 C 
BRANCH  24  26
ATOM     25  C   UNL     1       6.055   3.516  13.210  0.00  0.00    +0.000 C 
ATOM     26  C   UNL     1       6.229   4.726  14.114  0.00  0.00    +0.000 C 
ENDBRANCH  24  26
ENDBRANCH   1  24
BRANCH   9  27
ATOM     27  C   UNL     1       2.211   3.117  17.869  0.00  0.00    +0.000 C 
BRANCH  27  28
ATOM     28  C   UNL     1       2.301   2.528  19.278  0.00  0.00    +0.000 C 
ATOM     29  C   UNL     1       1.199   2.987  20.220  0.00  0.00    +0.000 C 
ENDBRANCH  27  28
ENDBRANCH   9  27
TORSDOF 6
ENDMDL
MODEL 8
REMARK VINA RESULT:      -7.5      2.530      2.733
REMARK  Name = 
REMARK  8 active torsions:
REMARK  status: ('A' for Active; 'I' for Inactive)
REMARK    1  A    between atoms: C_1  and  C_2
REMARK    2  A    between atoms: C_2  and  C_3
REMARK    3  A    between atoms: C_3  and  N_4
REMARK    4  A    between atoms: C_9  and  C_10
REMARK    5  A    between atoms: C_13  and  C_14
REMARK    6  A    between atoms: N_21  and  C_22
REMARK    7  A    between atoms: C_22  and  C_23
REMARK    8  A    between atoms: C_23  and  C_24
REMARK                            x       y       z     vdW  Elec       q    Type
REMARK                         _______ _______ _______ _____ _____    ______ ____
ROOT
ATOM      1  N   UNL     1       5.242   5.236  17.295  0.00  0.00    +0.000 N 
ATOM      2  C   UNL     1       4.850   6.453  16.693  0.00  0.00    +0.000 A 
ATOM      3  O   UNL     1       5.335   6.899  15.658  0.00  0.00    +0.000 OA
ATOM      4  C   UNL     1       3.805   7.135  17.423  0.00  0.00    +0.000 A 
ATOM      5  N   UNL     1       3.198   8.342  17.164  0.00  0.00    +0.000 NA
ATOM      6  C   UNL     1       2.310   8.520  18.134  0.00  0.00    +0.000 A 
ATOM      7  N   UNL     1       2.317   7.427  18.975  0.00  0.00    +0.000 N 
ATOM      8  C   UNL     1       3.282   6.571  18.549  0.00  0.00    +0.000 A 
ATOM      9  N   UNL     1       3.682   5.388  19.126  0.00  0.00    +0.000 N 
ATOM     10  C   UNL     1       4.770   4.726  18.527  0.00  0.00    +0.000 A 
ATOM     11  O   UNL     1       5.274   3.731  19.057  0.00  0.00    +0.000 OA
ATOM     12  H   UNL     1       1.742   7.316  19.796  0.00  0.00    +0.000 HD
ENDROOT
BRANCH   6  13
ATOM     13  C   UNL     1       1.443   9.686  18.324  0.00  0.00    +0.000 A 
ATOM     14  C   UNL     1       2.004  10.919  18.696  0.00  0.00    +0.000 A 
ATOM     15  C   UNL     1       1.204  12.055  18.887  0.00  0.00    +0.000 A 
ATOM     16  C   UNL     1      -0.181  11.978  18.710  0.00  0.00    +0.000 A 
ATOM     17  C   UNL     1      -0.748  10.750  18.346  0.00  0.00    +0.000 A 
ATOM     18  C   UNL     1       0.052   9.620  18.157  0.00  0.00    +0.000 A 
BRANCH  16  19
ATOM     19  C   UNL     1      -1.108  13.133  18.888  0.00  0.00    +0.000 C 
ATOM     20  N   UNL     1      -2.410  12.887  19.216  0.00  0.00    +0.000 N 
ATOM     21  O   UNL     1      -0.721  14.287  18.746  0.00  0.00    +0.000 OA
ATOM     22  H   UNL     1      -2.813  11.977  19.367  0.00  0.00    +0.000 HD
ATOM     23  H   UNL     1      -3.007  13.695  19.336  0.00  0.00    +0.000 HD
ENDBRANCH  16  19
ENDBRANCH   6  13
BRANCH   1  24
ATOM     24  C   UNL     1       6.279   4.465  16.613  0.00  0.00    +0.000 C 
BRANCH  24  26
ATOM     25  C   UNL     1       6.167   3.901  14.125  0.00  0.00    +0.000 C 
ATOM     26  C   UNL     1       5.736   3.518  15.532  0.00  0.00    +0.000 C 
ENDBRANCH  24  26
ENDBRANCH   1  24
BRANCH   9  27
ATOM     27  C   UNL     1       3.046   4.795  20.303  0.00  0.00    +0.000 C 
BRANCH  27  28
ATOM     28  C   UNL     1       1.720   4.084  20.027  0.00  0.00    +0.000 C 
ATOM     29  C   UNL     1       1.559   2.756  20.751  0.00  0.00    +0.000 C 
ENDBRANCH  27  28
ENDBRANCH   9  27
TORSDOF 6
ENDMDL
MODEL 9
REMARK VINA RESULT:      -7.5      1.422      1.926
REMARK  Name = 
REMARK  8 active torsions:
REMARK  status: ('A' for Active; 'I' for Inactive)
REMARK    1  A    between atoms: C_1  and  C_2
REMARK    2  A    between atoms: C_2  and  C_3
REMARK    3  A    between atoms: C_3  and  N_4
REMARK    4  A    between atoms: C_9  and  C_10
REMARK    5  A    between atoms: C_13  and  C_14
REMARK    6  A    between atoms: N_21  and  C_22
REMARK    7  A    between atoms: C_22  and  C_23
REMARK    8  A    between atoms: C_23  and  C_24
REMARK                            x       y       z     vdW  Elec       q    Type
REMARK                         _______ _______ _______ _____ _____    ______ ____
ROOT
ATOM      1  N   UNL     1       4.892   5.009  17.865  0.00  0.00    +0.000 N 
ATOM      2  C   UNL     1       4.470   6.261  17.365  0.00  0.00    +0.000 A 
ATOM      3  O   UNL     1       4.931   6.795  16.361  0.00  0.00    +0.000 OA
ATOM      4  C   UNL     1       3.425   6.865  18.160  0.00  0.00    +0.000 A 
ATOM      5  N   UNL     1       2.792   8.076  18.005  0.00  0.00    +0.000 NA
ATOM      6  C   UNL     1       1.917   8.162  18.998  0.00  0.00    +0.000 A 
ATOM      7  N   UNL     1       1.955   7.006  19.751  0.00  0.00    +0.000 N 
ATOM      8  C   UNL     1       2.929   6.204  19.246  0.00  0.00    +0.000 A 
ATOM      9  N   UNL     1       3.359   4.988  19.724  0.00  0.00    +0.000 N 
ATOM     10  C   UNL     1       4.449   4.396  19.059  0.00  0.00    +0.000 A 
ATOM     11  O   UNL     1       4.978   3.372  19.502  0.00  0.00    +0.000 OA
ATOM     12  H   UNL     1       1.395   6.821  20.569  0.00  0.00    +0.000 HD
ENDROOT
BRANCH   6  13
ATOM     13  C   UNL     1       1.032   9.293  19.291  0.00  0.00    +0.000 A 
ATOM     14  C   UNL     1       0.822   9.687  20.622  0.00  0.00    +0.000 A 
ATOM     15  C   UNL     1      -0.018  10.765  20.939  0.00  0.00    +0.000 A 
ATOM     16  C   UNL     1      -0.670  11.471  19.923  0.00  0.00    +0.000 A 
ATOM     17  C   UNL     1      -0.470  11.078  18.593  0.00  0.00    +0.000 A 
ATOM     18  C   UNL     1       0.367  10.004  18.282  0.00  0.00    +0.000 A 
BRANCH  16  19
ATOM     19  C   UNL     1      -1.577  12.629  20.165  0.00  0.00    +0.000 C 
ATOM     20  N   UNL     1      -1.431  13.750  19.400  0.00  0.00    +0.000 N 
ATOM     21  O   UNL     1      -2.443  12.589  21.032  0.00  0.00    +0.000 OA
ATOM     22  H   UNL     1      -0.761  13.870  18.659  0.00  0.00    +0.000 HD
ATOM     23  H   UNL     1      -2.070  14.513  19.588  0.00  0.00    +0.000 HD
ENDBRANCH  16  19
ENDBRANCH   6  13
BRANCH   1  24
ATOM     24  C   UNL     1       5.933   4.312  17.110  0.00  0.00    +0.000 C 
BRANCH  24  26
ATOM     25  C   UNL     1       7.655   5.442  18.618  0.00  0.00    +0.000 C 
ATOM     26  C   UNL     1       7.317   4.971  17.213  0.00  0.00    +0.000 C 
ENDBRANCH  24  26
ENDBRANCH   1  24
BRANCH   9  27
ATOM     27  C   UNL     1       2.751   4.293  20.859  0.00  0.00    +0.000 C 
BRANCH  27  28
ATOM     28  C   UNL     1       1.291   3.885  20.657  0.00  0.00    +0.000 C 
ATOM     29  C   UNL     1       1.052   2.991  19.450  0.00  0.00    +0.000 C 
ENDBRANCH  27  28
ENDBRANCH   9  27
TORSDOF 6
ENDMDL
