MODEL 1
REMARK VINA RESULT:      -8.8      0.000      0.000
REMARK  Name = 
REMARK  3 active torsions:
REMARK  status: ('A' for Active; 'I' for Inactive)
REMARK    1  A    between atoms: N_7  and  C_8
REMARK    2  A    between atoms: C_8  and  C_9
REMARK    3  A    between atoms: C_9  and  C_10
REMARK                            x       y       z     vdW  Elec       q    Type
REMARK                         _______ _______ _______ _____ _____    ______ ____
ROOT
ATOM      1  O   UNL     1       1.622   3.564  17.187  0.00  0.00    +0.000 OA
ATOM      2  C   UNL     1       2.276   4.386  17.832  0.00  0.00    +0.000 C 
ATOM      3  O   UNL     1       1.742   5.093  18.862  0.00  0.00    +0.000 OA
ATOM      4  C   UNL     1       2.304   6.375  19.270  0.00  0.00    +0.000 C 
ATOM      5  C   UNL     1       1.950   7.405  18.175  0.00  0.00    +0.000 C 
ATOM      6  C   UNL     1       2.022   8.868  18.613  0.00  0.00    +0.000 C 
ATOM      7  N   UNL     1       1.262   9.191  19.813  0.00  0.00    +0.000 NA
ATOM      8  C   UNL     1       1.679   8.279  20.904  0.00  0.00    +0.000 C 
ATOM      9  C   UNL     1       1.569   6.780  20.571  0.00  0.00    +0.000 C 
ATOM     10  C   UNL     1       3.810   6.132  19.536  0.00  0.00    +0.000 C 
ATOM     11  C   UNL     1       4.480   5.424  18.384  0.00  0.00    +0.000 A 
ATOM     12  C   UNL     1       5.861   5.506  18.171  0.00  0.00    +0.000 A 
ATOM     13  C   UNL     1       6.455   4.850  17.088  0.00  0.00    +0.000 A 
ATOM     14  C   UNL     1       5.678   4.093  16.213  0.00  0.00    +0.000 A 
ATOM     15  C   UNL     1       4.310   3.963  16.443  0.00  0.00    +0.000 A 
ATOM     16  C   UNL     1       3.719   4.615  17.538  0.00  0.00    +0.000 A 
ENDROOT
BRANCH   7  17
ATOM     17  C   UNL     1      -0.221   9.428  19.712  0.00  0.00    +0.000 C 
BRANCH  17  18
ATOM     18  C   UNL     1      -0.850  10.840  19.200  0.00  0.00    +0.000 C 
BRANCH  18  19
ATOM     19  C   UNL     1      -1.992  10.872  18.113  0.00  0.00    +0.000 A 
ATOM     20  C   UNL     1      -1.798  10.007  17.018  0.00  0.00    +0.000 A 
ATOM     21  C   UNL     1      -2.810   9.798  16.083  0.00  0.00    +0.000 A 
ATOM     22  C   UNL     1      -3.908  10.633  16.033  0.00  0.00    +0.000 A 
ATOM     23  C   UNL     1      -4.185  11.481  17.091  0.00  0.00    +0.000 A 
ATOM     24  C   UNL     1      -5.430  12.143  17.018  0.00  0.00    +0.000 A 
ATOM     25  C   UNL     1      -5.974  12.686  18.171  0.00  0.00    +0.000 A 
ATOM     26  C   UNL     1      -5.257  12.584  19.358  0.00  0.00    +0.000 A 
ATOM     27  C   UNL     1      -3.955  12.066  19.380  0.00  0.00    +0.000 A 
ATOM     28  C   UNL     1      -3.318  11.499  18.232  0.00  0.00    +0.000 A 
ENDBRANCH  18  19
ENDBRANCH  17  18
ENDBRANCH   7  17
TORSDOF 3
ENDMDL
MODEL 2
REMARK VINA RESULT:      -8.6      3.220      9.240
REMARK  Name = 
REMARK  3 active torsions:
REMARK  status: ('A' for Active; 'I' for Inactive)
REMARK    1  A    between atoms: N_7  and  C_8
REMARK    2  A    between atoms: C_8  and  C_9
REMARK    3  A    between atoms: C_9  and  C_10
REMARK                            x       y       z     vdW  Elec       q    Type
REMARK                         _______ _______ _______ _____ _____    ______ ____
ROOT
ATOM      1  O   UNL     1       2.610   9.295  17.115  0.00  0.00    +0.000 OA
ATOM      2  C   UNL     1       2.451   8.580  18.107  0.00  0.00    +0.000 C 
ATOM      3  O   UNL     1       3.264   7.527  18.383  0.00  0.00    +0.000 OA
ATOM      4  C   UNL     1       2.807   6.414  19.206  0.00  0.00    +0.000 C 
ATOM      5  C   UNL     1       1.787   5.610  18.371  0.00  0.00    +0.000 C 
ATOM      6  C   UNL     1       1.548   4.176  18.845  0.00  0.00    +0.000 C 
ATOM      7  N   UNL     1       2.752   3.370  19.004  0.00  0.00    +0.000 NA
ATOM      8  C   UNL     1       3.692   4.086  19.899  0.00  0.00    +0.000 C 
ATOM      9  C   UNL     1       4.044   5.518  19.455  0.00  0.00    +0.000 C 
ATOM     10  C   UNL     1       2.291   7.029  20.531  0.00  0.00    +0.000 C 
ATOM     11  C   UNL     1       1.313   8.152  20.288  0.00  0.00    +0.000 A 
ATOM     12  C   UNL     1       0.381   8.540  21.260  0.00  0.00    +0.000 A 
ATOM     13  C   UNL     1      -0.523   9.576  21.005  0.00  0.00    +0.000 A 
ATOM     14  C   UNL     1      -0.497  10.246  19.783  0.00  0.00    +0.000 A 
ATOM     15  C   UNL     1       0.459   9.904  18.829  0.00  0.00    +0.000 A 
ATOM     16  C   UNL     1       1.371   8.869  19.093  0.00  0.00    +0.000 A 
ENDROOT
BRANCH   7  17
ATOM     17  C   UNL     1       3.383   2.730  17.797  0.00  0.00    +0.000 C 
BRANCH  17  18
ATOM     18  C   UNL     1       3.593   3.527  16.392  0.00  0.00    +0.000 C 
BRANCH  18  19
ATOM     19  C   UNL     1       5.006   4.099  15.990  0.00  0.00    +0.000 A 
ATOM     20  C   UNL     1       5.851   4.421  17.071  0.00  0.00    +0.000 A 
ATOM     21  C   UNL     1       7.186   4.759  16.861  0.00  0.00    +0.000 A 
ATOM     22  C   UNL     1       7.644   5.070  15.596  0.00  0.00    +0.000 A 
ATOM     23  C   UNL     1       6.887   4.748  14.484  0.00  0.00    +0.000 A 
ATOM     24  C   UNL     1       7.535   4.935  13.243  0.00  0.00    +0.000 A 
ATOM     25  C   UNL     1       7.042   4.291  12.121  0.00  0.00    +0.000 A 
ATOM     26  C   UNL     1       5.904   3.502  12.251  0.00  0.00    +0.000 A 
ATOM     27  C   UNL     1       5.183   3.456  13.452  0.00  0.00    +0.000 A 
ATOM     28  C   UNL     1       5.618   4.103  14.652  0.00  0.00    +0.000 A 
ENDBRANCH  18  19
ENDBRANCH  17  18
ENDBRANCH   7  17
TORSDOF 3
ENDMDL
MODEL 3
REMARK VINA RESULT:      -8.6      6.288      9.241
REMARK  Name = 
REMARK  3 active torsions:
REMARK  status: ('A' for Active; 'I' for Inactive)
REMARK    1  A    between atoms: N_7  and  C_8
REMARK    2  A    between atoms: C_8  and  C_9
REMARK    3  A    between atoms: C_9  and  C_10
REMARK                            x       y       z     vdW  Elec       q    Type
REMARK                         _______ _______ _______ _____ _____    ______ ____
ROOT
ATOM      1  O   UNL     1       2.329   6.042  20.515  0.00  0.00    +0.000 OA
ATOM      2  C   UNL     1       3.210   5.454  19.884  0.00  0.00    +0.000 C 
ATOM      3  O   UNL     1       4.521   5.802  19.969  0.00  0.00    +0.000 OA
ATOM      4  C   UNL     1       5.456   5.490  18.895  0.00  0.00    +0.000 C 
ATOM      5  C   UNL     1       5.124   6.419  17.707  0.00  0.00    +0.000 C 
ATOM      6  C   UNL     1       6.248   6.592  16.685  0.00  0.00    +0.000 C 
ATOM      7  N   UNL     1       7.532   6.996  17.242  0.00  0.00    +0.000 NA
ATOM      8  C   UNL     1       7.914   6.041  18.309  0.00  0.00    +0.000 C 
ATOM      9  C   UNL     1       6.864   5.861  19.421  0.00  0.00    +0.000 C 
ATOM     10  C   UNL     1       5.342   3.967  18.640  0.00  0.00    +0.000 C 
ATOM     11  C   UNL     1       3.910   3.531  18.452  0.00  0.00    +0.000 A 
ATOM     12  C   UNL     1       3.581   2.354  17.767  0.00  0.00    +0.000 A 
ATOM     13  C   UNL     1       2.244   1.980  17.596  0.00  0.00    +0.000 A 
ATOM     14  C   UNL     1       1.222   2.771  18.117  0.00  0.00    +0.000 A 
ATOM     15  C   UNL     1       1.537   3.917  18.843  0.00  0.00    +0.000 A 
ATOM     16  C   UNL     1       2.882   4.284  19.022  0.00  0.00    +0.000 A 
ENDROOT
BRANCH   7  17
ATOM     17  C   UNL     1       7.778   8.445  17.567  0.00  0.00    +0.000 C 
BRANCH  17  18
ATOM     18  C   UNL     1       8.675   8.918  18.842  0.00  0.00    +0.000 C 
BRANCH  18  19
ATOM     19  C   UNL     1       9.298  10.365  18.902  0.00  0.00    +0.000 A 
ATOM     20  C   UNL     1       9.626  10.927  17.652  0.00  0.00    +0.000 A 
ATOM     21  C   UNL     1      10.009  12.262  17.545  0.00  0.00    +0.000 A 
ATOM     22  C   UNL     1      10.356  12.988  18.666  0.00  0.00    +0.000 A 
ATOM     23  C   UNL     1      10.030  12.519  19.927  0.00  0.00    +0.000 A 
ATOM     24  C   UNL     1      10.258  13.429  20.982  0.00  0.00    +0.000 A 
ATOM     25  C   UNL     1       9.619  13.229  22.194  0.00  0.00    +0.000 A 
ATOM     26  C   UNL     1       8.794  12.119  22.338  0.00  0.00    +0.000 A 
ATOM     27  C   UNL     1       8.705  11.143  21.336  0.00  0.00    +0.000 A 
ATOM     28  C   UNL     1       9.343  11.268  20.062  0.00  0.00    +0.000 A 
ENDBRANCH  18  19
ENDBRANCH  17  18
ENDBRANCH   7  17
TORSDOF 3
ENDMDL
MODEL 4
REMARK VINA RESULT:      -8.5      6.187      9.506
REMARK  Name = 
REMARK  3 active torsions:
REMARK  status: ('A' for Active; 'I' for Inactive)
REMARK    1  A    between atoms: N_7  and  C_8
REMARK    2  A    between atoms: C_8  and  C_9
REMARK    3  A    between atoms: C_9  and  C_10
REMARK                            x       y       z     vdW  Elec       q    Type
REMARK                         _______ _______ _______ _____ _____    ______ ____
ROOT
ATOM      1  O   UNL     1       1.973   6.167  20.151  0.00  0.00    +0.000 OA
ATOM      2  C   UNL     1       2.941   5.555  19.694  0.00  0.00    +0.000 C 
ATOM      3  O   UNL     1       4.214   6.011  19.820  0.00  0.00    +0.000 OA
ATOM      4  C   UNL     1       5.258   5.606  18.886  0.00  0.00    +0.000 C 
ATOM      5  C   UNL     1       4.973   6.309  17.541  0.00  0.00    +0.000 C 
ATOM      6  C   UNL     1       6.169   6.403  16.593  0.00  0.00    +0.000 C 
ATOM      7  N   UNL     1       7.371   6.987  17.173  0.00  0.00    +0.000 NA
ATOM      8  C   UNL     1       7.718   6.243  18.407  0.00  0.00    +0.000 C 
ATOM      9  C   UNL     1       6.588   6.161  19.450  0.00  0.00    +0.000 C 
ATOM     10  C   UNL     1       5.263   4.058  18.876  0.00  0.00    +0.000 C 
ATOM     11  C   UNL     1       3.883   3.490  18.653  0.00  0.00    +0.000 A 
ATOM     12  C   UNL     1       3.690   2.198  18.147  0.00  0.00    +0.000 A 
ATOM     13  C   UNL     1       2.400   1.701  17.937  0.00  0.00    +0.000 A 
ATOM     14  C   UNL     1       1.287   2.483  18.244  0.00  0.00    +0.000 A 
ATOM     15  C   UNL     1       1.466   3.750  18.794  0.00  0.00    +0.000 A 
ATOM     16  C   UNL     1       2.764   4.242  19.012  0.00  0.00    +0.000 A 
ENDROOT
BRANCH   7  17
ATOM     17  C   UNL     1       7.496   8.484  17.273  0.00  0.00    +0.000 C 
BRANCH  17  18
ATOM     18  C   UNL     1       8.598   9.208  18.229  0.00  0.00    +0.000 C 
BRANCH  18  19
ATOM     19  C   UNL     1       8.931  10.741  18.063  0.00  0.00    +0.000 A 
ATOM     20  C   UNL     1       7.875  11.531  17.568  0.00  0.00    +0.000 A 
ATOM     21  C   UNL     1       7.970  12.922  17.547  0.00  0.00    +0.000 A 
ATOM     22  C   UNL     1       9.185  13.548  17.733  0.00  0.00    +0.000 A 
ATOM     23  C   UNL     1      10.257  12.845  18.254  0.00  0.00    +0.000 A 
ATOM     24  C   UNL     1      11.385  13.629  18.581  0.00  0.00    +0.000 A 
ATOM     25  C   UNL     1      12.333  13.117  19.451  0.00  0.00    +0.000 A 
ATOM     26  C   UNL     1      12.154  11.832  19.951  0.00  0.00    +0.000 A 
ATOM     27  C   UNL     1      11.114  11.011  19.492  0.00  0.00    +0.000 A 
ATOM     28  C   UNL     1      10.103  11.459  18.586  0.00  0.00    +0.000 A 
ENDBRANCH  18  19
ENDBRANCH  17  18
ENDBRANCH   7  17
TORSDOF 3
ENDMDL
MODEL 5
REMARK VINA RESULT:      -8.5      2.569      9.263
REMARK  Name = 
REMARK  3 active torsions:
REMARK  status: ('A' for Active; 'I' for Inactive)
REMARK    1  A    between atoms: N_7  and  C_8
REMARK    2  A    between atoms: C_8  and  C_9
REMARK    3  A    between atoms: C_9  and  C_10
REMARK                            x       y       z     vdW  Elec       q    Type
REMARK                         _______ _______ _______ _____ _____    ______ ____
ROOT
ATOM      1  O   UNL     1      -3.900  10.926  16.479  0.00  0.00    +0.000 OA
ATOM      2  C   UNL     1      -3.350  11.381  17.484  0.00  0.00    +0.000 C 
ATOM      3  O   UNL     1      -1.999  11.480  17.593  0.00  0.00    +0.000 OA
ATOM      4  C   UNL     1      -1.346  11.515  18.896  0.00  0.00    +0.000 C 
ATOM      5  C   UNL     1      -1.449  10.098  19.503  0.00  0.00    +0.000 C 
ATOM      6  C   UNL     1      -0.445   9.796  20.616  0.00  0.00    +0.000 C 
ATOM      7  N   UNL     1       0.949  10.053  20.276  0.00  0.00    +0.000 NA
ATOM      8  C   UNL     1       1.075  11.451  19.799  0.00  0.00    +0.000 C 
ATOM      9  C   UNL     1       0.147  11.820  18.628  0.00  0.00    +0.000 C 
ATOM     10  C   UNL     1      -2.013  12.663  19.692  0.00  0.00    +0.000 C 
ATOM     11  C   UNL     1      -3.519  12.558  19.680  0.00  0.00    +0.000 A 
ATOM     12  C   UNL     1      -4.307  13.160  20.669  0.00  0.00    +0.000 A 
ATOM     13  C   UNL     1      -5.701  13.036  20.641  0.00  0.00    +0.000 A 
ATOM     14  C   UNL     1      -6.322  12.322  19.619  0.00  0.00    +0.000 A 
ATOM     15  C   UNL     1      -5.552  11.762  18.602  0.00  0.00    +0.000 A 
ATOM     16  C   UNL     1      -4.154  11.896  18.628  0.00  0.00    +0.000 A 
ENDROOT
BRANCH   7  17
ATOM     17  C   UNL     1       1.720   9.035  19.480  0.00  0.00    +0.000 C 
BRANCH  17  18
ATOM     18  C   UNL     1       1.990   7.522  20.020  0.00  0.00    +0.000 C 
BRANCH  18  19
ATOM     19  C   UNL     1       2.422   6.374  19.029  0.00  0.00    +0.000 A 
ATOM     20  C   UNL     1       3.462   6.712  18.140  0.00  0.00    +0.000 A 
ATOM     21  C   UNL     1       4.065   5.743  17.341  0.00  0.00    +0.000 A 
ATOM     22  C   UNL     1       3.484   4.501  17.180  0.00  0.00    +0.000 A 
ATOM     23  C   UNL     1       2.484   4.084  18.041  0.00  0.00    +0.000 A 
ATOM     24  C   UNL     1       2.102   2.731  17.905  0.00  0.00    +0.000 A 
ATOM     25  C   UNL     1       1.422   2.115  18.942  0.00  0.00    +0.000 A 
ATOM     26  C   UNL     1       1.115   2.862  20.074  0.00  0.00    +0.000 A 
ATOM     27  C   UNL     1       1.360   4.241  20.126  0.00  0.00    +0.000 A 
ATOM     28  C   UNL     1       2.045   4.954  19.092  0.00  0.00    +0.000 A 
ENDBRANCH  18  19
ENDBRANCH  17  18
ENDBRANCH   7  17
TORSDOF 3
ENDMDL
MODEL 6
REMARK VINA RESULT:      -8.4      2.729      9.327
REMARK  Name = 
REMARK  3 active torsions:
REMARK  status: ('A' for Active; 'I' for Inactive)
REMARK    1  A    between atoms: N_7  and  C_8
REMARK    2  A    between atoms: C_8  and  C_9
REMARK    3  A    between atoms: C_9  and  C_10
REMARK                            x       y       z     vdW  Elec       q    Type
REMARK                         _______ _______ _______ _____ _____    ______ ____
ROOT
ATOM      1  O   UNL     1      -4.235  11.271  16.526  0.00  0.00    +0.000 OA
ATOM      2  C   UNL     1      -3.591  11.630  17.514  0.00  0.00    +0.000 C 
ATOM      3  O   UNL     1      -2.257  11.885  17.459  0.00  0.00    +0.000 OA
ATOM      4  C   UNL     1      -1.422  11.800  18.651  0.00  0.00    +0.000 C 
ATOM      5  C   UNL     1      -1.280  10.305  19.011  0.00  0.00    +0.000 C 
ATOM      6  C   UNL     1      -0.094   9.965  19.912  0.00  0.00    +0.000 C 
ATOM      7  N   UNL     1       1.198  10.451  19.442  0.00  0.00    +0.000 NA
ATOM      8  C   UNL     1       1.102  11.910  19.203  0.00  0.00    +0.000 C 
ATOM      9  C   UNL     1      -0.027  12.335  18.246  0.00  0.00    +0.000 C 
ATOM     10  C   UNL     1      -2.079  12.713  19.715  0.00  0.00    +0.000 C 
ATOM     11  C   UNL     1      -3.549  12.417  19.884  0.00  0.00    +0.000 A 
ATOM     12  C   UNL     1      -4.238  12.749  21.057  0.00  0.00    +0.000 A 
ATOM     13  C   UNL     1      -5.598  12.451  21.192  0.00  0.00    +0.000 A 
ATOM     14  C   UNL     1      -6.288  11.832  20.152  0.00  0.00    +0.000 A 
ATOM     15  C   UNL     1      -5.626  11.542  18.961  0.00  0.00    +0.000 A 
ATOM     16  C   UNL     1      -4.262  11.852  18.826  0.00  0.00    +0.000 A 
ENDROOT
BRANCH   7  17
ATOM     17  C   UNL     1       1.943   9.679  18.387  0.00  0.00    +0.000 C 
BRANCH  17  18
ATOM     18  C   UNL     1       1.573   8.140  18.002  0.00  0.00    +0.000 C 
BRANCH  18  19
ATOM     19  C   UNL     1       2.654   6.997  18.106  0.00  0.00    +0.000 A 
ATOM     20  C   UNL     1       3.862   7.253  17.428  0.00  0.00    +0.000 A 
ATOM     21  C   UNL     1       4.966   6.417  17.589  0.00  0.00    +0.000 A 
ATOM     22  C   UNL     1       4.829   5.175  18.174  0.00  0.00    +0.000 A 
ATOM     23  C   UNL     1       3.687   4.866  18.891  0.00  0.00    +0.000 A 
ATOM     24  C   UNL     1       3.738   3.648  19.604  0.00  0.00    +0.000 A 
ATOM     25  C   UNL     1       2.845   3.435  20.640  0.00  0.00    +0.000 A 
ATOM     26  C   UNL     1       1.906   4.420  20.925  0.00  0.00    +0.000 A 
ATOM     27  C   UNL     1       1.767   5.550  20.107  0.00  0.00    +0.000 A 
ATOM     28  C   UNL     1       2.640   5.837  19.011  0.00  0.00    +0.000 A 
ENDBRANCH  18  19
ENDBRANCH  17  18
ENDBRANCH   7  17
TORSDOF 3
ENDMDL
MODEL 7
REMARK VINA RESULT:      -8.3      2.404      8.781
REMARK  Name = 
REMARK  3 active torsions:
REMARK  status: ('A' for Active; 'I' for Inactive)
REMARK    1  A    between atoms: N_7  and  C_8
REMARK    2  A    between atoms: C_8  and  C_9
REMARK    3  A    between atoms: C_9  and  C_10
REMARK                            x       y       z     vdW  Elec       q    Type
REMARK                         _______ _______ _______ _____ _____    ______ ____
ROOT
ATOM      1  O   UNL     1      -2.640   9.740  16.261  0.00  0.00    +0.000 OA
ATOM      2  C   UNL     1      -2.441  10.428  17.265  0.00  0.00    +0.000 C 
ATOM      3  O   UNL     1      -1.194  10.678  17.739  0.00  0.00    +0.000 OA
ATOM      4  C   UNL     1      -0.972  11.022  19.139  0.00  0.00    +0.000 C 
ATOM      5  C   UNL     1      -1.202   9.741  19.971  0.00  0.00    +0.000 C 
ATOM      6  C   UNL     1      -0.577   9.754  21.367  0.00  0.00    +0.000 C 
ATOM      7  N   UNL     1       0.843  10.080  21.403  0.00  0.00    +0.000 NA
ATOM      8  C   UNL     1       1.057  11.368  20.703  0.00  0.00    +0.000 C 
ATOM      9  C   UNL     1       0.519  11.417  19.261  0.00  0.00    +0.000 C 
ATOM     10  C   UNL     1      -1.894  12.227  19.448  0.00  0.00    +0.000 C 
ATOM     11  C   UNL     1      -3.319  11.973  19.019  0.00  0.00    +0.000 A 
ATOM     12  C   UNL     1      -4.394  12.669  19.586  0.00  0.00    +0.000 A 
ATOM     13  C   UNL     1      -5.706  12.405  19.179  0.00  0.00    +0.000 A 
ATOM     14  C   UNL     1      -5.957  11.454  18.192  0.00  0.00    +0.000 A 
ATOM     15  C   UNL     1      -4.893  10.792  17.585  0.00  0.00    +0.000 A 
ATOM     16  C   UNL     1      -3.576  11.067  17.990  0.00  0.00    +0.000 A 
ENDROOT
BRANCH   7  17
ATOM     17  C   UNL     1       1.859   9.012  21.098  0.00  0.00    +0.000 C 
BRANCH  17  18
ATOM     18  C   UNL     1       1.482   7.427  21.069  0.00  0.00    +0.000 C 
BRANCH  18  19
ATOM     19  C   UNL     1       1.941   6.507  19.874  0.00  0.00    +0.000 A 
ATOM     20  C   UNL     1       2.816   7.117  18.953  0.00  0.00    +0.000 A 
ATOM     21  C   UNL     1       3.443   6.369  17.957  0.00  0.00    +0.000 A 
ATOM     22  C   UNL     1       3.015   5.091  17.661  0.00  0.00    +0.000 A 
ATOM     23  C   UNL     1       2.186   4.414  18.539  0.00  0.00    +0.000 A 
ATOM     24  C   UNL     1       1.971   3.053  18.230  0.00  0.00    +0.000 A 
ATOM     25  C   UNL     1       1.504   2.203  19.218  0.00  0.00    +0.000 A 
ATOM     26  C   UNL     1       1.236   2.728  20.477  0.00  0.00    +0.000 A 
ATOM     27  C   UNL     1       1.304   4.107  20.720  0.00  0.00    +0.000 A 
ATOM     28  C   UNL     1       1.763   5.052  19.750  0.00  0.00    +0.000 A 
ENDBRANCH  18  19
ENDBRANCH  17  18
ENDBRANCH   7  17
TORSDOF 3
ENDMDL
MODEL 8
REMARK VINA RESULT:      -8.3      3.069      9.034
REMARK  Name = 
REMARK  3 active torsions:
REMARK  status: ('A' for Active; 'I' for Inactive)
REMARK    1  A    between atoms: N_7  and  C_8
REMARK    2  A    between atoms: C_8  and  C_9
REMARK    3  A    between atoms: C_9  and  C_10
REMARK                            x       y       z     vdW  Elec       q    Type
REMARK                         _______ _______ _______ _____ _____    ______ ____
ROOT
ATOM      1  O   UNL     1      -0.577  10.490  23.625  0.00  0.00    +0.000 OA
ATOM      2  C   UNL     1      -0.788  10.889  22.478  0.00  0.00    +0.000 C 
ATOM      3  O   UNL     1      -0.650  10.086  21.392  0.00  0.00    +0.000 OA
ATOM      4  C   UNL     1      -0.391  10.642  20.069  0.00  0.00    +0.000 C 
ATOM      5  C   UNL     1       1.063  11.164  20.063  0.00  0.00    +0.000 C 
ATOM      6  C   UNL     1       1.680  11.346  18.676  0.00  0.00    +0.000 C 
ATOM      7  N   UNL     1       1.606  10.176  17.809  0.00  0.00    +0.000 NA
ATOM      8  C   UNL     1       0.194   9.736  17.719  0.00  0.00    +0.000 C 
ATOM      9  C   UNL     1      -0.485   9.461  19.073  0.00  0.00    +0.000 C 
ATOM     10  C   UNL     1      -1.506  11.683  19.802  0.00  0.00    +0.000 C 
ATOM     11  C   UNL     1      -1.649  12.661  20.943  0.00  0.00    +0.000 A 
ATOM     12  C   UNL     1      -2.223  13.926  20.761  0.00  0.00    +0.000 A 
ATOM     13  C   UNL     1      -2.332  14.818  21.833  0.00  0.00    +0.000 A 
ATOM     14  C   UNL     1      -1.882  14.452  23.100  0.00  0.00    +0.000 A 
ATOM     15  C   UNL     1      -1.356  13.178  23.304  0.00  0.00    +0.000 A 
ATOM     16  C   UNL     1      -1.257  12.281  22.227  0.00  0.00    +0.000 A 
ENDROOT
BRANCH   7  17
ATOM     17  C   UNL     1       2.611   9.067  17.971  0.00  0.00    +0.000 C 
BRANCH  17  18
ATOM     18  C   UNL     1       2.259   7.669  18.730  0.00  0.00    +0.000 C 
BRANCH  18  19
ATOM     19  C   UNL     1       2.759   6.288  18.155  0.00  0.00    +0.000 A 
ATOM     20  C   UNL     1       3.975   6.341  17.446  0.00  0.00    +0.000 A 
ATOM     21  C   UNL     1       4.622   5.174  17.046  0.00  0.00    +0.000 A 
ATOM     22  C   UNL     1       3.967   3.960  17.073  0.00  0.00    +0.000 A 
ATOM     23  C   UNL     1       2.787   3.821  17.784  0.00  0.00    +0.000 A 
ATOM     24  C   UNL     1       2.311   2.498  17.902  0.00  0.00    +0.000 A 
ATOM     25  C   UNL     1       1.392   2.197  18.894  0.00  0.00    +0.000 A 
ATOM     26  C   UNL     1       0.949   3.221  19.723  0.00  0.00    +0.000 A 
ATOM     27  C   UNL     1       1.311   4.556  19.491  0.00  0.00    +0.000 A 
ATOM     28  C   UNL     1       2.242   4.950  18.480  0.00  0.00    +0.000 A 
ENDBRANCH  18  19
ENDBRANCH  17  18
ENDBRANCH   7  17
TORSDOF 3
ENDMDL
MODEL 9
REMARK VINA RESULT:      -8.2      6.371      9.479
REMARK  Name = 
REMARK  3 active torsions:
REMARK  status: ('A' for Active; 'I' for Inactive)
REMARK    1  A    between atoms: N_7  and  C_8
REMARK    2  A    between atoms: C_8  and  C_9
REMARK    3  A    between atoms: C_9  and  C_10
REMARK                            x       y       z     vdW  Elec       q    Type
REMARK                         _______ _______ _______ _____ _____    ______ ____
ROOT
ATOM      1  O   UNL     1       5.161   2.478  20.498  0.00  0.00    +0.000 OA
ATOM      2  C   UNL     1       4.863   3.094  19.472  0.00  0.00    +0.000 C 
ATOM      3  O   UNL     1       5.799   3.558  18.604  0.00  0.00    +0.000 OA
ATOM      4  C   UNL     1       5.516   4.680  17.717  0.00  0.00    +0.000 C 
ATOM      5  C   UNL     1       5.464   5.955  18.586  0.00  0.00    +0.000 C 
ATOM      6  C   UNL     1       5.651   7.267  17.824  0.00  0.00    +0.000 C 
ATOM      7  N   UNL     1       6.842   7.329  16.985  0.00  0.00    +0.000 NA
ATOM      8  C   UNL     1       6.841   6.165  16.067  0.00  0.00    +0.000 C 
ATOM      9  C   UNL     1       6.727   4.795  16.760  0.00  0.00    +0.000 C 
ATOM     10  C   UNL     1       4.228   4.313  16.939  0.00  0.00    +0.000 C 
ATOM     11  C   UNL     1       3.119   3.871  17.862  0.00  0.00    +0.000 A 
ATOM     12  C   UNL     1       1.772   3.939  17.482  0.00  0.00    +0.000 A 
ATOM     13  C   UNL     1       0.763   3.534  18.361  0.00  0.00    +0.000 A 
ATOM     14  C   UNL     1       1.087   3.043  19.625  0.00  0.00    +0.000 A 
ATOM     15  C   UNL     1       2.425   2.923  19.995  0.00  0.00    +0.000 A 
ATOM     16  C   UNL     1       3.436   3.322  19.105  0.00  0.00    +0.000 A 
ENDROOT
BRANCH   7  17
ATOM     17  C   UNL     1       8.174   7.649  17.608  0.00  0.00    +0.000 C 
BRANCH  17  18
ATOM     18  C   UNL     1       8.368   8.850  18.692  0.00  0.00    +0.000 C 
BRANCH  18  19
ATOM     19  C   UNL     1       8.694  10.319  18.221  0.00  0.00    +0.000 A 
ATOM     20  C   UNL     1       7.665  10.959  17.502  0.00  0.00    +0.000 A 
ATOM     21  C   UNL     1       7.745  12.314  17.189  0.00  0.00    +0.000 A 
ATOM     22  C   UNL     1       8.939  12.996  17.312  0.00  0.00    +0.000 A 
ATOM     23  C   UNL     1       9.982  12.449  18.038  0.00  0.00    +0.000 A 
ATOM     24  C   UNL     1      11.076  13.312  18.259  0.00  0.00    +0.000 A 
ATOM     25  C   UNL     1      11.970  13.022  19.277  0.00  0.00    +0.000 A 
ATOM     26  C   UNL     1      11.772  11.869  20.029  0.00  0.00    +0.000 A 
ATOM     27  C   UNL     1      10.775  10.943  19.693  0.00  0.00    +0.000 A 
ATOM     28  C   UNL     1       9.821  11.162  18.650  0.00  0.00    +0.000 A 
ENDBRANCH  18  19
ENDBRANCH  17  18
ENDBRANCH   7  17
TORSDOF 3
ENDMDL
