MODEL 1
REMARK VINA RESULT:      -7.1      0.000      0.000
REMARK  Name = 
REMARK  12 active torsions:
REMARK  status: ('A' for Active; 'I' for Inactive)
REMARK    1  A    between atoms: C_1  and  C_2
REMARK    2  A    between atoms: C_2  and  O_3
REMARK    3  A    between atoms: O_3  and  C_4
REMARK    4  A    between atoms: C_6  and  C_7
REMARK    5  A    between atoms: N_12  and  C_13
REMARK    6  A    between atoms: C_13  and  C_14
REMARK    7  A    between atoms: C_14  and  C_15
REMARK    8  A    between atoms: C_15  and  C_16
REMARK    9  A    between atoms: C_16  and  C_17
REMARK   10  A    between atoms: C_17  and  C_18
REMARK   11  A    between atoms: C_18  and  O_20
REMARK   12  A    between atoms: C_25  and  O_26
REMARK                            x       y       z     vdW  Elec       q    Type
REMARK                         _______ _______ _______ _____ _____    ______ ____
ROOT
ATOM      1  C   UNL     1       2.626   7.454  17.788  0.00  0.00    +0.000 C 
ATOM      2  C   UNL     1       2.061   8.151  18.780  0.00  0.00    +0.000 C 
ATOM      3  S   UNL     1       1.789   7.610  20.388  0.00  0.00    +0.000 S 
ATOM      4  C   UNL     1       0.953   9.082  20.847  0.00  0.00    +0.000 C 
ATOM      5  S   UNL     1       0.257   9.223  22.355  0.00  0.00    +0.000 S 
ATOM      6  N   UNL     1       0.985   9.988  19.802  0.00  0.00    +0.000 N 
ATOM      7  C   UNL     1       1.544   9.535  18.616  0.00  0.00    +0.000 C 
ATOM      8  O   UNL     1       1.597  10.144  17.555  0.00  0.00    +0.000 OA
ENDROOT
BRANCH   1  11
ATOM      9  C   UNL     1       4.899   4.509  18.436  0.00  0.00    +0.000 A 
ATOM     10  C   UNL     1       4.453   5.810  18.175  0.00  0.00    +0.000 A 
ATOM     11  C   UNL     1       3.094   6.075  17.959  0.00  0.00    +0.000 A 
ATOM     12  C   UNL     1       2.168   5.034  18.017  0.00  0.00    +0.000 A 
ATOM     13  C   UNL     1       2.601   3.733  18.290  0.00  0.00    +0.000 A 
ATOM     14  C   UNL     1       3.958   3.472  18.496  0.00  0.00    +0.000 A 
BRANCH  14  15
ATOM     15  O   UNL     1       4.335   2.190  18.787  0.00  0.00    +0.000 OA
ATOM     16  H   UNL     1       4.892   2.197  19.582  0.00  0.00    +0.000 HD
ENDBRANCH  14  15
BRANCH   9  17
ATOM     17  O   UNL     1       6.249   4.429  18.663  0.00  0.00    +0.000 OA
BRANCH  17  19
ATOM     18  C   UNL     1       7.885   6.179  18.630  0.00  0.00    +0.000 C 
ATOM     19  C   UNL     1       6.831   5.460  19.459  0.00  0.00    +0.000 C 
ENDBRANCH  17  19
ENDBRANCH   9  17
ENDBRANCH   1  11
BRANCH   6  20
ATOM     20  C   UNL     1       0.361  11.314  19.803  0.00  0.00    +0.000 C 
BRANCH  20  21
ATOM     21  C   UNL     1      -1.139  11.338  19.512  0.00  0.00    +0.000 C 
BRANCH  21  22
ATOM     22  C   UNL     1      -1.538  11.732  18.088  0.00  0.00    +0.000 C 
BRANCH  22  23
ATOM     23  C   UNL     1      -2.668  10.797  17.639  0.00  0.00    +0.000 C 
BRANCH  23  24
ATOM     24  C   UNL     1      -2.295   9.911  16.461  0.00  0.00    +0.000 C 
BRANCH  24  25
ATOM     25  C   UNL     1      -3.169  10.221  15.256  0.00  0.00    +0.000 C 
ATOM     26  O   UNL     1      -2.864  10.010  14.090  0.00  0.00    +0.000 OA
BRANCH  25  27
ATOM     27  O   UNL     1      -4.346  10.771  15.611  0.00  0.00    +0.000 OA
ATOM     28  H   UNL     1      -4.301  11.316  16.421  0.00  0.00    +0.000 HD
ENDBRANCH  25  27
ENDBRANCH  24  25
ENDBRANCH  23  24
ENDBRANCH  22  23
ENDBRANCH  21  22
ENDBRANCH  20  21
ENDBRANCH   6  20
TORSDOF 11
ENDMDL
MODEL 2
REMARK VINA RESULT:      -6.9      1.113      2.557
REMARK  Name = 
REMARK  12 active torsions:
REMARK  status: ('A' for Active; 'I' for Inactive)
REMARK    1  A    between atoms: C_1  and  C_2
REMARK    2  A    between atoms: C_2  and  O_3
REMARK    3  A    between atoms: O_3  and  C_4
REMARK    4  A    between atoms: C_6  and  C_7
REMARK    5  A    between atoms: N_12  and  C_13
REMARK    6  A    between atoms: C_13  and  C_14
REMARK    7  A    between atoms: C_14  and  C_15
REMARK    8  A    between atoms: C_15  and  C_16
REMARK    9  A    between atoms: C_16  and  C_17
REMARK   10  A    between atoms: C_17  and  C_18
REMARK   11  A    between atoms: C_18  and  O_20
REMARK   12  A    between atoms: C_25  and  O_26
REMARK                            x       y       z     vdW  Elec       q    Type
REMARK                         _______ _______ _______ _____ _____    ______ ____
ROOT
ATOM      1  C   UNL     1       2.822   7.599  17.816  0.00  0.00    +0.000 C 
ATOM      2  C   UNL     1       2.146   8.323  18.716  0.00  0.00    +0.000 C 
ATOM      3  S   UNL     1       1.601   7.794  20.256  0.00  0.00    +0.000 S 
ATOM      4  C   UNL     1       0.779   9.307  20.594  0.00  0.00    +0.000 C 
ATOM      5  S   UNL     1      -0.135   9.482  21.977  0.00  0.00    +0.000 S 
ATOM      6  N   UNL     1       1.018  10.212  19.575  0.00  0.00    +0.000 N 
ATOM      7  C   UNL     1       1.731   9.731  18.485  0.00  0.00    +0.000 C 
ATOM      8  O   UNL     1       1.978  10.339  17.452  0.00  0.00    +0.000 OA
ENDROOT
BRANCH   1  11
ATOM      9  C   UNL     1       2.594   3.835  18.013  0.00  0.00    +0.000 A 
ATOM     10  C   UNL     1       2.235   5.183  17.892  0.00  0.00    +0.000 A 
ATOM     11  C   UNL     1       3.188   6.198  18.045  0.00  0.00    +0.000 A 
ATOM     12  C   UNL     1       4.518   5.866  18.308  0.00  0.00    +0.000 A 
ATOM     13  C   UNL     1       4.890   4.523  18.417  0.00  0.00    +0.000 A 
ATOM     14  C   UNL     1       3.933   3.514  18.273  0.00  0.00    +0.000 A 
BRANCH  14  15
ATOM     15  O   UNL     1       4.345   2.213  18.361  0.00  0.00    +0.000 OA
ATOM     16  H   UNL     1       4.573   2.015  19.284  0.00  0.00    +0.000 HD
ENDBRANCH  14  15
BRANCH   9  17
ATOM     17  O   UNL     1       1.553   2.970  17.796  0.00  0.00    +0.000 OA
BRANCH  17  19
ATOM     18  C   UNL     1       0.812   3.127  20.070  0.00  0.00    +0.000 C 
ATOM     19  C   UNL     1       1.121   2.190  18.911  0.00  0.00    +0.000 C 
ENDBRANCH  17  19
ENDBRANCH   9  17
ENDBRANCH   1  11
BRANCH   6  20
ATOM     20  C   UNL     1       0.469  11.567  19.491  0.00  0.00    +0.000 C 
BRANCH  20  21
ATOM     21  C   UNL     1      -0.693  11.750  18.515  0.00  0.00    +0.000 C 
BRANCH  21  22
ATOM     22  C   UNL     1      -2.049  11.216  18.981  0.00  0.00    +0.000 C 
BRANCH  22  23
ATOM     23  C   UNL     1      -2.424  10.031  18.083  0.00  0.00    +0.000 C 
BRANCH  23  24
ATOM     24  C   UNL     1      -1.983  10.198  16.637  0.00  0.00    +0.000 C 
BRANCH  24  25
ATOM     25  C   UNL     1      -3.138  10.679  15.774  0.00  0.00    +0.000 C 
ATOM     26  O   UNL     1      -4.043  11.412  16.150  0.00  0.00    +0.000 OA
BRANCH  25  27
ATOM     27  O   UNL     1      -3.067  10.199  14.517  0.00  0.00    +0.000 OA
ATOM     28  H   UNL     1      -2.290  10.517  14.016  0.00  0.00    +0.000 HD
ENDBRANCH  25  27
ENDBRANCH  24  25
ENDBRANCH  23  24
ENDBRANCH  22  23
ENDBRANCH  21  22
ENDBRANCH  20  21
ENDBRANCH   6  20
TORSDOF 11
ENDMDL
MODEL 3
REMARK VINA RESULT:      -6.8      1.399      1.518
REMARK  Name = 
REMARK  12 active torsions:
REMARK  status: ('A' for Active; 'I' for Inactive)
REMARK    1  A    between atoms: C_1  and  C_2
REMARK    2  A    between atoms: C_2  and  O_3
REMARK    3  A    between atoms: O_3  and  C_4
REMARK    4  A    between atoms: C_6  and  C_7
REMARK    5  A    between atoms: N_12  and  C_13
REMARK    6  A    between atoms: C_13  and  C_14
REMARK    7  A    between atoms: C_14  and  C_15
REMARK    8  A    between atoms: C_15  and  C_16
REMARK    9  A    between atoms: C_16  and  C_17
REMARK   10  A    between atoms: C_17  and  C_18
REMARK   11  A    between atoms: C_18  and  O_20
REMARK   12  A    between atoms: C_25  and  O_26
REMARK                            x       y       z     vdW  Elec       q    Type
REMARK                         _______ _______ _______ _____ _____    ______ ____
ROOT
ATOM      1  C   UNL     1       2.678   7.206  17.805  0.00  0.00    +0.000 C 
ATOM      2  C   UNL     1       2.118   7.945  18.771  0.00  0.00    +0.000 C 
ATOM      3  S   UNL     1       1.833   7.464  20.394  0.00  0.00    +0.000 S 
ATOM      4  C   UNL     1       1.016   8.962  20.799  0.00  0.00    +0.000 C 
ATOM      5  S   UNL     1       0.316   9.165  22.298  0.00  0.00    +0.000 S 
ATOM      6  N   UNL     1       1.065   9.832  19.724  0.00  0.00    +0.000 N 
ATOM      7  C   UNL     1       1.621   9.329  18.556  0.00  0.00    +0.000 C 
ATOM      8  O   UNL     1       1.687   9.901  17.476  0.00  0.00    +0.000 OA
ENDROOT
BRANCH   1  11
ATOM      9  C   UNL     1       4.886   4.260  18.641  0.00  0.00    +0.000 A 
ATOM     10  C   UNL     1       4.465   5.560  18.333  0.00  0.00    +0.000 A 
ATOM     11  C   UNL     1       3.125   5.828  18.025  0.00  0.00    +0.000 A 
ATOM     12  C   UNL     1       2.191   4.792  18.038  0.00  0.00    +0.000 A 
ATOM     13  C   UNL     1       2.598   3.494  18.357  0.00  0.00    +0.000 A 
ATOM     14  C   UNL     1       3.937   3.229  18.654  0.00  0.00    +0.000 A 
BRANCH  14  15
ATOM     15  O   UNL     1       4.287   1.949  18.987  0.00  0.00    +0.000 OA
ATOM     16  H   UNL     1       5.223   1.811  18.768  0.00  0.00    +0.000 HD
ENDBRANCH  14  15
BRANCH   9  17
ATOM     17  O   UNL     1       6.218   4.177  18.955  0.00  0.00    +0.000 OA
BRANCH  17  19
ATOM     18  C   UNL     1       7.931   5.838  19.173  0.00  0.00    +0.000 C 
ATOM     19  C   UNL     1       7.110   4.998  18.204  0.00  0.00    +0.000 C 
ENDBRANCH  17  19
ENDBRANCH   9  17
ENDBRANCH   1  11
BRANCH   6  20
ATOM     20  C   UNL     1       0.459  11.165  19.676  0.00  0.00    +0.000 C 
BRANCH  20  21
ATOM     21  C   UNL     1      -1.068  11.196  19.634  0.00  0.00    +0.000 C 
BRANCH  21  22
ATOM     22  C   UNL     1      -1.695  11.471  18.265  0.00  0.00    +0.000 C 
BRANCH  22  23
ATOM     23  C   UNL     1      -3.205  11.645  18.463  0.00  0.00    +0.000 C 
BRANCH  23  24
ATOM     24  C   UNL     1      -4.020  11.387  17.206  0.00  0.00    +0.000 C 
BRANCH  24  25
ATOM     25  C   UNL     1      -5.479  11.747  17.427  0.00  0.00    +0.000 C 
ATOM     26  O   UNL     1      -6.318  11.017  17.938  0.00  0.00    +0.000 OA
BRANCH  25  27
ATOM     27  O   UNL     1      -5.768  12.988  16.989  0.00  0.00    +0.000 OA
ATOM     28  H   UNL     1      -5.344  13.216  16.138  0.00  0.00    +0.000 HD
ENDBRANCH  25  27
ENDBRANCH  24  25
ENDBRANCH  23  24
ENDBRANCH  22  23
ENDBRANCH  21  22
ENDBRANCH  20  21
ENDBRANCH   6  20
TORSDOF 11
ENDMDL
MODEL 4
REMARK VINA RESULT:      -6.8      1.262      2.420
REMARK  Name = 
REMARK  12 active torsions:
REMARK  status: ('A' for Active; 'I' for Inactive)
REMARK    1  A    between atoms: C_1  and  C_2
REMARK    2  A    between atoms: C_2  and  O_3
REMARK    3  A    between atoms: O_3  and  C_4
REMARK    4  A    between atoms: C_6  and  C_7
REMARK    5  A    between atoms: N_12  and  C_13
REMARK    6  A    between atoms: C_13  and  C_14
REMARK    7  A    between atoms: C_14  and  C_15
REMARK    8  A    between atoms: C_15  and  C_16
REMARK    9  A    between atoms: C_16  and  C_17
REMARK   10  A    between atoms: C_17  and  C_18
REMARK   11  A    between atoms: C_18  and  O_20
REMARK   12  A    between atoms: C_25  and  O_26
REMARK                            x       y       z     vdW  Elec       q    Type
REMARK                         _______ _______ _______ _____ _____    ______ ____
ROOT
ATOM      1  C   UNL     1       2.650   8.001  17.875  0.00  0.00    +0.000 C 
ATOM      2  C   UNL     1       2.020   8.602  18.892  0.00  0.00    +0.000 C 
ATOM      3  S   UNL     1       1.589   7.890  20.395  0.00  0.00    +0.000 S 
ATOM      4  C   UNL     1       0.762   9.333  20.953  0.00  0.00    +0.000 C 
ATOM      5  S   UNL     1      -0.061   9.328  22.402  0.00  0.00    +0.000 S 
ATOM      6  N   UNL     1       0.916  10.352  20.030  0.00  0.00    +0.000 N 
ATOM      7  C   UNL     1       1.564  10.016  18.850  0.00  0.00    +0.000 C 
ATOM      8  O   UNL     1       1.730  10.741  17.878  0.00  0.00    +0.000 OA
ENDROOT
BRANCH   1  11
ATOM      9  C   UNL     1       2.483   4.246  18.227  0.00  0.00    +0.000 A 
ATOM     10  C   UNL     1       2.134   5.601  18.273  0.00  0.00    +0.000 A 
ATOM     11  C   UNL     1       3.057   6.594  17.920  0.00  0.00    +0.000 A 
ATOM     12  C   UNL     1       4.338   6.232  17.502  0.00  0.00    +0.000 A 
ATOM     13  C   UNL     1       4.692   4.881  17.439  0.00  0.00    +0.000 A 
ATOM     14  C   UNL     1       3.772   3.895  17.801  0.00  0.00    +0.000 A 
BRANCH  14  15
ATOM     15  O   UNL     1       4.151   2.585  17.699  0.00  0.00    +0.000 OA
ATOM     16  H   UNL     1       4.750   2.371  18.433  0.00  0.00    +0.000 HD
ENDBRANCH  14  15
BRANCH   9  17
ATOM     17  O   UNL     1       1.455   3.404  18.565  0.00  0.00    +0.000 OA
BRANCH  17  19
ATOM     18  C   UNL     1       1.647   2.575  20.805  0.00  0.00    +0.000 C 
ATOM     19  C   UNL     1       0.918   3.540  19.880  0.00  0.00    +0.000 C 
ENDBRANCH  17  19
ENDBRANCH   9  17
ENDBRANCH   1  11
BRANCH   6  20
ATOM     20  C   UNL     1       0.336  11.694  20.135  0.00  0.00    +0.000 C 
BRANCH  20  21
ATOM     21  C   UNL     1      -1.083  11.845  19.588  0.00  0.00    +0.000 C 
BRANCH  21  22
ATOM     22  C   UNL     1      -1.665  10.616  18.887  0.00  0.00    +0.000 C 
BRANCH  22  23
ATOM     23  C   UNL     1      -2.213  11.064  17.527  0.00  0.00    +0.000 C 
BRANCH  23  24
ATOM     24  C   UNL     1      -2.338   9.934  16.517  0.00  0.00    +0.000 C 
BRANCH  24  25
ATOM     25  C   UNL     1      -2.835  10.460  15.180  0.00  0.00    +0.000 C 
ATOM     26  O   UNL     1      -2.650   9.921  14.097  0.00  0.00    +0.000 OA
BRANCH  25  27
ATOM     27  O   UNL     1      -3.517  11.614  15.310  0.00  0.00    +0.000 OA
ATOM     28  H   UNL     1      -3.873  11.765  16.207  0.00  0.00    +0.000 HD
ENDBRANCH  25  27
ENDBRANCH  24  25
ENDBRANCH  23  24
ENDBRANCH  22  23
ENDBRANCH  21  22
ENDBRANCH  20  21
ENDBRANCH   6  20
TORSDOF 11
ENDMDL
MODEL 5
REMARK VINA RESULT:      -6.6      2.582      3.871
REMARK  Name = 
REMARK  12 active torsions:
REMARK  status: ('A' for Active; 'I' for Inactive)
REMARK    1  A    between atoms: C_1  and  C_2
REMARK    2  A    between atoms: C_2  and  O_3
REMARK    3  A    between atoms: O_3  and  C_4
REMARK    4  A    between atoms: C_6  and  C_7
REMARK    5  A    between atoms: N_12  and  C_13
REMARK    6  A    between atoms: C_13  and  C_14
REMARK    7  A    between atoms: C_14  and  C_15
REMARK    8  A    between atoms: C_15  and  C_16
REMARK    9  A    between atoms: C_16  and  C_17
REMARK   10  A    between atoms: C_17  and  C_18
REMARK   11  A    between atoms: C_18  and  O_20
REMARK   12  A    between atoms: C_25  and  O_26
REMARK                            x       y       z     vdW  Elec       q    Type
REMARK                         _______ _______ _______ _____ _____    ______ ____
ROOT
ATOM      1  C   UNL     1       2.823   7.395  17.929  0.00  0.00    +0.000 C 
ATOM      2  C   UNL     1       2.112   8.104  18.815  0.00  0.00    +0.000 C 
ATOM      3  S   UNL     1       1.774   7.670  20.441  0.00  0.00    +0.000 S 
ATOM      4  C   UNL     1       0.756   9.073  20.708  0.00  0.00    +0.000 C 
ATOM      5  S   UNL     1      -0.067   9.259  22.146  0.00  0.00    +0.000 S 
ATOM      6  N   UNL     1       0.774   9.889  19.591  0.00  0.00    +0.000 N 
ATOM      7  C   UNL     1       1.468   9.404  18.491  0.00  0.00    +0.000 C 
ATOM      8  O   UNL     1       1.539   9.927  17.387  0.00  0.00    +0.000 OA
ENDROOT
BRANCH   1  11
ATOM      9  C   UNL     1       5.263   4.796  19.171  0.00  0.00    +0.000 A 
ATOM     10  C   UNL     1       4.719   6.021  18.765  0.00  0.00    +0.000 A 
ATOM     11  C   UNL     1       3.417   6.096  18.255  0.00  0.00    +0.000 A 
ATOM     12  C   UNL     1       2.643   4.939  18.161  0.00  0.00    +0.000 A 
ATOM     13  C   UNL     1       3.171   3.713  18.575  0.00  0.00    +0.000 A 
ATOM     14  C   UNL     1       4.474   3.642  19.075  0.00  0.00    +0.000 A 
BRANCH  14  15
ATOM     15  O   UNL     1       4.943   2.427  19.494  0.00  0.00    +0.000 OA
ATOM     16  H   UNL     1       5.117   2.468  20.448  0.00  0.00    +0.000 HD
ENDBRANCH  14  15
BRANCH   9  17
ATOM     17  O   UNL     1       6.531   4.903  19.683  0.00  0.00    +0.000 OA
BRANCH  17  19
ATOM     18  C   UNL     1       7.760   4.578  17.651  0.00  0.00    +0.000 C 
ATOM     19  C   UNL     1       7.517   5.497  18.840  0.00  0.00    +0.000 C 
ENDBRANCH  17  19
ENDBRANCH   9  17
ENDBRANCH   1  11
BRANCH   6  20
ATOM     20  C   UNL     1       0.016  11.133  19.430  0.00  0.00    +0.000 C 
BRANCH  20  21
ATOM     21  C   UNL     1       0.755  12.411  19.825  0.00  0.00    +0.000 C 
BRANCH  21  22
ATOM     22  C   UNL     1       1.324  13.240  18.671  0.00  0.00    +0.000 C 
BRANCH  22  23
ATOM     23  C   UNL     1       2.404  14.165  19.243  0.00  0.00    +0.000 C 
BRANCH  23  24
ATOM     24  C   UNL     1       2.201  15.631  18.892  0.00  0.00    +0.000 C 
BRANCH  24  25
ATOM     25  C   UNL     1       3.149  16.055  17.782  0.00  0.00    +0.000 C 
ATOM     26  O   UNL     1       4.063  15.375  17.336  0.00  0.00    +0.000 OA
BRANCH  25  27
ATOM     27  O   UNL     1       2.876  17.293  17.327  0.00  0.00    +0.000 OA
ATOM     28  H   UNL     1       3.670  17.841  17.167  0.00  0.00    +0.000 HD
ENDBRANCH  25  27
ENDBRANCH  24  25
ENDBRANCH  23  24
ENDBRANCH  22  23
ENDBRANCH  21  22
ENDBRANCH  20  21
ENDBRANCH   6  20
TORSDOF 11
ENDMDL
MODEL 6
REMARK VINA RESULT:      -6.5      1.557      2.820
REMARK  Name = 
REMARK  12 active torsions:
REMARK  status: ('A' for Active; 'I' for Inactive)
REMARK    1  A    between atoms: C_1  and  C_2
REMARK    2  A    between atoms: C_2  and  O_3
REMARK    3  A    between atoms: O_3  and  C_4
REMARK    4  A    between atoms: C_6  and  C_7
REMARK    5  A    between atoms: N_12  and  C_13
REMARK    6  A    between atoms: C_13  and  C_14
REMARK    7  A    between atoms: C_14  and  C_15
REMARK    8  A    between atoms: C_15  and  C_16
REMARK    9  A    between atoms: C_16  and  C_17
REMARK   10  A    between atoms: C_17  and  C_18
REMARK   11  A    between atoms: C_18  and  O_20
REMARK   12  A    between atoms: C_25  and  O_26
REMARK                            x       y       z     vdW  Elec       q    Type
REMARK                         _______ _______ _______ _____ _____    ______ ____
ROOT
ATOM      1  C   UNL     1       2.943   7.163  18.246  0.00  0.00    +0.000 C 
ATOM      2  C   UNL     1       2.175   7.961  18.997  0.00  0.00    +0.000 C 
ATOM      3  S   UNL     1       1.735   7.711  20.639  0.00  0.00    +0.000 S 
ATOM      4  C   UNL     1       0.697   9.125  20.678  0.00  0.00    +0.000 C 
ATOM      5  S   UNL     1      -0.217   9.465  22.030  0.00  0.00    +0.000 S 
ATOM      6  N   UNL     1       0.784   9.808  19.478  0.00  0.00    +0.000 N 
ATOM      7  C   UNL     1       1.548   9.209  18.487  0.00  0.00    +0.000 C 
ATOM      8  O   UNL     1       1.689   9.603  17.337  0.00  0.00    +0.000 OA
ENDROOT
BRANCH   1  11
ATOM      9  C   UNL     1       3.224   3.638  19.567  0.00  0.00    +0.000 A 
ATOM     10  C   UNL     1       2.688   4.869  19.170  0.00  0.00    +0.000 A 
ATOM     11  C   UNL     1       3.520   5.916  18.755  0.00  0.00    +0.000 A 
ATOM     12  C   UNL     1       4.902   5.730  18.722  0.00  0.00    +0.000 A 
ATOM     13  C   UNL     1       5.448   4.501  19.103  0.00  0.00    +0.000 A 
ATOM     14  C   UNL     1       4.614   3.462  19.525  0.00  0.00    +0.000 A 
BRANCH  14  15
ATOM     15  O   UNL     1       5.187   2.267  19.864  0.00  0.00    +0.000 OA
ATOM     16  H   UNL     1       4.852   1.576  19.270  0.00  0.00    +0.000 HD
ENDBRANCH  14  15
BRANCH   9  17
ATOM     17  O   UNL     1       2.273   2.710  19.906  0.00  0.00    +0.000 OA
BRANCH  17  19
ATOM     18  C   UNL     1       2.280   1.915  17.645  0.00  0.00    +0.000 C 
ATOM     19  C   UNL     1       1.422   2.248  18.857  0.00  0.00    +0.000 C 
ENDBRANCH  17  19
ENDBRANCH   9  17
ENDBRANCH   1  11
BRANCH   6  20
ATOM     20  C   UNL     1       0.034  11.018  19.128  0.00  0.00    +0.000 C 
BRANCH  20  21
ATOM     21  C   UNL     1      -1.449  10.811  18.825  0.00  0.00    +0.000 C 
BRANCH  21  22
ATOM     22  C   UNL     1      -1.773  10.165  17.476  0.00  0.00    +0.000 C 
BRANCH  22  23
ATOM     23  C   UNL     1      -3.139  10.689  17.018  0.00  0.00    +0.000 C 
BRANCH  23  24
ATOM     24  C   UNL     1      -3.931  11.375  18.120  0.00  0.00    +0.000 C 
BRANCH  24  25
ATOM     25  C   UNL     1      -5.423  11.162  17.923  0.00  0.00    +0.000 C 
ATOM     26  O   UNL     1      -6.143  10.491  18.650  0.00  0.00    +0.000 OA
BRANCH  25  27
ATOM     27  O   UNL     1      -5.888  11.804  16.833  0.00  0.00    +0.000 OA
ATOM     28  H   UNL     1      -5.331  12.555  16.548  0.00  0.00    +0.000 HD
ENDBRANCH  25  27
ENDBRANCH  24  25
ENDBRANCH  23  24
ENDBRANCH  22  23
ENDBRANCH  21  22
ENDBRANCH  20  21
ENDBRANCH   6  20
TORSDOF 11
ENDMDL
MODEL 7
REMARK VINA RESULT:      -6.5      2.376      8.490
REMARK  Name = 
REMARK  12 active torsions:
REMARK  status: ('A' for Active; 'I' for Inactive)
REMARK    1  A    between atoms: C_1  and  C_2
REMARK    2  A    between atoms: C_2  and  O_3
REMARK    3  A    between atoms: O_3  and  C_4
REMARK    4  A    between atoms: C_6  and  C_7
REMARK    5  A    between atoms: N_12  and  C_13
REMARK    6  A    between atoms: C_13  and  C_14
REMARK    7  A    between atoms: C_14  and  C_15
REMARK    8  A    between atoms: C_15  and  C_16
REMARK    9  A    between atoms: C_16  and  C_17
REMARK   10  A    between atoms: C_17  and  C_18
REMARK   11  A    between atoms: C_18  and  O_20
REMARK   12  A    between atoms: C_25  and  O_26
REMARK                            x       y       z     vdW  Elec       q    Type
REMARK                         _______ _______ _______ _____ _____    ______ ____
ROOT
ATOM      1  C   UNL     1       2.098   9.082  17.909  0.00  0.00    +0.000 C 
ATOM      2  C   UNL     1       2.363   7.904  18.486  0.00  0.00    +0.000 C 
ATOM      3  S   UNL     1       1.456   7.147  19.733  0.00  0.00    +0.000 S 
ATOM      4  C   UNL     1       2.587   5.814  19.881  0.00  0.00    +0.000 C 
ATOM      5  S   UNL     1       2.386   4.662  21.069  0.00  0.00    +0.000 S 
ATOM      6  N   UNL     1       3.572   5.921  18.915  0.00  0.00    +0.000 N 
ATOM      7  C   UNL     1       3.539   7.067  18.133  0.00  0.00    +0.000 C 
ATOM      8  O   UNL     1       4.358   7.393  17.284  0.00  0.00    +0.000 OA
ENDROOT
BRANCH   1  11
ATOM      9  C   UNL     1      -1.441  10.352  18.247  0.00  0.00    +0.000 A 
ATOM     10  C   UNL     1      -0.326   9.628  17.808  0.00  0.00    +0.000 A 
ATOM     11  C   UNL     1       0.954   9.912  18.299  0.00  0.00    +0.000 A 
ATOM     12  C   UNL     1       1.124  10.919  19.249  0.00  0.00    +0.000 A 
ATOM     13  C   UNL     1       0.016  11.639  19.704  0.00  0.00    +0.000 A 
ATOM     14  C   UNL     1      -1.259  11.359  19.205  0.00  0.00    +0.000 A 
BRANCH  14  15
ATOM     15  O   UNL     1      -2.319  12.069  19.696  0.00  0.00    +0.000 OA
ATOM     16  H   UNL     1      -3.029  11.451  19.935  0.00  0.00    +0.000 HD
ENDBRANCH  14  15
BRANCH   9  17
ATOM     17  O   UNL     1      -2.623   9.923  17.699  0.00  0.00    +0.000 OA
BRANCH  17  19
ATOM     18  C   UNL     1      -2.980  11.042  15.610  0.00  0.00    +0.000 C 
ATOM     19  C   UNL     1      -2.642   9.721  16.286  0.00  0.00    +0.000 C 
ENDBRANCH  17  19
ENDBRANCH   9  17
ENDBRANCH   1  11
BRANCH   6  20
ATOM     20  C   UNL     1       4.708   5.011  18.750  0.00  0.00    +0.000 C 
BRANCH  20  21
ATOM     21  C   UNL     1       4.354   3.580  18.346  0.00  0.00    +0.000 C 
BRANCH  21  22
ATOM     22  C   UNL     1       3.957   3.376  16.883  0.00  0.00    +0.000 C 
BRANCH  22  23
ATOM     23  C   UNL     1       4.777   4.352  16.031  0.00  0.00    +0.000 C 
BRANCH  23  24
ATOM     24  C   UNL     1       6.056   3.748  15.472  0.00  0.00    +0.000 C 
BRANCH  24  25
ATOM     25  C   UNL     1       7.267   4.562  15.901  0.00  0.00    +0.000 C 
ATOM     26  O   UNL     1       7.896   4.399  16.937  0.00  0.00    +0.000 OA
BRANCH  25  27
ATOM     27  O   UNL     1       7.586   5.510  14.999  0.00  0.00    +0.000 OA
ATOM     28  H   UNL     1       8.452   5.933  15.159  0.00  0.00    +0.000 HD
ENDBRANCH  25  27
ENDBRANCH  24  25
ENDBRANCH  23  24
ENDBRANCH  22  23
ENDBRANCH  21  22
ENDBRANCH  20  21
ENDBRANCH   6  20
TORSDOF 11
ENDMDL
MODEL 8
REMARK VINA RESULT:      -6.5      2.617      4.676
REMARK  Name = 
REMARK  12 active torsions:
REMARK  status: ('A' for Active; 'I' for Inactive)
REMARK    1  A    between atoms: C_1  and  C_2
REMARK    2  A    between atoms: C_2  and  O_3
REMARK    3  A    between atoms: O_3  and  C_4
REMARK    4  A    between atoms: C_6  and  C_7
REMARK    5  A    between atoms: N_12  and  C_13
REMARK    6  A    between atoms: C_13  and  C_14
REMARK    7  A    between atoms: C_14  and  C_15
REMARK    8  A    between atoms: C_15  and  C_16
REMARK    9  A    between atoms: C_16  and  C_17
REMARK   10  A    between atoms: C_17  and  C_18
REMARK   11  A    between atoms: C_18  and  O_20
REMARK   12  A    between atoms: C_25  and  O_26
REMARK                            x       y       z     vdW  Elec       q    Type
REMARK                         _______ _______ _______ _____ _____    ______ ____
ROOT
ATOM      1  C   UNL     1       2.811   7.220  18.218  0.00  0.00    +0.000 C 
ATOM      2  C   UNL     1       2.084   8.009  19.019  0.00  0.00    +0.000 C 
ATOM      3  S   UNL     1       1.681   7.709  20.661  0.00  0.00    +0.000 S 
ATOM      4  C   UNL     1       0.683   9.147  20.781  0.00  0.00    +0.000 C 
ATOM      5  S   UNL     1      -0.185   9.460  22.169  0.00  0.00    +0.000 S 
ATOM      6  N   UNL     1       0.758   9.873  19.605  0.00  0.00    +0.000 N 
ATOM      7  C   UNL     1       1.479   9.291  18.573  0.00  0.00    +0.000 C 
ATOM      8  O   UNL     1       1.600   9.725  17.434  0.00  0.00    +0.000 OA
ENDROOT
BRANCH   1  11
ATOM      9  C   UNL     1       3.061   3.578  19.180  0.00  0.00    +0.000 A 
ATOM     10  C   UNL     1       2.531   4.830  18.848  0.00  0.00    +0.000 A 
ATOM     11  C   UNL     1       3.366   5.940  18.666  0.00  0.00    +0.000 A 
ATOM     12  C   UNL     1       4.747   5.796  18.803  0.00  0.00    +0.000 A 
ATOM     13  C   UNL     1       5.288   4.547  19.121  0.00  0.00    +0.000 A 
ATOM     14  C   UNL     1       4.450   3.446  19.311  0.00  0.00    +0.000 A 
BRANCH  14  15
ATOM     15  O   UNL     1       5.022   2.236  19.596  0.00  0.00    +0.000 OA
ATOM     16  H   UNL     1       4.534   1.819  20.324  0.00  0.00    +0.000 HD
ENDBRANCH  14  15
BRANCH   9  17
ATOM     17  O   UNL     1       2.112   2.592  19.283  0.00  0.00    +0.000 OA
BRANCH  17  19
ATOM     18  C   UNL     1       1.640   2.677  21.631  0.00  0.00    +0.000 C 
ATOM     19  C   UNL     1       1.064   2.804  20.228  0.00  0.00    +0.000 C 
ENDBRANCH  17  19
ENDBRANCH   9  17
ENDBRANCH   1  11
BRANCH   6  20
ATOM     20  C   UNL     1       0.032  11.114  19.321  0.00  0.00    +0.000 C 
BRANCH  20  21
ATOM     21  C   UNL     1       0.766  12.405  19.682  0.00  0.00    +0.000 C 
BRANCH  21  22
ATOM     22  C   UNL     1       1.208  13.276  18.504  0.00  0.00    +0.000 C 
BRANCH  22  23
ATOM     23  C   UNL     1       2.735  13.191  18.400  0.00  0.00    +0.000 C 
BRANCH  23  24
ATOM     24  C   UNL     1       3.416  14.546  18.294  0.00  0.00    +0.000 C 
BRANCH  24  25
ATOM     25  C   UNL     1       3.564  15.183  19.667  0.00  0.00    +0.000 C 
ATOM     26  O   UNL     1       3.429  16.374  19.910  0.00  0.00    +0.000 OA
BRANCH  25  27
ATOM     27  O   UNL     1       3.869  14.277  20.616  0.00  0.00    +0.000 OA
ATOM     28  H   UNL     1       3.235  13.536  20.675  0.00  0.00    +0.000 HD
ENDBRANCH  25  27
ENDBRANCH  24  25
ENDBRANCH  23  24
ENDBRANCH  22  23
ENDBRANCH  21  22
ENDBRANCH  20  21
ENDBRANCH   6  20
TORSDOF 11
ENDMDL
MODEL 9
REMARK VINA RESULT:      -6.5      2.043      3.213
REMARK  Name = 
REMARK  12 active torsions:
REMARK  status: ('A' for Active; 'I' for Inactive)
REMARK    1  A    between atoms: C_1  and  C_2
REMARK    2  A    between atoms: C_2  and  O_3
REMARK    3  A    between atoms: O_3  and  C_4
REMARK    4  A    between atoms: C_6  and  C_7
REMARK    5  A    between atoms: N_12  and  C_13
REMARK    6  A    between atoms: C_13  and  C_14
REMARK    7  A    between atoms: C_14  and  C_15
REMARK    8  A    between atoms: C_15  and  C_16
REMARK    9  A    between atoms: C_16  and  C_17
REMARK   10  A    between atoms: C_17  and  C_18
REMARK   11  A    between atoms: C_18  and  O_20
REMARK   12  A    between atoms: C_25  and  O_26
REMARK                            x       y       z     vdW  Elec       q    Type
REMARK                         _______ _______ _______ _____ _____    ______ ____
ROOT
ATOM      1  C   UNL     1       2.968   7.093  18.204  0.00  0.00    +0.000 C 
ATOM      2  C   UNL     1       2.228   7.899  18.976  0.00  0.00    +0.000 C 
ATOM      3  S   UNL     1       1.762   7.614  20.604  0.00  0.00    +0.000 S 
ATOM      4  C   UNL     1       0.787   9.070  20.683  0.00  0.00    +0.000 C 
ATOM      5  S   UNL     1      -0.124   9.405  22.039  0.00  0.00    +0.000 S 
ATOM      6  N   UNL     1       0.916   9.788  19.508  0.00  0.00    +0.000 N 
ATOM      7  C   UNL     1       1.662   9.189  18.504  0.00  0.00    +0.000 C 
ATOM      8  O   UNL     1       1.831   9.615  17.368  0.00  0.00    +0.000 OA
ENDROOT
BRANCH   1  11
ATOM      9  C   UNL     1       3.116   3.453  19.195  0.00  0.00    +0.000 A 
ATOM     10  C   UNL     1       2.621   4.714  18.839  0.00  0.00    +0.000 A 
ATOM     11  C   UNL     1       3.484   5.805  18.676  0.00  0.00    +0.000 A 
ATOM     12  C   UNL     1       4.857   5.635  18.856  0.00  0.00    +0.000 A 
ATOM     13  C   UNL     1       5.363   4.378  19.198  0.00  0.00    +0.000 A 
ATOM     14  C   UNL     1       4.497   3.294  19.369  0.00  0.00    +0.000 A 
BRANCH  14  15
ATOM     15  O   UNL     1       5.036   2.076  19.678  0.00  0.00    +0.000 OA
ATOM     16  H   UNL     1       4.321   1.467  19.926  0.00  0.00    +0.000 HD
ENDBRANCH  14  15
BRANCH   9  17
ATOM     17  O   UNL     1       2.145   2.487  19.275  0.00  0.00    +0.000 OA
BRANCH  17  19
ATOM     18  C   UNL     1       1.547   2.605  21.593  0.00  0.00    +0.000 C 
ATOM     19  C   UNL     1       1.054   2.742  20.159  0.00  0.00    +0.000 C 
ENDBRANCH  17  19
ENDBRANCH   9  17
ENDBRANCH   1  11
BRANCH   6  20
ATOM     20  C   UNL     1       0.224  11.041  19.193  0.00  0.00    +0.000 C 
BRANCH  20  21
ATOM     21  C   UNL     1       0.765  12.288  19.891  0.00  0.00    +0.000 C 
BRANCH  21  22
ATOM     22  C   UNL     1      -0.217  13.024  20.805  0.00  0.00    +0.000 C 
BRANCH  22  23
ATOM     23  C   UNL     1      -1.467  13.358  19.984  0.00  0.00    +0.000 C 
BRANCH  23  24
ATOM     24  C   UNL     1      -2.721  12.644  20.464  0.00  0.00    +0.000 C 
BRANCH  24  25
ATOM     25  C   UNL     1      -3.588  12.229  19.287  0.00  0.00    +0.000 C 
ATOM     26  O   UNL     1      -3.309  11.355  18.478  0.00  0.00    +0.000 OA
BRANCH  25  27
ATOM     27  O   UNL     1      -4.729  12.942  19.220  0.00  0.00    +0.000 OA
ATOM     28  H   UNL     1      -4.591  13.896  19.057  0.00  0.00    +0.000 HD
ENDBRANCH  25  27
ENDBRANCH  24  25
ENDBRANCH  23  24
ENDBRANCH  22  23
ENDBRANCH  21  22
ENDBRANCH  20  21
ENDBRANCH   6  20
TORSDOF 11
ENDMDL
