MODEL 1
REMARK VINA RESULT:      -8.8      0.000      0.000
REMARK  Name = 
REMARK  3 active torsions:
REMARK  status: ('A' for Active; 'I' for Inactive)
REMARK    1  A    between atoms: C_5  and  N_6
REMARK    2  A    between atoms: N_6  and  C_7
REMARK    3  A    between atoms: C_8  and  C_9
REMARK                            x       y       z     vdW  Elec       q    Type
REMARK                         _______ _______ _______ _____ _____    ______ ____
ROOT
ATOM      1  C   UNL     1       3.747   5.265  17.357  0.00  0.00    +0.000 A 
ATOM      2  C   UNL     1       3.879   6.604  17.728  0.00  0.00    +0.000 A 
ATOM      3  N   UNL     1       5.149   7.077  17.452  0.00  0.00    +0.000 NA
ATOM      4  C   UNL     1       5.744   6.079  16.843  0.00  0.00    +0.000 A 
ATOM      5  C   UNL     1       7.084   6.019  16.329  0.00  0.00    +0.000 A 
ATOM      6  N   UNL     1       7.546   4.963  15.715  0.00  0.00    +0.000 NA
ATOM      7  C   UNL     1       6.679   3.895  15.550  0.00  0.00    +0.000 A 
ATOM      8  C   UNL     1       5.410   3.883  15.990  0.00  0.00    +0.000 A 
ATOM      9  N   UNL     1       4.933   4.984  16.690  0.00  0.00    +0.000 N 
ENDROOT
BRANCH   2  10
ATOM     10  C   UNL     1       2.879   7.442  18.383  0.00  0.00    +0.000 A 
ATOM     11  C   UNL     1       2.500   7.162  19.707  0.00  0.00    +0.000 A 
ATOM     12  C   UNL     1       1.565   7.966  20.368  0.00  0.00    +0.000 A 
ATOM     13  C   UNL     1       1.004   9.050  19.704  0.00  0.00    +0.000 A 
ATOM     14  F   UNL     1       0.114   9.825  20.335  0.00  0.00    +0.000 F 
ATOM     15  C   UNL     1       1.368   9.352  18.399  0.00  0.00    +0.000 A 
ATOM     16  C   UNL     1       2.317   8.559  17.746  0.00  0.00    +0.000 A 
ENDBRANCH   2  10
BRANCH   1  17
ATOM     17  N   UNL     1       2.727   4.366  17.527  0.00  0.00    +0.000 N 
ATOM     18  H   UNL     1       1.887   4.520  16.970  0.00  0.00    +0.000 HD
BRANCH  17  23
ATOM     19  F   UNL     1       1.297   2.256  22.451  0.00  0.00    +0.000 F 
ATOM     20  C   UNL     1       1.629   2.739  21.247  0.00  0.00    +0.000 A 
ATOM     21  C   UNL     1       0.630   3.171  20.385  0.00  0.00    +0.000 A 
ATOM     22  C   UNL     1       0.978   3.680  19.134  0.00  0.00    +0.000 A 
ATOM     23  C   UNL     1       2.326   3.803  18.763  0.00  0.00    +0.000 A 
ATOM     24  C   UNL     1       3.315   3.326  19.633  0.00  0.00    +0.000 A 
ATOM     25  C   UNL     1       2.967   2.799  20.879  0.00  0.00    +0.000 A 
ENDBRANCH  17  23
ENDBRANCH   1  17
TORSDOF 3
ENDMDL
MODEL 2
REMARK VINA RESULT:      -8.7      0.128      1.401
REMARK  Name = 
REMARK  3 active torsions:
REMARK  status: ('A' for Active; 'I' for Inactive)
REMARK    1  A    between atoms: C_5  and  N_6
REMARK    2  A    between atoms: N_6  and  C_7
REMARK    3  A    between atoms: C_8  and  C_9
REMARK                            x       y       z     vdW  Elec       q    Type
REMARK                         _______ _______ _______ _____ _____    ______ ____
ROOT
ATOM      1  C   UNL     1       3.763   5.334  17.343  0.00  0.00    +0.000 A 
ATOM      2  C   UNL     1       3.881   6.676  17.709  0.00  0.00    +0.000 A 
ATOM      3  N   UNL     1       5.125   7.179  17.371  0.00  0.00    +0.000 NA
ATOM      4  C   UNL     1       5.713   6.194  16.734  0.00  0.00    +0.000 A 
ATOM      5  C   UNL     1       7.028   6.165  16.156  0.00  0.00    +0.000 A 
ATOM      6  N   UNL     1       7.485   5.120  15.519  0.00  0.00    +0.000 NA
ATOM      7  C   UNL     1       6.636   4.032  15.397  0.00  0.00    +0.000 A 
ATOM      8  C   UNL     1       5.390   3.991  15.897  0.00  0.00    +0.000 A 
ATOM      9  N   UNL     1       4.921   5.081  16.620  0.00  0.00    +0.000 N 
ENDROOT
BRANCH   2  10
ATOM     10  C   UNL     1       2.895   7.491  18.411  0.00  0.00    +0.000 A 
ATOM     11  C   UNL     1       2.285   8.568  17.745  0.00  0.00    +0.000 A 
ATOM     12  C   UNL     1       1.316   9.348  18.386  0.00  0.00    +0.000 A 
ATOM     13  C   UNL     1       0.957   9.054  19.695  0.00  0.00    +0.000 A 
ATOM     14  F   UNL     1       0.025   9.794  20.310  0.00  0.00    +0.000 F 
ATOM     15  C   UNL     1       1.539   7.990  20.372  0.00  0.00    +0.000 A 
ATOM     16  C   UNL     1       2.494   7.200  19.724  0.00  0.00    +0.000 A 
ENDBRANCH   2  10
BRANCH   1  17
ATOM     17  N   UNL     1       2.773   4.412  17.561  0.00  0.00    +0.000 N 
ATOM     18  H   UNL     1       1.906   4.542  17.041  0.00  0.00    +0.000 HD
BRANCH  17  23
ATOM     19  F   UNL     1       1.323   2.110  22.393  0.00  0.00    +0.000 F 
ATOM     20  C   UNL     1       1.686   2.691  21.242  0.00  0.00    +0.000 A 
ATOM     21  C   UNL     1       3.032   2.760  20.907  0.00  0.00    +0.000 A 
ATOM     22  C   UNL     1       3.409   3.360  19.707  0.00  0.00    +0.000 A 
ATOM     23  C   UNL     1       2.439   3.847  18.817  0.00  0.00    +0.000 A 
ATOM     24  C   UNL     1       1.090   3.801  19.192  0.00  0.00    +0.000 A 
ATOM     25  C   UNL     1       0.712   3.217  20.403  0.00  0.00    +0.000 A 
ENDBRANCH  17  23
ENDBRANCH   1  17
TORSDOF 3
ENDMDL
MODEL 3
REMARK VINA RESULT:      -8.3      2.727      5.824
REMARK  Name = 
REMARK  3 active torsions:
REMARK  status: ('A' for Active; 'I' for Inactive)
REMARK    1  A    between atoms: C_5  and  N_6
REMARK    2  A    between atoms: N_6  and  C_7
REMARK    3  A    between atoms: C_8  and  C_9
REMARK                            x       y       z     vdW  Elec       q    Type
REMARK                         _______ _______ _______ _____ _____    ______ ____
ROOT
ATOM      1  C   UNL     1       3.291   5.190  19.337  0.00  0.00    +0.000 A 
ATOM      2  C   UNL     1       4.409   4.901  18.552  0.00  0.00    +0.000 A 
ATOM      3  N   UNL     1       4.348   3.613  18.050  0.00  0.00    +0.000 NA
ATOM      4  C   UNL     1       3.180   3.165  18.443  0.00  0.00    +0.000 A 
ATOM      5  C   UNL     1       2.591   1.877  18.200  0.00  0.00    +0.000 A 
ATOM      6  N   UNL     1       1.398   1.566  18.630  0.00  0.00    +0.000 NA
ATOM      7  C   UNL     1       0.697   2.543  19.317  0.00  0.00    +0.000 A 
ATOM      8  C   UNL     1       1.175   3.773  19.570  0.00  0.00    +0.000 A 
ATOM      9  N   UNL     1       2.464   4.089  19.161  0.00  0.00    +0.000 N 
ENDROOT
BRANCH   2  10
ATOM     10  C   UNL     1       5.558   5.765  18.300  0.00  0.00    +0.000 A 
ATOM     11  C   UNL     1       5.454   6.798  17.352  0.00  0.00    +0.000 A 
ATOM     12  C   UNL     1       6.531   7.657  17.111  0.00  0.00    +0.000 A 
ATOM     13  C   UNL     1       7.716   7.484  17.814  0.00  0.00    +0.000 A 
ATOM     14  F   UNL     1       8.747   8.308  17.591  0.00  0.00    +0.000 F 
ATOM     15  C   UNL     1       7.841   6.476  18.761  0.00  0.00    +0.000 A 
ATOM     16  C   UNL     1       6.758   5.629  19.015  0.00  0.00    +0.000 A 
ENDBRANCH   2  10
BRANCH   1  17
ATOM     17  N   UNL     1       2.971   6.280  20.105  0.00  0.00    +0.000 N 
ATOM     18  H   UNL     1       2.672   6.091  21.061  0.00  0.00    +0.000 HD
BRANCH  17  23
ATOM     19  F   UNL     1       0.287  10.856  18.491  0.00  0.00    +0.000 F 
ATOM     20  C   UNL     1       0.914   9.733  18.864  0.00  0.00    +0.000 A 
ATOM     21  C   UNL     1       1.624   9.002  17.921  0.00  0.00    +0.000 A 
ATOM     22  C   UNL     1       2.281   7.836  18.311  0.00  0.00    +0.000 A 
ATOM     23  C   UNL     1       2.271   7.425  19.653  0.00  0.00    +0.000 A 
ATOM     24  C   UNL     1       1.516   8.157  20.581  0.00  0.00    +0.000 A 
ATOM     25  C   UNL     1       0.842   9.315  20.187  0.00  0.00    +0.000 A 
ENDBRANCH  17  23
ENDBRANCH   1  17
TORSDOF 3
ENDMDL
MODEL 4
REMARK VINA RESULT:      -8.1      2.729      5.736
REMARK  Name = 
REMARK  3 active torsions:
REMARK  status: ('A' for Active; 'I' for Inactive)
REMARK    1  A    between atoms: C_5  and  N_6
REMARK    2  A    between atoms: N_6  and  C_7
REMARK    3  A    between atoms: C_8  and  C_9
REMARK                            x       y       z     vdW  Elec       q    Type
REMARK                         _______ _______ _______ _____ _____    ______ ____
ROOT
ATOM      1  C   UNL     1       3.249   5.231  19.352  0.00  0.00    +0.000 A 
ATOM      2  C   UNL     1       4.348   4.973  18.532  0.00  0.00    +0.000 A 
ATOM      3  N   UNL     1       4.295   3.693  18.011  0.00  0.00    +0.000 NA
ATOM      4  C   UNL     1       3.145   3.219  18.429  0.00  0.00    +0.000 A 
ATOM      5  C   UNL     1       2.571   1.925  18.181  0.00  0.00    +0.000 A 
ATOM      6  N   UNL     1       1.394   1.588  18.638  0.00  0.00    +0.000 NA
ATOM      7  C   UNL     1       0.697   2.543  19.361  0.00  0.00    +0.000 A 
ATOM      8  C   UNL     1       1.162   3.776  19.620  0.00  0.00    +0.000 A 
ATOM      9  N   UNL     1       2.435   4.119  19.181  0.00  0.00    +0.000 N 
ENDROOT
BRANCH   2  10
ATOM     10  C   UNL     1       5.476   5.859  18.262  0.00  0.00    +0.000 A 
ATOM     11  C   UNL     1       6.687   5.670  18.952  0.00  0.00    +0.000 A 
ATOM     12  C   UNL     1       7.792   6.487  18.691  0.00  0.00    +0.000 A 
ATOM     13  C   UNL     1       7.689   7.497  17.744  0.00  0.00    +0.000 A 
ATOM     14  F   UNL     1       8.747   8.277  17.488  0.00  0.00    +0.000 F 
ATOM     15  C   UNL     1       6.507   7.699  17.044  0.00  0.00    +0.000 A 
ATOM     16  C   UNL     1       5.408   6.870  17.291  0.00  0.00    +0.000 A 
ENDBRANCH   2  10
BRANCH   1  17
ATOM     17  N   UNL     1       2.932   6.303  20.146  0.00  0.00    +0.000 N 
ATOM     18  H   UNL     1       2.627   6.092  21.095  0.00  0.00    +0.000 HD
BRANCH  17  23
ATOM     19  F   UNL     1       0.174  10.757  18.328  0.00  0.00    +0.000 F 
ATOM     20  C   UNL     1       0.861   9.701  18.783  0.00  0.00    +0.000 A 
ATOM     21  C   UNL     1       0.795   9.373  20.130  0.00  0.00    +0.000 A 
ATOM     22  C   UNL     1       1.506   8.270  20.603  0.00  0.00    +0.000 A 
ATOM     23  C   UNL     1       2.242   7.465  19.721  0.00  0.00    +0.000 A 
ATOM     24  C   UNL     1       2.326   7.836  18.372  0.00  0.00    +0.000 A 
ATOM     25  C   UNL     1       1.630   8.952  17.901  0.00  0.00    +0.000 A 
ENDBRANCH  17  23
ENDBRANCH   1  17
TORSDOF 3
ENDMDL
MODEL 5
REMARK VINA RESULT:      -7.9      3.007      5.535
REMARK  Name = 
REMARK  3 active torsions:
REMARK  status: ('A' for Active; 'I' for Inactive)
REMARK    1  A    between atoms: C_5  and  N_6
REMARK    2  A    between atoms: N_6  and  C_7
REMARK    3  A    between atoms: C_8  and  C_9
REMARK                            x       y       z     vdW  Elec       q    Type
REMARK                         _______ _______ _______ _____ _____    ______ ____
ROOT
ATOM      1  C   UNL     1       2.818   6.971  19.197  0.00  0.00    +0.000 A 
ATOM      2  C   UNL     1       3.421   7.261  17.973  0.00  0.00    +0.000 A 
ATOM      3  N   UNL     1       2.851   8.377  17.386  0.00  0.00    +0.000 NA
ATOM      4  C   UNL     1       1.988   8.807  18.275  0.00  0.00    +0.000 A 
ATOM      5  C   UNL     1       1.113   9.944  18.190  0.00  0.00    +0.000 A 
ATOM      6  N   UNL     1       0.314  10.280  19.167  0.00  0.00    +0.000 NA
ATOM      7  C   UNL     1       0.356   9.506  20.315  0.00  0.00    +0.000 A 
ATOM      8  C   UNL     1       1.156   8.439  20.473  0.00  0.00    +0.000 A 
ATOM      9  N   UNL     1       1.969   8.048  19.416  0.00  0.00    +0.000 N 
ENDROOT
BRANCH   2  10
ATOM     10  C   UNL     1       4.474   6.502  17.305  0.00  0.00    +0.000 A 
ATOM     11  C   UNL     1       5.811   6.921  17.422  0.00  0.00    +0.000 A 
ATOM     12  C   UNL     1       6.842   6.195  16.815  0.00  0.00    +0.000 A 
ATOM     13  C   UNL     1       6.538   5.052  16.086  0.00  0.00    +0.000 A 
ATOM     14  F   UNL     1       7.523   4.352  15.509  0.00  0.00    +0.000 F 
ATOM     15  C   UNL     1       5.226   4.614  15.963  0.00  0.00    +0.000 A 
ATOM     16  C   UNL     1       4.199   5.329  16.585  0.00  0.00    +0.000 A 
ENDBRANCH   2  10
BRANCH   1  17
ATOM     17  N   UNL     1       2.977   5.925  20.069  0.00  0.00    +0.000 N 
ATOM     18  H   UNL     1       3.552   6.102  20.892  0.00  0.00    +0.000 HD
BRANCH  17  23
ATOM     19  F   UNL     1       3.592   0.651  18.472  0.00  0.00    +0.000 F 
ATOM     20  C   UNL     1       3.447   1.916  18.889  0.00  0.00    +0.000 A 
ATOM     21  C   UNL     1       4.533   2.583  19.438  0.00  0.00    +0.000 A 
ATOM     22  C   UNL     1       4.382   3.901  19.867  0.00  0.00    +0.000 A 
ATOM     23  C   UNL     1       3.159   4.569  19.701  0.00  0.00    +0.000 A 
ATOM     24  C   UNL     1       2.066   3.865  19.179  0.00  0.00    +0.000 A 
ATOM     25  C   UNL     1       2.211   2.539  18.767  0.00  0.00    +0.000 A 
ENDBRANCH  17  23
ENDBRANCH   1  17
TORSDOF 3
ENDMDL
MODEL 6
REMARK VINA RESULT:      -7.9      2.798      5.433
REMARK  Name = 
REMARK  3 active torsions:
REMARK  status: ('A' for Active; 'I' for Inactive)
REMARK    1  A    between atoms: C_5  and  N_6
REMARK    2  A    between atoms: N_6  and  C_7
REMARK    3  A    between atoms: C_8  and  C_9
REMARK                            x       y       z     vdW  Elec       q    Type
REMARK                         _______ _______ _______ _____ _____    ______ ____
ROOT
ATOM      1  C   UNL     1       2.790   7.135  19.283  0.00  0.00    +0.000 A 
ATOM      2  C   UNL     1       3.395   7.361  18.046  0.00  0.00    +0.000 A 
ATOM      3  N   UNL     1       2.810   8.430  17.390  0.00  0.00    +0.000 NA
ATOM      4  C   UNL     1       1.935   8.899  18.248  0.00  0.00    +0.000 A 
ATOM      5  C   UNL     1       1.043  10.014  18.092  0.00  0.00    +0.000 A 
ATOM      6  N   UNL     1       0.234  10.395  19.044  0.00  0.00    +0.000 NA
ATOM      7  C   UNL     1       0.283   9.693  20.237  0.00  0.00    +0.000 A 
ATOM      8  C   UNL     1       1.100   8.651  20.462  0.00  0.00    +0.000 A 
ATOM      9  N   UNL     1       1.923   8.210  19.433  0.00  0.00    +0.000 N 
ENDROOT
BRANCH   2  10
ATOM     10  C   UNL     1       4.462   6.580  17.428  0.00  0.00    +0.000 A 
ATOM     11  C   UNL     1       4.155   5.359  16.804  0.00  0.00    +0.000 A 
ATOM     12  C   UNL     1       5.155   4.604  16.180  0.00  0.00    +0.000 A 
ATOM     13  C   UNL     1       6.464   5.068  16.182  0.00  0.00    +0.000 A 
ATOM     14  F   UNL     1       7.422   4.352  15.580  0.00  0.00    +0.000 F 
ATOM     15  C   UNL     1       6.791   6.276  16.784  0.00  0.00    +0.000 A 
ATOM     16  C   UNL     1       5.789   7.038  17.391  0.00  0.00    +0.000 A 
ENDBRANCH   2  10
BRANCH   1  17
ATOM     17  N   UNL     1       2.962   6.147  20.217  0.00  0.00    +0.000 N 
ATOM     18  H   UNL     1       3.827   6.176  20.757  0.00  0.00    +0.000 HD
BRANCH  17  23
ATOM     19  F   UNL     1       1.423   0.875  19.450  0.00  0.00    +0.000 F 
ATOM     20  C   UNL     1       1.809   2.140  19.663  0.00  0.00    +0.000 A 
ATOM     21  C   UNL     1       3.157   2.463  19.594  0.00  0.00    +0.000 A 
ATOM     22  C   UNL     1       3.557   3.781  19.811  0.00  0.00    +0.000 A 
ATOM     23  C   UNL     1       2.606   4.786  20.048  0.00  0.00    +0.000 A 
ATOM     24  C   UNL     1       1.255   4.430  20.151  0.00  0.00    +0.000 A 
ATOM     25  C   UNL     1       0.855   3.107  19.953  0.00  0.00    +0.000 A 
ENDBRANCH  17  23
ENDBRANCH   1  17
TORSDOF 3
ENDMDL
MODEL 7
REMARK VINA RESULT:      -7.8      2.836      6.299
REMARK  Name = 
REMARK  3 active torsions:
REMARK  status: ('A' for Active; 'I' for Inactive)
REMARK    1  A    between atoms: C_5  and  N_6
REMARK    2  A    between atoms: N_6  and  C_7
REMARK    3  A    between atoms: C_8  and  C_9
REMARK                            x       y       z     vdW  Elec       q    Type
REMARK                         _______ _______ _______ _____ _____    ______ ____
ROOT
ATOM      1  C   UNL     1       2.848   7.391  18.115  0.00  0.00    +0.000 A 
ATOM      2  C   UNL     1       2.418   6.405  19.004  0.00  0.00    +0.000 A 
ATOM      3  N   UNL     1       1.665   6.950  20.029  0.00  0.00    +0.000 NA
ATOM      4  C   UNL     1       1.562   8.220  19.718  0.00  0.00    +0.000 A 
ATOM      5  C   UNL     1       0.880   9.261  20.436  0.00  0.00    +0.000 A 
ATOM      6  N   UNL     1       0.832  10.491  19.998  0.00  0.00    +0.000 NA
ATOM      7  C   UNL     1       1.449  10.757  18.787  0.00  0.00    +0.000 A 
ATOM      8  C   UNL     1       2.093   9.834  18.053  0.00  0.00    +0.000 A 
ATOM      9  N   UNL     1       2.191   8.538  18.542  0.00  0.00    +0.000 N 
ENDROOT
BRANCH   2  10
ATOM     10  C   UNL     1       2.732   4.981  18.963  0.00  0.00    +0.000 A 
ATOM     11  C   UNL     1       1.954   4.123  18.166  0.00  0.00    +0.000 A 
ATOM     12  C   UNL     1       2.250   2.758  18.086  0.00  0.00    +0.000 A 
ATOM     13  C   UNL     1       3.322   2.247  18.806  0.00  0.00    +0.000 A 
ATOM     14  F   UNL     1       3.613   0.942  18.728  0.00  0.00    +0.000 F 
ATOM     15  C   UNL     1       4.110   3.075  19.595  0.00  0.00    +0.000 A 
ATOM     16  C   UNL     1       3.825   4.442  19.659  0.00  0.00    +0.000 A 
ENDBRANCH   2  10
BRANCH   1  17
ATOM     17  N   UNL     1       3.685   7.341  17.030  0.00  0.00    +0.000 N 
ATOM     18  H   UNL     1       3.243   7.381  16.113  0.00  0.00    +0.000 HD
BRANCH  17  23
ATOM     19  F   UNL     1       8.225   4.168  16.773  0.00  0.00    +0.000 F 
ATOM     20  C   UNL     1       7.132   4.942  16.804  0.00  0.00    +0.000 A 
ATOM     21  C   UNL     1       5.982   4.524  16.147  0.00  0.00    +0.000 A 
ATOM     22  C   UNL     1       4.843   5.327  16.183  0.00  0.00    +0.000 A 
ATOM     23  C   UNL     1       4.836   6.523  16.918  0.00  0.00    +0.000 A 
ATOM     24  C   UNL     1       6.018   6.943  17.542  0.00  0.00    +0.000 A 
ATOM     25  C   UNL     1       7.166   6.149  17.490  0.00  0.00    +0.000 A 
ENDBRANCH  17  23
ENDBRANCH   1  17
TORSDOF 3
ENDMDL
MODEL 8
REMARK VINA RESULT:      -7.8      3.013      5.441
REMARK  Name = 
REMARK  3 active torsions:
REMARK  status: ('A' for Active; 'I' for Inactive)
REMARK    1  A    between atoms: C_5  and  N_6
REMARK    2  A    between atoms: N_6  and  C_7
REMARK    3  A    between atoms: C_8  and  C_9
REMARK                            x       y       z     vdW  Elec       q    Type
REMARK                         _______ _______ _______ _____ _____    ______ ____
ROOT
ATOM      1  C   UNL     1       2.853   6.960  19.161  0.00  0.00    +0.000 A 
ATOM      2  C   UNL     1       3.503   7.285  17.970  0.00  0.00    +0.000 A 
ATOM      3  N   UNL     1       2.965   8.426  17.401  0.00  0.00    +0.000 NA
ATOM      4  C   UNL     1       2.073   8.835  18.272  0.00  0.00    +0.000 A 
ATOM      5  C   UNL     1       1.212   9.982  18.194  0.00  0.00    +0.000 A 
ATOM      6  N   UNL     1       0.381  10.294  19.152  0.00  0.00    +0.000 NA
ATOM      7  C   UNL     1       0.374   9.481  20.275  0.00  0.00    +0.000 A 
ATOM      8  C   UNL     1       1.159   8.402  20.425  0.00  0.00    +0.000 A 
ATOM      9  N   UNL     1       2.006   8.038  19.385  0.00  0.00    +0.000 N 
ENDROOT
BRANCH   2  10
ATOM     10  C   UNL     1       4.573   6.538  17.315  0.00  0.00    +0.000 A 
ATOM     11  C   UNL     1       4.252   5.431  16.511  0.00  0.00    +0.000 A 
ATOM     12  C   UNL     1       5.255   4.715  15.849  0.00  0.00    +0.000 A 
ATOM     13  C   UNL     1       6.582   5.102  15.992  0.00  0.00    +0.000 A 
ATOM     14  F   UNL     1       7.544   4.423  15.356  0.00  0.00    +0.000 F 
ATOM     15  C   UNL     1       6.923   6.198  16.775  0.00  0.00    +0.000 A 
ATOM     16  C   UNL     1       5.918   6.924  17.420  0.00  0.00    +0.000 A 
ENDBRANCH   2  10
BRANCH   1  17
ATOM     17  N   UNL     1       2.971   5.885  20.003  0.00  0.00    +0.000 N 
ATOM     18  H   UNL     1       3.541   6.020  20.837  0.00  0.00    +0.000 HD
BRANCH  17  23
ATOM     19  F   UNL     1       3.639   0.570  18.569  0.00  0.00    +0.000 F 
ATOM     20  C   UNL     1       3.476   1.862  18.884  0.00  0.00    +0.000 A 
ATOM     21  C   UNL     1       2.249   2.469  18.659  0.00  0.00    +0.000 A 
ATOM     22  C   UNL     1       2.078   3.812  18.992  0.00  0.00    +0.000 A 
ATOM     23  C   UNL     1       3.118   4.536  19.596  0.00  0.00    +0.000 A 
ATOM     24  C   UNL     1       4.360   3.913  19.779  0.00  0.00    +0.000 A 
ATOM     25  C   UNL     1       4.538   2.573  19.428  0.00  0.00    +0.000 A 
ENDBRANCH  17  23
ENDBRANCH   1  17
TORSDOF 3
ENDMDL
MODEL 9
REMARK VINA RESULT:      -7.7      2.846      5.393
REMARK  Name = 
REMARK  3 active torsions:
REMARK  status: ('A' for Active; 'I' for Inactive)
REMARK    1  A    between atoms: C_5  and  N_6
REMARK    2  A    between atoms: N_6  and  C_7
REMARK    3  A    between atoms: C_8  and  C_9
REMARK                            x       y       z     vdW  Elec       q    Type
REMARK                         _______ _______ _______ _____ _____    ______ ____
ROOT
ATOM      1  C   UNL     1       2.666   7.284  19.129  0.00  0.00    +0.000 A 
ATOM      2  C   UNL     1       3.420   7.559  17.987  0.00  0.00    +0.000 A 
ATOM      3  N   UNL     1       3.001   8.730  17.381  0.00  0.00    +0.000 NA
ATOM      4  C   UNL     1       2.080   9.202  18.187  0.00  0.00    +0.000 A 
ATOM      5  C   UNL     1       1.305  10.404  18.048  0.00  0.00    +0.000 A 
ATOM      6  N   UNL     1       0.430  10.775  18.945  0.00  0.00    +0.000 NA
ATOM      7  C   UNL     1       0.290   9.970  20.064  0.00  0.00    +0.000 A 
ATOM      8  C   UNL     1       0.987   8.841  20.269  0.00  0.00    +0.000 A 
ATOM      9  N   UNL     1       1.880   8.416  19.292  0.00  0.00    +0.000 N 
ENDROOT
BRANCH   2  10
ATOM     10  C   UNL     1       4.481   6.739  17.410  0.00  0.00    +0.000 A 
ATOM     11  C   UNL     1       5.319   5.994  18.257  0.00  0.00    +0.000 A 
ATOM     12  C   UNL     1       6.325   5.178  17.729  0.00  0.00    +0.000 A 
ATOM     13  C   UNL     1       6.498   5.109  16.352  0.00  0.00    +0.000 A 
ATOM     14  F   UNL     1       7.456   4.325  15.842  0.00  0.00    +0.000 F 
ATOM     15  C   UNL     1       5.678   5.830  15.494  0.00  0.00    +0.000 A 
ATOM     16  C   UNL     1       4.661   6.630  16.022  0.00  0.00    +0.000 A 
ENDBRANCH   2  10
BRANCH   1  17
ATOM     17  N   UNL     1       2.652   6.206  19.976  0.00  0.00    +0.000 N 
ATOM     18  H   UNL     1       3.508   6.026  20.499  0.00  0.00    +0.000 HD
BRANCH  17  23
ATOM     19  F   UNL     1       0.403   1.280  18.784  0.00  0.00    +0.000 F 
ATOM     20  C   UNL     1       0.917   2.480  19.082  0.00  0.00    +0.000 A 
ATOM     21  C   UNL     1       1.022   2.867  20.411  0.00  0.00    +0.000 A 
ATOM     22  C   UNL     1       1.562   4.115  20.720  0.00  0.00    +0.000 A 
ATOM     23  C   UNL     1       2.043   4.956  19.705  0.00  0.00    +0.000 A 
ATOM     24  C   UNL     1       1.893   4.561  18.369  0.00  0.00    +0.000 A 
ATOM     25  C   UNL     1       1.334   3.320  18.057  0.00  0.00    +0.000 A 
ENDBRANCH  17  23
ENDBRANCH   1  17
TORSDOF 3
ENDMDL
