MODEL 1
REMARK VINA RESULT:      -6.9      0.000      0.000
REMARK  Name = 
REMARK  9 active torsions:
REMARK  status: ('A' for Active; 'I' for Inactive)
REMARK    1  A    between atoms: C_1  and  N_2
REMARK    2  A    between atoms: N_2  and  C_3
REMARK    3  A    between atoms: N_2  and  C_4
REMARK    4  A    between atoms: C_4  and  C_5
REMARK    5  A    between atoms: C_5  and  N_6
REMARK    6  A    between atoms: C_12  and  C_13
REMARK    7  A    between atoms: C_13  and  C_14
REMARK    8  A    between atoms: C_13  and  C_15
REMARK    9  A    between atoms: C_13  and  C_16
REMARK                            x       y       z     vdW  Elec       q    Type
REMARK                         _______ _______ _______ _____ _____    ______ ____
ROOT
ATOM      1  N   UNL     1       5.953   4.500  16.286  0.00  0.00    +0.000 N 
ATOM      2  C   UNL     1       6.693   5.613  16.628  0.00  0.00    +0.000 A 
ATOM      3  N   UNL     1       7.651   6.196  15.998  0.00  0.00    +0.000 NA
ATOM      4  S   UNL     1       6.190   6.294  18.185  0.00  0.00    +0.000 S 
ATOM      5  C   UNL     1       4.910   5.068  18.315  0.00  0.00    +0.000 A 
ATOM      6  C   UNL     1       3.969   4.966  19.333  0.00  0.00    +0.000 A 
ATOM      7  C   UNL     1       2.979   3.970  19.272  0.00  0.00    +0.000 A 
ATOM      8  C   UNL     1       3.010   3.094  18.167  0.00  0.00    +0.000 A 
ATOM      9  C   UNL     1       3.980   3.200  17.153  0.00  0.00    +0.000 A 
ATOM     10  C   UNL     1       4.942   4.197  17.214  0.00  0.00    +0.000 A 
ATOM     11  H   UNL     1       7.830   5.733  15.109  0.00  0.00    +0.000 HD
ENDROOT
BRANCH   7  12
ATOM     12  C   UNL     1       1.901   3.893  20.369  0.00  0.00    +0.000 C 
ATOM     13  C   UNL     1       0.659   3.156  19.821  0.00  0.00    +0.000 C 
ATOM     14  C   UNL     1       2.364   3.137  21.634  0.00  0.00    +0.000 C 
ATOM     15  C   UNL     1       1.484   5.312  20.809  0.00  0.00    +0.000 C 
ENDBRANCH   7  12
BRANCH   1  16
ATOM     16  C   UNL     1       6.267   3.626  15.160  0.00  0.00    +0.000 C 
BRANCH  16  17
ATOM     17  C   UNL     1       5.637   4.162  13.853  0.00  0.00    +0.000 C 
BRANCH  17  19
ATOM     18  C   UNL     1       4.755   3.300  11.787  0.00  0.00    +0.000 C 
ATOM     19  N   UNL     1       5.946   3.365  12.645  0.00  0.00    +0.000 NA
ATOM     20  C   UNL     1       7.064   3.923  11.884  0.00  0.00    +0.000 C 
ENDBRANCH  17  19
ENDBRANCH  16  17
ENDBRANCH   1  16
TORSDOF 4
ENDMDL
MODEL 2
REMARK VINA RESULT:      -6.8      0.120      1.002
REMARK  Name = 
REMARK  9 active torsions:
REMARK  status: ('A' for Active; 'I' for Inactive)
REMARK    1  A    between atoms: C_1  and  N_2
REMARK    2  A    between atoms: N_2  and  C_3
REMARK    3  A    between atoms: N_2  and  C_4
REMARK    4  A    between atoms: C_4  and  C_5
REMARK    5  A    between atoms: C_5  and  N_6
REMARK    6  A    between atoms: C_12  and  C_13
REMARK    7  A    between atoms: C_13  and  C_14
REMARK    8  A    between atoms: C_13  and  C_15
REMARK    9  A    between atoms: C_13  and  C_16
REMARK                            x       y       z     vdW  Elec       q    Type
REMARK                         _______ _______ _______ _____ _____    ______ ____
ROOT
ATOM      1  N   UNL     1       5.998   4.498  16.269  0.00  0.00    +0.000 N 
ATOM      2  C   UNL     1       6.719   5.614  16.642  0.00  0.00    +0.000 A 
ATOM      3  N   UNL     1       7.673   6.224  16.034  0.00  0.00    +0.000 NA
ATOM      4  S   UNL     1       6.193   6.251  18.210  0.00  0.00    +0.000 S 
ATOM      5  C   UNL     1       4.931   5.004  18.301  0.00  0.00    +0.000 A 
ATOM      6  C   UNL     1       3.982   4.866  19.309  0.00  0.00    +0.000 A 
ATOM      7  C   UNL     1       3.008   3.857  19.217  0.00  0.00    +0.000 A 
ATOM      8  C   UNL     1       3.061   3.008  18.093  0.00  0.00    +0.000 A 
ATOM      9  C   UNL     1       4.037   3.150  17.089  0.00  0.00    +0.000 A 
ATOM     10  C   UNL     1       4.984   4.159  17.181  0.00  0.00    +0.000 A 
ATOM     11  H   UNL     1       7.866   5.784  15.136  0.00  0.00    +0.000 HD
ENDROOT
BRANCH   7  12
ATOM     12  C   UNL     1       1.923   3.740  20.302  0.00  0.00    +0.000 C 
ATOM     13  C   UNL     1       2.489   2.977  21.520  0.00  0.00    +0.000 C 
ATOM     14  C   UNL     1       1.414   5.107  20.812  0.00  0.00    +0.000 C 
ATOM     15  C   UNL     1       0.702   2.970  19.757  0.00  0.00    +0.000 C 
ENDBRANCH   7  12
BRANCH   1  16
ATOM     16  C   UNL     1       6.334   3.655  15.126  0.00  0.00    +0.000 C 
BRANCH  16  17
ATOM     17  C   UNL     1       5.571   4.110  13.860  0.00  0.00    +0.000 C 
BRANCH  17  19
ATOM     18  C   UNL     1       4.699   3.341  11.754  0.00  0.00    +0.000 C 
ATOM     19  N   UNL     1       5.869   3.326  12.641  0.00  0.00    +0.000 NA
ATOM     20  C   UNL     1       7.033   3.844  11.921  0.00  0.00    +0.000 C 
ENDBRANCH  17  19
ENDBRANCH  16  17
ENDBRANCH   1  16
TORSDOF 4
ENDMDL
MODEL 3
REMARK VINA RESULT:      -6.6      0.744      1.230
REMARK  Name = 
REMARK  9 active torsions:
REMARK  status: ('A' for Active; 'I' for Inactive)
REMARK    1  A    between atoms: C_1  and  N_2
REMARK    2  A    between atoms: N_2  and  C_3
REMARK    3  A    between atoms: N_2  and  C_4
REMARK    4  A    between atoms: C_4  and  C_5
REMARK    5  A    between atoms: C_5  and  N_6
REMARK    6  A    between atoms: C_12  and  C_13
REMARK    7  A    between atoms: C_13  and  C_14
REMARK    8  A    between atoms: C_13  and  C_15
REMARK    9  A    between atoms: C_13  and  C_16
REMARK                            x       y       z     vdW  Elec       q    Type
REMARK                         _______ _______ _______ _____ _____    ______ ____
ROOT
ATOM      1  N   UNL     1       5.675   5.306  16.170  0.00  0.00    +0.000 N 
ATOM      2  C   UNL     1       6.701   5.909  16.870  0.00  0.00    +0.000 A 
ATOM      3  N   UNL     1       7.730   6.549  16.442  0.00  0.00    +0.000 NA
ATOM      4  S   UNL     1       6.499   5.738  18.623  0.00  0.00    +0.000 S 
ATOM      5  C   UNL     1       4.958   4.891  18.370  0.00  0.00    +0.000 A 
ATOM      6  C   UNL     1       4.095   4.439  19.362  0.00  0.00    +0.000 A 
ATOM      7  C   UNL     1       2.879   3.830  19.006  0.00  0.00    +0.000 A 
ATOM      8  C   UNL     1       2.606   3.687  17.630  0.00  0.00    +0.000 A 
ATOM      9  C   UNL     1       3.498   4.134  16.637  0.00  0.00    +0.000 A 
ATOM     10  C   UNL     1       4.687   4.749  16.999  0.00  0.00    +0.000 A 
ATOM     11  H   UNL     1       7.722   6.605  15.426  0.00  0.00    +0.000 HD
ENDROOT
BRANCH   7  12
ATOM     12  C   UNL     1       1.897   3.383  20.104  0.00  0.00    +0.000 C 
ATOM     13  C   UNL     1       1.161   4.617  20.672  0.00  0.00    +0.000 C 
ATOM     14  C   UNL     1       0.820   2.397  19.600  0.00  0.00    +0.000 C 
ATOM     15  C   UNL     1       2.657   2.686  21.251  0.00  0.00    +0.000 C 
ENDBRANCH   7  12
BRANCH   1  16
ATOM     16  C   UNL     1       5.674   5.123  14.722  0.00  0.00    +0.000 C 
BRANCH  16  17
ATOM     17  C   UNL     1       6.305   3.765  14.336  0.00  0.00    +0.000 C 
BRANCH  17  19
ATOM     18  C   UNL     1       5.106   3.498  12.268  0.00  0.00    +0.000 C 
ATOM     19  N   UNL     1       6.440   3.535  12.881  0.00  0.00    +0.000 NA
ATOM     20  C   UNL     1       7.247   4.567  12.229  0.00  0.00    +0.000 C 
ENDBRANCH  17  19
ENDBRANCH  16  17
ENDBRANCH   1  16
TORSDOF 4
ENDMDL
MODEL 4
REMARK VINA RESULT:      -6.4      2.790      4.467
REMARK  Name = 
REMARK  9 active torsions:
REMARK  status: ('A' for Active; 'I' for Inactive)
REMARK    1  A    between atoms: C_1  and  N_2
REMARK    2  A    between atoms: N_2  and  C_3
REMARK    3  A    between atoms: N_2  and  C_4
REMARK    4  A    between atoms: C_4  and  C_5
REMARK    5  A    between atoms: C_5  and  N_6
REMARK    6  A    between atoms: C_12  and  C_13
REMARK    7  A    between atoms: C_13  and  C_14
REMARK    8  A    between atoms: C_13  and  C_15
REMARK    9  A    between atoms: C_13  and  C_16
REMARK                            x       y       z     vdW  Elec       q    Type
REMARK                         _______ _______ _______ _____ _____    ______ ____
ROOT
ATOM      1  N   UNL     1       4.005   5.175  17.971  0.00  0.00    +0.000 N 
ATOM      2  C   UNL     1       4.057   4.000  18.694  0.00  0.00    +0.000 A 
ATOM      3  N   UNL     1       4.717   2.920  18.473  0.00  0.00    +0.000 NA
ATOM      4  S   UNL     1       3.032   4.065  20.139  0.00  0.00    +0.000 S 
ATOM      5  C   UNL     1       2.595   5.745  19.763  0.00  0.00    +0.000 A 
ATOM      6  C   UNL     1       1.789   6.578  20.532  0.00  0.00    +0.000 A 
ATOM      7  C   UNL     1       1.574   7.908  20.131  0.00  0.00    +0.000 A 
ATOM      8  C   UNL     1       2.185   8.328  18.932  0.00  0.00    +0.000 A 
ATOM      9  C   UNL     1       2.986   7.469  18.156  0.00  0.00    +0.000 A 
ATOM     10  C   UNL     1       3.205   6.163  18.569  0.00  0.00    +0.000 A 
ATOM     11  H   UNL     1       5.287   3.013  17.634  0.00  0.00    +0.000 HD
ENDROOT
BRANCH   7  12
ATOM     12  C   UNL     1       0.730   8.846  21.012  0.00  0.00    +0.000 C 
ATOM     13  C   UNL     1       0.404  10.137  20.228  0.00  0.00    +0.000 C 
ATOM     14  C   UNL     1      -0.614   8.227  21.457  0.00  0.00    +0.000 C 
ATOM     15  C   UNL     1       1.507   9.223  22.290  0.00  0.00    +0.000 C 
ENDBRANCH   7  12
BRANCH   1  16
ATOM     16  C   UNL     1       4.592   5.342  16.645  0.00  0.00    +0.000 C 
BRANCH  16  17
ATOM     17  C   UNL     1       5.920   6.130  16.725  0.00  0.00    +0.000 C 
BRANCH  17  19
ATOM     18  C   UNL     1       7.618   4.628  17.532  0.00  0.00    +0.000 C 
ATOM     19  N   UNL     1       7.124   5.354  16.354  0.00  0.00    +0.000 NA
ATOM     20  C   UNL     1       6.860   4.404  15.273  0.00  0.00    +0.000 C 
ENDBRANCH  17  19
ENDBRANCH  16  17
ENDBRANCH   1  16
TORSDOF 4
ENDMDL
MODEL 5
REMARK VINA RESULT:      -6.4      3.277      5.581
REMARK  Name = 
REMARK  9 active torsions:
REMARK  status: ('A' for Active; 'I' for Inactive)
REMARK    1  A    between atoms: C_1  and  N_2
REMARK    2  A    between atoms: N_2  and  C_3
REMARK    3  A    between atoms: N_2  and  C_4
REMARK    4  A    between atoms: C_4  and  C_5
REMARK    5  A    between atoms: C_5  and  N_6
REMARK    6  A    between atoms: C_12  and  C_13
REMARK    7  A    between atoms: C_13  and  C_14
REMARK    8  A    between atoms: C_13  and  C_15
REMARK    9  A    between atoms: C_13  and  C_16
REMARK                            x       y       z     vdW  Elec       q    Type
REMARK                         _______ _______ _______ _____ _____    ______ ____
ROOT
ATOM      1  N   UNL     1       4.210   4.653  18.543  0.00  0.00    +0.000 N 
ATOM      2  C   UNL     1       4.972   4.684  17.393  0.00  0.00    +0.000 A 
ATOM      3  N   UNL     1       5.726   3.781  16.875  0.00  0.00    +0.000 NA
ATOM      4  S   UNL     1       4.841   6.238  16.550  0.00  0.00    +0.000 S 
ATOM      5  C   UNL     1       3.676   6.806  17.765  0.00  0.00    +0.000 A 
ATOM      6  C   UNL     1       3.015   8.030  17.763  0.00  0.00    +0.000 A 
ATOM      7  C   UNL     1       2.076   8.319  18.768  0.00  0.00    +0.000 A 
ATOM      8  C   UNL     1       1.867   7.338  19.758  0.00  0.00    +0.000 A 
ATOM      9  C   UNL     1       2.555   6.110  19.757  0.00  0.00    +0.000 A 
ATOM     10  C   UNL     1       3.467   5.828  18.751  0.00  0.00    +0.000 A 
ATOM     11  H   UNL     1       5.699   2.928  17.431  0.00  0.00    +0.000 HD
ENDROOT
BRANCH   7  12
ATOM     12  C   UNL     1       1.302   9.649  18.732  0.00  0.00    +0.000 C 
ATOM     13  C   UNL     1       0.037   9.488  17.859  0.00  0.00    +0.000 C 
ATOM     14  C   UNL     1       0.840  10.128  20.127  0.00  0.00    +0.000 C 
ATOM     15  C   UNL     1       2.182  10.765  18.132  0.00  0.00    +0.000 C 
ENDBRANCH   7  12
BRANCH   1  16
ATOM     16  C   UNL     1       4.270   3.582  19.532  0.00  0.00    +0.000 C 
BRANCH  16  17
ATOM     17  C   UNL     1       3.433   2.363  19.077  0.00  0.00    +0.000 C 
BRANCH  17  19
ATOM     18  C   UNL     1       2.269   2.766  21.144  0.00  0.00    +0.000 C 
ATOM     19  N   UNL     1       2.155   2.184  19.800  0.00  0.00    +0.000 NA
ATOM     20  C   UNL     1       1.030   2.801  19.096  0.00  0.00    +0.000 C 
ENDBRANCH  17  19
ENDBRANCH  16  17
ENDBRANCH   1  16
TORSDOF 4
ENDMDL
MODEL 6
REMARK VINA RESULT:      -6.3      0.534      1.302
REMARK  Name = 
REMARK  9 active torsions:
REMARK  status: ('A' for Active; 'I' for Inactive)
REMARK    1  A    between atoms: C_1  and  N_2
REMARK    2  A    between atoms: N_2  and  C_3
REMARK    3  A    between atoms: N_2  and  C_4
REMARK    4  A    between atoms: C_4  and  C_5
REMARK    5  A    between atoms: C_5  and  N_6
REMARK    6  A    between atoms: C_12  and  C_13
REMARK    7  A    between atoms: C_13  and  C_14
REMARK    8  A    between atoms: C_13  and  C_15
REMARK    9  A    between atoms: C_13  and  C_16
REMARK                            x       y       z     vdW  Elec       q    Type
REMARK                         _______ _______ _______ _____ _____    ______ ____
ROOT
ATOM      1  N   UNL     1       5.962   4.532  16.250  0.00  0.00    +0.000 N 
ATOM      2  C   UNL     1       6.708   5.625  16.644  0.00  0.00    +0.000 A 
ATOM      3  N   UNL     1       7.663   6.236  16.040  0.00  0.00    +0.000 NA
ATOM      4  S   UNL     1       6.214   6.226  18.237  0.00  0.00    +0.000 S 
ATOM      5  C   UNL     1       4.931   4.998  18.311  0.00  0.00    +0.000 A 
ATOM      6  C   UNL     1       3.995   4.847  19.327  0.00  0.00    +0.000 A 
ATOM      7  C   UNL     1       3.002   3.858  19.221  0.00  0.00    +0.000 A 
ATOM      8  C   UNL     1       3.025   3.040  18.072  0.00  0.00    +0.000 A 
ATOM      9  C   UNL     1       3.989   3.195  17.059  0.00  0.00    +0.000 A 
ATOM     10  C   UNL     1       4.955   4.184  17.166  0.00  0.00    +0.000 A 
ATOM     11  H   UNL     1       7.837   5.819  15.128  0.00  0.00    +0.000 HD
ENDROOT
BRANCH   7  12
ATOM     12  C   UNL     1       1.929   3.728  20.317  0.00  0.00    +0.000 C 
ATOM     13  C   UNL     1       1.500   5.136  20.788  0.00  0.00    +0.000 C 
ATOM     14  C   UNL     1       0.655   2.992  19.847  0.00  0.00    +0.000 C 
ATOM     15  C   UNL     1       2.490   2.949  21.525  0.00  0.00    +0.000 C 
ENDBRANCH   7  12
BRANCH   1  16
ATOM     16  C   UNL     1       6.268   3.716  15.079  0.00  0.00    +0.000 C 
BRANCH  16  17
ATOM     17  C   UNL     1       5.465   4.195  13.847  0.00  0.00    +0.000 C 
BRANCH  17  19
ATOM     18  C   UNL     1       7.536   4.726  12.745  0.00  0.00    +0.000 C 
ATOM     19  N   UNL     1       6.202   4.138  12.566  0.00  0.00    +0.000 NA
ATOM     20  C   UNL     1       6.336   2.770  12.064  0.00  0.00    +0.000 C 
ENDBRANCH  17  19
ENDBRANCH  16  17
ENDBRANCH   1  16
TORSDOF 4
ENDMDL
MODEL 7
REMARK VINA RESULT:      -6.3      3.456      4.987
REMARK  Name = 
REMARK  9 active torsions:
REMARK  status: ('A' for Active; 'I' for Inactive)
REMARK    1  A    between atoms: C_1  and  N_2
REMARK    2  A    between atoms: N_2  and  C_3
REMARK    3  A    between atoms: N_2  and  C_4
REMARK    4  A    between atoms: C_4  and  C_5
REMARK    5  A    between atoms: C_5  and  N_6
REMARK    6  A    between atoms: C_12  and  C_13
REMARK    7  A    between atoms: C_13  and  C_14
REMARK    8  A    between atoms: C_13  and  C_15
REMARK    9  A    between atoms: C_13  and  C_16
REMARK                            x       y       z     vdW  Elec       q    Type
REMARK                         _______ _______ _______ _____ _____    ______ ____
ROOT
ATOM      1  N   UNL     1       3.990   5.872  18.027  0.00  0.00    +0.000 N 
ATOM      2  C   UNL     1       3.994   4.885  18.992  0.00  0.00    +0.000 A 
ATOM      3  N   UNL     1       4.687   3.805  19.069  0.00  0.00    +0.000 NA
ATOM      4  S   UNL     1       2.844   5.229  20.296  0.00  0.00    +0.000 S 
ATOM      5  C   UNL     1       2.419   6.772  19.525  0.00  0.00    +0.000 A 
ATOM      6  C   UNL     1       1.536   7.724  20.022  0.00  0.00    +0.000 A 
ATOM      7  C   UNL     1       1.340   8.927  19.323  0.00  0.00    +0.000 A 
ATOM      8  C   UNL     1       2.049   9.096  18.116  0.00  0.00    +0.000 A 
ATOM      9  C   UNL     1       2.928   8.116  17.617  0.00  0.00    +0.000 A 
ATOM     10  C   UNL     1       3.127   6.940  18.324  0.00  0.00    +0.000 A 
ATOM     11  H   UNL     1       5.328   3.733  18.281  0.00  0.00    +0.000 HD
ENDROOT
BRANCH   7  12
ATOM     12  C   UNL     1       0.407  10.006  19.902  0.00  0.00    +0.000 C 
ATOM     13  C   UNL     1      -0.129   9.543  21.275  0.00  0.00    +0.000 C 
ATOM     14  C   UNL     1       1.103  11.369  20.116  0.00  0.00    +0.000 C 
ATOM     15  C   UNL     1      -0.788  10.245  18.956  0.00  0.00    +0.000 C 
ENDBRANCH   7  12
BRANCH   1  16
ATOM     16  C   UNL     1       4.691   5.766  16.750  0.00  0.00    +0.000 C 
BRANCH  16  17
ATOM     17  C   UNL     1       6.080   6.441  16.825  0.00  0.00    +0.000 C 
BRANCH  17  19
ATOM     18  C   UNL     1       7.587   4.632  17.319  0.00  0.00    +0.000 C 
ATOM     19  N   UNL     1       7.197   5.621  16.306  0.00  0.00    +0.000 NA
ATOM     20  C   UNL     1       6.847   4.933  15.063  0.00  0.00    +0.000 C 
ENDBRANCH  17  19
ENDBRANCH  16  17
ENDBRANCH   1  16
TORSDOF 4
ENDMDL
MODEL 8
REMARK VINA RESULT:      -6.3      3.523      5.101
REMARK  Name = 
REMARK  9 active torsions:
REMARK  status: ('A' for Active; 'I' for Inactive)
REMARK    1  A    between atoms: C_1  and  N_2
REMARK    2  A    between atoms: N_2  and  C_3
REMARK    3  A    between atoms: N_2  and  C_4
REMARK    4  A    between atoms: C_4  and  C_5
REMARK    5  A    between atoms: C_5  and  N_6
REMARK    6  A    between atoms: C_12  and  C_13
REMARK    7  A    between atoms: C_13  and  C_14
REMARK    8  A    between atoms: C_13  and  C_15
REMARK    9  A    between atoms: C_13  and  C_16
REMARK                            x       y       z     vdW  Elec       q    Type
REMARK                         _______ _______ _______ _____ _____    ______ ____
ROOT
ATOM      1  N   UNL     1       3.966   5.871  18.015  0.00  0.00    +0.000 N 
ATOM      2  C   UNL     1       3.926   4.896  18.991  0.00  0.00    +0.000 A 
ATOM      3  N   UNL     1       4.583   3.796  19.090  0.00  0.00    +0.000 NA
ATOM      4  S   UNL     1       2.768   5.290  20.275  0.00  0.00    +0.000 S 
ATOM      5  C   UNL     1       2.403   6.836  19.481  0.00  0.00    +0.000 A 
ATOM      6  C   UNL     1       1.543   7.821  19.954  0.00  0.00    +0.000 A 
ATOM      7  C   UNL     1       1.394   9.022  19.239  0.00  0.00    +0.000 A 
ATOM      8  C   UNL     1       2.125   9.155  18.041  0.00  0.00    +0.000 A 
ATOM      9  C   UNL     1       2.980   8.142  17.566  0.00  0.00    +0.000 A 
ATOM     10  C   UNL     1       3.132   6.969  18.288  0.00  0.00    +0.000 A 
ATOM     11  H   UNL     1       5.233   3.695  18.313  0.00  0.00    +0.000 HD
ENDROOT
BRANCH   7  12
ATOM     12  C   UNL     1       0.487  10.135  19.792  0.00  0.00    +0.000 C 
ATOM     13  C   UNL     1       1.175  11.506  19.599  0.00  0.00    +0.000 C 
ATOM     14  C   UNL     1      -0.890  10.210  19.096  0.00  0.00    +0.000 C 
ATOM     15  C   UNL     1       0.230   9.917  21.298  0.00  0.00    +0.000 C 
ENDBRANCH   7  12
BRANCH   1  16
ATOM     16  C   UNL     1       4.681   5.729  16.751  0.00  0.00    +0.000 C 
BRANCH  16  17
ATOM     17  C   UNL     1       6.105   6.327  16.850  0.00  0.00    +0.000 C 
BRANCH  17  19
ATOM     18  C   UNL     1       7.629   4.631  17.615  0.00  0.00    +0.000 C 
ATOM     19  N   UNL     1       7.192   5.408  16.448  0.00  0.00    +0.000 NA
ATOM     20  C   UNL     1       6.780   4.495  15.382  0.00  0.00    +0.000 C 
ENDBRANCH  17  19
ENDBRANCH  16  17
ENDBRANCH   1  16
TORSDOF 4
ENDMDL
MODEL 9
REMARK VINA RESULT:      -6.2      3.308      5.599
REMARK  Name = 
REMARK  9 active torsions:
REMARK  status: ('A' for Active; 'I' for Inactive)
REMARK    1  A    between atoms: C_1  and  N_2
REMARK    2  A    between atoms: N_2  and  C_3
REMARK    3  A    between atoms: N_2  and  C_4
REMARK    4  A    between atoms: C_4  and  C_5
REMARK    5  A    between atoms: C_5  and  N_6
REMARK    6  A    between atoms: C_12  and  C_13
REMARK    7  A    between atoms: C_13  and  C_14
REMARK    8  A    between atoms: C_13  and  C_15
REMARK    9  A    between atoms: C_13  and  C_16
REMARK                            x       y       z     vdW  Elec       q    Type
REMARK                         _______ _______ _______ _____ _____    ______ ____
ROOT
ATOM      1  N   UNL     1       4.356   4.816  18.460  0.00  0.00    +0.000 N 
ATOM      2  C   UNL     1       5.087   4.863  17.290  0.00  0.00    +0.000 A 
ATOM      3  N   UNL     1       5.857   3.981  16.760  0.00  0.00    +0.000 NA
ATOM      4  S   UNL     1       4.883   6.406  16.441  0.00  0.00    +0.000 S 
ATOM      5  C   UNL     1       3.731   6.944  17.682  0.00  0.00    +0.000 A 
ATOM      6  C   UNL     1       3.030   8.145  17.688  0.00  0.00    +0.000 A 
ATOM      7  C   UNL     1       2.108   8.411  18.714  0.00  0.00    +0.000 A 
ATOM      8  C   UNL     1       1.956   7.431  19.717  0.00  0.00    +0.000 A 
ATOM      9  C   UNL     1       2.684   6.226  19.706  0.00  0.00    +0.000 A 
ATOM     10  C   UNL     1       3.580   5.967  18.679  0.00  0.00    +0.000 A 
ATOM     11  H   UNL     1       5.872   3.132  17.322  0.00  0.00    +0.000 HD
ENDROOT
BRANCH   7  12
ATOM     12  C   UNL     1       1.290   9.714  18.690  0.00  0.00    +0.000 C 
ATOM     13  C   UNL     1       2.144  10.850  18.084  0.00  0.00    +0.000 C 
ATOM     14  C   UNL     1      -0.003   9.613  17.850  0.00  0.00    +0.000 C 
ATOM     15  C   UNL     1       0.876  10.114  20.122  0.00  0.00    +0.000 C 
ENDBRANCH   7  12
BRANCH   1  16
ATOM     16  C   UNL     1       4.476   3.754  19.454  0.00  0.00    +0.000 C 
BRANCH  16  17
ATOM     17  C   UNL     1       3.451   2.627  19.185  0.00  0.00    +0.000 C 
BRANCH  17  19
ATOM     18  C   UNL     1       1.120   2.193  18.784  0.00  0.00    +0.000 C 
ATOM     19  N   UNL     1       2.072   2.923  19.631  0.00  0.00    +0.000 NA
ATOM     20  C   UNL     1       1.853   2.564  21.032  0.00  0.00    +0.000 C 
ENDBRANCH  17  19
ENDBRANCH  16  17
ENDBRANCH   1  16
TORSDOF 4
ENDMDL
