MODEL 1
REMARK VINA RESULT:      -7.2      0.000      0.000
REMARK  Name = 
REMARK  9 active torsions:
REMARK  status: ('A' for Active; 'I' for Inactive)
REMARK    1  A    between atoms: C_1  and  S_2
REMARK    2  A    between atoms: S_2  and  O_5
REMARK    3  A    between atoms: O_5  and  C_6
REMARK    4  A    between atoms: C_6  and  O_8
REMARK    5  A    between atoms: O_8  and  C_9
REMARK    6  A    between atoms: C_13  and  O_14
REMARK    7  A    between atoms: O_14  and  C_15
REMARK    8  A    between atoms: N_17  and  C_18
REMARK    9  A    between atoms: C_18  and  C_19
REMARK                            x       y       z     vdW  Elec       q    Type
REMARK                         _______ _______ _______ _____ _____    ______ ____
ROOT
ATOM      1  C   UNL     1       2.076   7.554  20.264  0.00  0.00    +0.000 C 
ATOM      2  C   UNL     1       2.044   7.857  18.778  0.00  0.00    +0.000 C 
ATOM      3  O   UNL     1       2.972   6.949  18.179  0.00  0.00    +0.000 OA
ATOM      4  C   UNL     1       2.916   5.724  18.924  0.00  0.00    +0.000 C 
ATOM      5  C   UNL     1       1.899   4.741  18.335  0.00  0.00    +0.000 C 
ATOM      6  C   UNL     1       1.302   4.142  19.593  0.00  0.00    +0.000 C 
ATOM      7  O   UNL     1       1.200   5.236  20.514  0.00  0.00    +0.000 OA
ATOM      8  C   UNL     1       2.363   6.055  20.306  0.00  0.00    +0.000 C 
ENDROOT
BRANCH   1   9
ATOM      9  O   UNL     1       0.864   7.891  20.940  0.00  0.00    +0.000 OA
BRANCH   9  10
ATOM     10  C   UNL     1       0.909   9.002  21.713  0.00  0.00    +0.000 C 
ATOM     11  O   UNL     1       1.778   9.267  22.527  0.00  0.00    +0.000 OA
BRANCH  10  12
ATOM     12  O   UNL     1      -0.179   9.738  21.451  0.00  0.00    +0.000 OA
BRANCH  12  14
ATOM     13  C   UNL     1      -1.225  12.047  20.794  0.00  0.00    +0.000 C 
ATOM     14  S   UNL     1      -0.258  10.698  20.147  0.00  0.00    +0.000 S 
ATOM     15  O   UNL     1      -1.008  10.031  19.107  0.00  0.00    +0.000 OA
ATOM     16  O   UNL     1       1.080  11.204  19.902  0.00  0.00    +0.000 OA
ENDBRANCH  12  14
ENDBRANCH  10  12
ENDBRANCH   9  10
ENDBRANCH   1   9
BRANCH   5  17
ATOM     17  O   UNL     1       2.521   3.733  17.526  0.00  0.00    +0.000 OA
BRANCH  17  18
ATOM     18  C   UNL     1       3.617   3.178  18.107  0.00  0.00    +0.000 C 
ATOM     19  O   UNL     1       3.649   2.665  19.216  0.00  0.00    +0.000 OA
ATOM     20  N   UNL     1       4.714   3.167  17.299  0.00  0.00    +0.000 N 
ATOM     21  H   UNL     1       5.466   2.629  17.703  0.00  0.00    +0.000 HD
BRANCH  20  22
ATOM     22  C   UNL     1       5.093   4.277  16.461  0.00  0.00    +0.000 C 
BRANCH  22  23
ATOM     23  C   UNL     1       6.084   5.203  17.109  0.00  0.00    +0.000 A 
ATOM     24  C   UNL     1       6.159   6.544  16.709  0.00  0.00    +0.000 A 
ATOM     25  C   UNL     1       7.047   7.422  17.332  0.00  0.00    +0.000 A 
ATOM     26  C   UNL     1       7.874   6.966  18.357  0.00  0.00    +0.000 A 
ATOM     27  C   UNL     1       7.817   5.632  18.757  0.00  0.00    +0.000 A 
ATOM     28  C   UNL     1       6.930   4.752  18.135  0.00  0.00    +0.000 A 
ENDBRANCH  22  23
ENDBRANCH  20  22
ENDBRANCH  17  18
ENDBRANCH   5  17
TORSDOF 8
ENDMDL
MODEL 2
REMARK VINA RESULT:      -7.1      0.538      1.173
REMARK  Name = 
REMARK  9 active torsions:
REMARK  status: ('A' for Active; 'I' for Inactive)
REMARK    1  A    between atoms: C_1  and  S_2
REMARK    2  A    between atoms: S_2  and  O_5
REMARK    3  A    between atoms: O_5  and  C_6
REMARK    4  A    between atoms: C_6  and  O_8
REMARK    5  A    between atoms: O_8  and  C_9
REMARK    6  A    between atoms: C_13  and  O_14
REMARK    7  A    between atoms: O_14  and  C_15
REMARK    8  A    between atoms: N_17  and  C_18
REMARK    9  A    between atoms: C_18  and  C_19
REMARK                            x       y       z     vdW  Elec       q    Type
REMARK                         _______ _______ _______ _____ _____    ______ ____
ROOT
ATOM      1  C   UNL     1       2.149   7.593  20.132  0.00  0.00    +0.000 C 
ATOM      2  C   UNL     1       2.048   7.919  18.654  0.00  0.00    +0.000 C 
ATOM      3  O   UNL     1       2.973   7.044  18.003  0.00  0.00    +0.000 OA
ATOM      4  C   UNL     1       2.978   5.807  18.729  0.00  0.00    +0.000 C 
ATOM      5  C   UNL     1       1.963   4.807  18.164  0.00  0.00    +0.000 C 
ATOM      6  C   UNL     1       1.433   4.173  19.434  0.00  0.00    +0.000 C 
ATOM      7  O   UNL     1       1.341   5.249  20.377  0.00  0.00    +0.000 OA
ATOM      8  C   UNL     1       2.474   6.101  20.137  0.00  0.00    +0.000 C 
ENDROOT
BRANCH   1   9
ATOM      9  O   UNL     1       0.957   7.887  20.863  0.00  0.00    +0.000 OA
BRANCH   9  10
ATOM     10  C   UNL     1       0.964   9.049  21.558  0.00  0.00    +0.000 C 
ATOM     11  O   UNL     1       1.760   9.350  22.432  0.00  0.00    +0.000 OA
BRANCH  10  12
ATOM     12  O   UNL     1      -0.072   9.791  21.144  0.00  0.00    +0.000 OA
BRANCH  12  14
ATOM     13  C   UNL     1      -1.460  11.592  19.845  0.00  0.00    +0.000 C 
ATOM     14  S   UNL     1       0.138  11.295  20.575  0.00  0.00    +0.000 S 
ATOM     15  O   UNL     1       1.141  11.277  19.534  0.00  0.00    +0.000 OA
ATOM     16  O   UNL     1       0.260  12.176  21.721  0.00  0.00    +0.000 OA
ENDBRANCH  12  14
ENDBRANCH  10  12
ENDBRANCH   9  10
ENDBRANCH   1   9
BRANCH   5  17
ATOM     17  O   UNL     1       2.576   3.830  17.313  0.00  0.00    +0.000 OA
BRANCH  17  18
ATOM     18  C   UNL     1       3.635   3.202  17.891  0.00  0.00    +0.000 C 
ATOM     19  O   UNL     1       3.625   2.656  18.985  0.00  0.00    +0.000 OA
ATOM     20  N   UNL     1       4.740   3.157  17.096  0.00  0.00    +0.000 N 
ATOM     21  H   UNL     1       5.458   2.569  17.494  0.00  0.00    +0.000 HD
BRANCH  20  22
ATOM     22  C   UNL     1       5.188   4.269  16.296  0.00  0.00    +0.000 C 
BRANCH  22  23
ATOM     23  C   UNL     1       6.104   5.204  17.033  0.00  0.00    +0.000 A 
ATOM     24  C   UNL     1       6.957   4.713  18.030  0.00  0.00    +0.000 A 
ATOM     25  C   UNL     1       7.841   5.566  18.693  0.00  0.00    +0.000 A 
ATOM     26  C   UNL     1       7.876   6.921  18.369  0.00  0.00    +0.000 A 
ATOM     27  C   UNL     1       7.025   7.425  17.386  0.00  0.00    +0.000 A 
ATOM     28  C   UNL     1       6.140   6.573  16.723  0.00  0.00    +0.000 A 
ENDBRANCH  22  23
ENDBRANCH  20  22
ENDBRANCH  17  18
ENDBRANCH   5  17
TORSDOF 8
ENDMDL
MODEL 3
REMARK VINA RESULT:      -7.0      3.976      8.456
REMARK  Name = 
REMARK  9 active torsions:
REMARK  status: ('A' for Active; 'I' for Inactive)
REMARK    1  A    between atoms: C_1  and  S_2
REMARK    2  A    between atoms: S_2  and  O_5
REMARK    3  A    between atoms: O_5  and  C_6
REMARK    4  A    between atoms: C_6  and  O_8
REMARK    5  A    between atoms: O_8  and  C_9
REMARK    6  A    between atoms: C_13  and  O_14
REMARK    7  A    between atoms: O_14  and  C_15
REMARK    8  A    between atoms: N_17  and  C_18
REMARK    9  A    between atoms: C_18  and  C_19
REMARK                            x       y       z     vdW  Elec       q    Type
REMARK                         _______ _______ _______ _____ _____    ______ ____
ROOT
ATOM      1  C   UNL     1       3.845   5.935  18.435  0.00  0.00    +0.000 C 
ATOM      2  C   UNL     1       4.295   7.256  17.842  0.00  0.00    +0.000 C 
ATOM      3  O   UNL     1       3.110   7.873  17.332  0.00  0.00    +0.000 OA
ATOM      4  C   UNL     1       2.030   7.517  18.207  0.00  0.00    +0.000 C 
ATOM      5  C   UNL     1       1.832   8.548  19.323  0.00  0.00    +0.000 C 
ATOM      6  C   UNL     1       1.503   7.652  20.500  0.00  0.00    +0.000 C 
ATOM      7  O   UNL     1       2.358   6.510  20.349  0.00  0.00    +0.000 OA
ATOM      8  C   UNL     1       2.436   6.243  18.938  0.00  0.00    +0.000 C 
ENDROOT
BRANCH   1   9
ATOM      9  O   UNL     1       4.698   5.459  19.478  0.00  0.00    +0.000 OA
BRANCH   9  10
ATOM     10  C   UNL     1       5.982   5.215  19.123  0.00  0.00    +0.000 C 
ATOM     11  O   UNL     1       6.968   5.492  19.786  0.00  0.00    +0.000 OA
BRANCH  10  12
ATOM     12  O   UNL     1       5.980   4.650  17.908  0.00  0.00    +0.000 OA
BRANCH  12  14
ATOM     13  C   UNL     1       6.534   4.121  15.404  0.00  0.00    +0.000 C 
ATOM     14  S   UNL     1       7.216   4.852  16.879  0.00  0.00    +0.000 S 
ATOM     15  O   UNL     1       8.343   4.062  17.323  0.00  0.00    +0.000 OA
ATOM     16  O   UNL     1       7.347   6.276  16.635  0.00  0.00    +0.000 OA
ENDBRANCH  12  14
ENDBRANCH  10  12
ENDBRANCH   9  10
ENDBRANCH   1   9
BRANCH   5  17
ATOM     17  O   UNL     1       0.755   9.453  19.044  0.00  0.00    +0.000 OA
BRANCH  17  18
ATOM     18  C   UNL     1       1.167  10.624  18.491  0.00  0.00    +0.000 C 
ATOM     19  O   UNL     1       2.327  10.925  18.248  0.00  0.00    +0.000 OA
ATOM     20  N   UNL     1       0.142  11.451  18.142  0.00  0.00    +0.000 N 
ATOM     21  H   UNL     1       0.471  12.245  17.613  0.00  0.00    +0.000 HD
BRANCH  20  22
ATOM     22  C   UNL     1      -1.022  11.662  18.965  0.00  0.00    +0.000 C 
BRANCH  22  23
ATOM     23  C   UNL     1      -2.317  11.518  18.215  0.00  0.00    +0.000 A 
ATOM     24  C   UNL     1      -3.529  11.854  18.832  0.00  0.00    +0.000 A 
ATOM     25  C   UNL     1      -4.732  11.762  18.131  0.00  0.00    +0.000 A 
ATOM     26  C   UNL     1      -4.737  11.327  16.808  0.00  0.00    +0.000 A 
ATOM     27  C   UNL     1      -3.539  10.980  16.185  0.00  0.00    +0.000 A 
ATOM     28  C   UNL     1      -2.335  11.070  16.884  0.00  0.00    +0.000 A 
ENDBRANCH  22  23
ENDBRANCH  20  22
ENDBRANCH  17  18
ENDBRANCH   5  17
TORSDOF 8
ENDMDL
MODEL 4
REMARK VINA RESULT:      -7.0      1.967      4.144
REMARK  Name = 
REMARK  9 active torsions:
REMARK  status: ('A' for Active; 'I' for Inactive)
REMARK    1  A    between atoms: C_1  and  S_2
REMARK    2  A    between atoms: S_2  and  O_5
REMARK    3  A    between atoms: O_5  and  C_6
REMARK    4  A    between atoms: C_6  and  O_8
REMARK    5  A    between atoms: O_8  and  C_9
REMARK    6  A    between atoms: C_13  and  O_14
REMARK    7  A    between atoms: O_14  and  C_15
REMARK    8  A    between atoms: N_17  and  C_18
REMARK    9  A    between atoms: C_18  and  C_19
REMARK                            x       y       z     vdW  Elec       q    Type
REMARK                         _______ _______ _______ _____ _____    ______ ____
ROOT
ATOM      1  C   UNL     1       1.591   8.048  19.142  0.00  0.00    +0.000 C 
ATOM      2  C   UNL     1       2.089   7.194  20.292  0.00  0.00    +0.000 C 
ATOM      3  O   UNL     1       2.238   5.876  19.757  0.00  0.00    +0.000 OA
ATOM      4  C   UNL     1       2.659   6.013  18.392  0.00  0.00    +0.000 C 
ATOM      5  C   UNL     1       4.186   6.010  18.260  0.00  0.00    +0.000 C 
ATOM      6  C   UNL     1       4.392   7.052  17.180  0.00  0.00    +0.000 C 
ATOM      7  O   UNL     1       3.426   8.074  17.458  0.00  0.00    +0.000 OA
ATOM      8  C   UNL     1       2.243   7.401  17.922  0.00  0.00    +0.000 C 
ENDROOT
BRANCH   1   9
ATOM      9  O   UNL     1       1.934   9.429  19.269  0.00  0.00    +0.000 OA
BRANCH   9  10
ATOM     10  C   UNL     1       0.900  10.302  19.202  0.00  0.00    +0.000 C 
ATOM     11  O   UNL     1       0.803  11.231  18.417  0.00  0.00    +0.000 OA
BRANCH  10  12
ATOM     12  O   UNL     1       0.025   9.987  20.166  0.00  0.00    +0.000 OA
BRANCH  12  14
ATOM     13  C   UNL     1       0.096   9.521  22.742  0.00  0.00    +0.000 C 
ATOM     14  S   UNL     1      -0.054  10.834  21.547  0.00  0.00    +0.000 S 
ATOM     15  O   UNL     1      -1.363  11.437  21.664  0.00  0.00    +0.000 OA
ATOM     16  O   UNL     1       1.152  11.636  21.631  0.00  0.00    +0.000 OA
ENDBRANCH  12  14
ENDBRANCH  10  12
ENDBRANCH   9  10
ENDBRANCH   1   9
BRANCH   5  17
ATOM     17  O   UNL     1       4.695   4.733  17.853  0.00  0.00    +0.000 OA
BRANCH  17  18
ATOM     18  C   UNL     1       5.728   4.296  18.621  0.00  0.00    +0.000 C 
ATOM     19  O   UNL     1       6.863   4.750  18.608  0.00  0.00    +0.000 OA
ATOM     20  N   UNL     1       5.376   3.318  19.501  0.00  0.00    +0.000 N 
ATOM     21  H   UNL     1       6.125   3.113  20.146  0.00  0.00    +0.000 HD
BRANCH  20  22
ATOM     22  C   UNL     1       4.500   2.224  19.163  0.00  0.00    +0.000 C 
BRANCH  22  23
ATOM     23  C   UNL     1       3.066   2.471  19.540  0.00  0.00    +0.000 A 
ATOM     24  C   UNL     1       2.064   2.424  18.562  0.00  0.00    +0.000 A 
ATOM     25  C   UNL     1       0.725   2.612  18.907  0.00  0.00    +0.000 A 
ATOM     26  C   UNL     1       0.375   2.855  20.234  0.00  0.00    +0.000 A 
ATOM     27  C   UNL     1       1.363   2.914  21.215  0.00  0.00    +0.000 A 
ATOM     28  C   UNL     1       2.703   2.727  20.872  0.00  0.00    +0.000 A 
ENDBRANCH  22  23
ENDBRANCH  20  22
ENDBRANCH  17  18
ENDBRANCH   5  17
TORSDOF 8
ENDMDL
MODEL 5
REMARK VINA RESULT:      -7.0      1.997      4.305
REMARK  Name = 
REMARK  9 active torsions:
REMARK  status: ('A' for Active; 'I' for Inactive)
REMARK    1  A    between atoms: C_1  and  S_2
REMARK    2  A    between atoms: S_2  and  O_5
REMARK    3  A    between atoms: O_5  and  C_6
REMARK    4  A    between atoms: C_6  and  O_8
REMARK    5  A    between atoms: O_8  and  C_9
REMARK    6  A    between atoms: C_13  and  O_14
REMARK    7  A    between atoms: O_14  and  C_15
REMARK    8  A    between atoms: N_17  and  C_18
REMARK    9  A    between atoms: C_18  and  C_19
REMARK                            x       y       z     vdW  Elec       q    Type
REMARK                         _______ _______ _______ _____ _____    ______ ____
ROOT
ATOM      1  C   UNL     1       1.643   8.221  18.989  0.00  0.00    +0.000 C 
ATOM      2  C   UNL     1       2.089   7.393  20.179  0.00  0.00    +0.000 C 
ATOM      3  O   UNL     1       2.210   6.053  19.692  0.00  0.00    +0.000 OA
ATOM      4  C   UNL     1       2.665   6.130  18.334  0.00  0.00    +0.000 C 
ATOM      5  C   UNL     1       4.193   6.077  18.237  0.00  0.00    +0.000 C 
ATOM      6  C   UNL     1       4.455   7.074  17.126  0.00  0.00    +0.000 C 
ATOM      7  O   UNL     1       3.515   8.133  17.347  0.00  0.00    +0.000 OA
ATOM      8  C   UNL     1       2.301   7.513  17.807  0.00  0.00    +0.000 C 
ENDROOT
BRANCH   1   9
ATOM      9  O   UNL     1       2.026   9.595  19.076  0.00  0.00    +0.000 OA
BRANCH   9  10
ATOM     10  C   UNL     1       1.035  10.496  18.876  0.00  0.00    +0.000 C 
ATOM     11  O   UNL     1      -0.088  10.241  18.471  0.00  0.00    +0.000 OA
BRANCH  10  12
ATOM     12  O   UNL     1       1.512  11.714  19.166  0.00  0.00    +0.000 OA
BRANCH  12  14
ATOM     13  C   UNL     1       0.042  13.593  20.245  0.00  0.00    +0.000 C 
ATOM     14  S   UNL     1       1.293  12.383  20.627  0.00  0.00    +0.000 S 
ATOM     15  O   UNL     1       2.504  13.061  21.029  0.00  0.00    +0.000 OA
ATOM     16  O   UNL     1       0.679  11.378  21.474  0.00  0.00    +0.000 OA
ENDBRANCH  12  14
ENDBRANCH  10  12
ENDBRANCH   9  10
ENDBRANCH   1   9
BRANCH   5  17
ATOM     17  O   UNL     1       4.672   4.772  17.886  0.00  0.00    +0.000 OA
BRANCH  17  18
ATOM     18  C   UNL     1       5.713   4.356  18.654  0.00  0.00    +0.000 C 
ATOM     19  O   UNL     1       6.841   4.828  18.636  0.00  0.00    +0.000 OA
ATOM     20  N   UNL     1       5.379   3.377  19.540  0.00  0.00    +0.000 N 
ATOM     21  H   UNL     1       6.132   3.189  20.185  0.00  0.00    +0.000 HD
BRANCH  20  22
ATOM     22  C   UNL     1       4.520   2.268  19.211  0.00  0.00    +0.000 C 
BRANCH  22  23
ATOM     23  C   UNL     1       3.080   2.500  19.575  0.00  0.00    +0.000 A 
ATOM     24  C   UNL     1       2.727   2.785  20.901  0.00  0.00    +0.000 A 
ATOM     25  C   UNL     1       1.398   3.042  21.242  0.00  0.00    +0.000 A 
ATOM     26  C   UNL     1       0.408   3.010  20.262  0.00  0.00    +0.000 A 
ATOM     27  C   UNL     1       0.744   2.718  18.942  0.00  0.00    +0.000 A 
ATOM     28  C   UNL     1       2.072   2.460  18.598  0.00  0.00    +0.000 A 
ENDBRANCH  22  23
ENDBRANCH  20  22
ENDBRANCH  17  18
ENDBRANCH   5  17
TORSDOF 8
ENDMDL
MODEL 6
REMARK VINA RESULT:      -6.9      1.092      1.746
REMARK  Name = 
REMARK  9 active torsions:
REMARK  status: ('A' for Active; 'I' for Inactive)
REMARK    1  A    between atoms: C_1  and  S_2
REMARK    2  A    between atoms: S_2  and  O_5
REMARK    3  A    between atoms: O_5  and  C_6
REMARK    4  A    between atoms: C_6  and  O_8
REMARK    5  A    between atoms: O_8  and  C_9
REMARK    6  A    between atoms: C_13  and  O_14
REMARK    7  A    between atoms: O_14  and  C_15
REMARK    8  A    between atoms: N_17  and  C_18
REMARK    9  A    between atoms: C_18  and  C_19
REMARK                            x       y       z     vdW  Elec       q    Type
REMARK                         _______ _______ _______ _____ _____    ______ ____
ROOT
ATOM      1  C   UNL     1       2.167   8.036  19.600  0.00  0.00    +0.000 C 
ATOM      2  C   UNL     1       2.126   7.935  18.087  0.00  0.00    +0.000 C 
ATOM      3  O   UNL     1       3.095   6.941  17.740  0.00  0.00    +0.000 OA
ATOM      4  C   UNL     1       3.091   5.956  18.782  0.00  0.00    +0.000 C 
ATOM      5  C   UNL     1       2.120   4.808  18.482  0.00  0.00    +0.000 C 
ATOM      6  C   UNL     1       1.546   4.537  19.858  0.00  0.00    +0.000 C 
ATOM      7  O   UNL     1       1.393   5.830  20.459  0.00  0.00    +0.000 OA
ATOM      8  C   UNL     1       2.520   6.615  20.033  0.00  0.00    +0.000 C 
ENDROOT
BRANCH   1   9
ATOM      9  O   UNL     1       0.938   8.486  20.173  0.00  0.00    +0.000 OA
BRANCH   9  10
ATOM     10  C   UNL     1       0.910   9.783  20.562  0.00  0.00    +0.000 C 
ATOM     11  O   UNL     1       0.744  10.742  19.826  0.00  0.00    +0.000 OA
BRANCH  10  12
ATOM     12  O   UNL     1       1.128   9.829  21.883  0.00  0.00    +0.000 OA
BRANCH  12  14
ATOM     13  C   UNL     1      -1.031  11.046  22.730  0.00  0.00    +0.000 C 
ATOM     14  S   UNL     1      -0.066   9.564  22.947  0.00  0.00    +0.000 S 
ATOM     15  O   UNL     1       0.481   9.544  24.285  0.00  0.00    +0.000 OA
ATOM     16  O   UNL     1      -0.856   8.456  22.443  0.00  0.00    +0.000 OA
ENDBRANCH  12  14
ENDBRANCH  10  12
ENDBRANCH   9  10
ENDBRANCH   1   9
BRANCH   5  17
ATOM     17  O   UNL     1       2.789   3.651  17.962  0.00  0.00    +0.000 OA
BRANCH  17  18
ATOM     18  C   UNL     1       3.884   3.293  18.682  0.00  0.00    +0.000 C 
ATOM     19  O   UNL     1       3.881   2.963  19.860  0.00  0.00    +0.000 OA
ATOM     20  N   UNL     1       5.030   3.254  17.948  0.00  0.00    +0.000 N 
ATOM     21  H   UNL     1       5.793   2.854  18.474  0.00  0.00    +0.000 HD
BRANCH  20  22
ATOM     22  C   UNL     1       5.376   4.249  16.964  0.00  0.00    +0.000 C 
BRANCH  22  23
ATOM     23  C   UNL     1       6.349   5.277  17.472  0.00  0.00    +0.000 A 
ATOM     24  C   UNL     1       6.487   6.502  16.807  0.00  0.00    +0.000 A 
ATOM     25  C   UNL     1       7.357   7.479  17.294  0.00  0.00    +0.000 A 
ATOM     26  C   UNL     1       8.103   7.237  18.445  0.00  0.00    +0.000 A 
ATOM     27  C   UNL     1       7.983   6.018  19.109  0.00  0.00    +0.000 A 
ATOM     28  C   UNL     1       7.114   5.040  18.625  0.00  0.00    +0.000 A 
ENDBRANCH  22  23
ENDBRANCH  20  22
ENDBRANCH  17  18
ENDBRANCH   5  17
TORSDOF 8
ENDMDL
MODEL 7
REMARK VINA RESULT:      -6.9      2.014      4.208
REMARK  Name = 
REMARK  9 active torsions:
REMARK  status: ('A' for Active; 'I' for Inactive)
REMARK    1  A    between atoms: C_1  and  S_2
REMARK    2  A    between atoms: S_2  and  O_5
REMARK    3  A    between atoms: O_5  and  C_6
REMARK    4  A    between atoms: C_6  and  O_8
REMARK    5  A    between atoms: O_8  and  C_9
REMARK    6  A    between atoms: C_13  and  O_14
REMARK    7  A    between atoms: O_14  and  C_15
REMARK    8  A    between atoms: N_17  and  C_18
REMARK    9  A    between atoms: C_18  and  C_19
REMARK                            x       y       z     vdW  Elec       q    Type
REMARK                         _______ _______ _______ _____ _____    ______ ____
ROOT
ATOM      1  C   UNL     1       1.595   8.055  19.120  0.00  0.00    +0.000 C 
ATOM      2  C   UNL     1       2.124   7.247  20.290  0.00  0.00    +0.000 C 
ATOM      3  O   UNL     1       2.280   5.914  19.797  0.00  0.00    +0.000 OA
ATOM      4  C   UNL     1       2.675   6.007  18.422  0.00  0.00    +0.000 C 
ATOM      5  C   UNL     1       4.199   6.017  18.263  0.00  0.00    +0.000 C 
ATOM      6  C   UNL     1       4.374   7.023  17.143  0.00  0.00    +0.000 C 
ATOM      7  O   UNL     1       3.400   8.043  17.403  0.00  0.00    +0.000 OA
ATOM      8  C   UNL     1       2.233   7.374  17.911  0.00  0.00    +0.000 C 
ENDROOT
BRANCH   1   9
ATOM      9  O   UNL     1       1.924   9.444  19.192  0.00  0.00    +0.000 OA
BRANCH   9  10
ATOM     10  C   UNL     1       0.901  10.304  18.973  0.00  0.00    +0.000 C 
ATOM     11  O   UNL     1      -0.013  10.135  18.182  0.00  0.00    +0.000 OA
BRANCH  10  12
ATOM     12  O   UNL     1       1.086  11.380  19.748  0.00  0.00    +0.000 OA
BRANCH  12  14
ATOM     13  C   UNL     1      -0.049  10.237  21.812  0.00  0.00    +0.000 C 
ATOM     14  S   UNL     1       0.032  11.774  20.916  0.00  0.00    +0.000 S 
ATOM     15  O   UNL     1      -1.258  12.049  20.323  0.00  0.00    +0.000 OA
ATOM     16  O   UNL     1       0.684  12.743  21.777  0.00  0.00    +0.000 OA
ENDBRANCH  12  14
ENDBRANCH  10  12
ENDBRANCH   9  10
ENDBRANCH   1   9
BRANCH   5  17
ATOM     17  O   UNL     1       4.717   4.733  17.891  0.00  0.00    +0.000 OA
BRANCH  17  18
ATOM     18  C   UNL     1       5.727   4.307  18.694  0.00  0.00    +0.000 C 
ATOM     19  O   UNL     1       6.857   4.775  18.720  0.00  0.00    +0.000 OA
ATOM     20  N   UNL     1       5.357   3.324  19.561  0.00  0.00    +0.000 N 
ATOM     21  H   UNL     1       6.085   3.128  20.232  0.00  0.00    +0.000 HD
BRANCH  20  22
ATOM     22  C   UNL     1       4.505   2.221  19.193  0.00  0.00    +0.000 C 
BRANCH  22  23
ATOM     23  C   UNL     1       3.062   2.436  19.552  0.00  0.00    +0.000 A 
ATOM     24  C   UNL     1       2.701   2.711  20.878  0.00  0.00    +0.000 A 
ATOM     25  C   UNL     1       1.368   2.952  21.215  0.00  0.00    +0.000 A 
ATOM     26  C   UNL     1       0.382   2.914  20.231  0.00  0.00    +0.000 A 
ATOM     27  C   UNL     1       0.726   2.631  18.911  0.00  0.00    +0.000 A 
ATOM     28  C   UNL     1       2.059   2.389  18.571  0.00  0.00    +0.000 A 
ENDBRANCH  22  23
ENDBRANCH  20  22
ENDBRANCH  17  18
ENDBRANCH   5  17
TORSDOF 8
ENDMDL
MODEL 8
REMARK VINA RESULT:      -6.9      2.168      4.328
REMARK  Name = 
REMARK  9 active torsions:
REMARK  status: ('A' for Active; 'I' for Inactive)
REMARK    1  A    between atoms: C_1  and  S_2
REMARK    2  A    between atoms: S_2  and  O_5
REMARK    3  A    between atoms: O_5  and  C_6
REMARK    4  A    between atoms: C_6  and  O_8
REMARK    5  A    between atoms: O_8  and  C_9
REMARK    6  A    between atoms: C_13  and  O_14
REMARK    7  A    between atoms: O_14  and  C_15
REMARK    8  A    between atoms: N_17  and  C_18
REMARK    9  A    between atoms: C_18  and  C_19
REMARK                            x       y       z     vdW  Elec       q    Type
REMARK                         _______ _______ _______ _____ _____    ______ ____
ROOT
ATOM      1  C   UNL     1       1.646   8.020  19.080  0.00  0.00    +0.000 C 
ATOM      2  C   UNL     1       2.137   7.172  20.238  0.00  0.00    +0.000 C 
ATOM      3  O   UNL     1       2.283   5.850  19.712  0.00  0.00    +0.000 OA
ATOM      4  C   UNL     1       2.709   5.974  18.348  0.00  0.00    +0.000 C 
ATOM      5  C   UNL     1       4.235   5.965  18.220  0.00  0.00    +0.000 C 
ATOM      6  C   UNL     1       4.449   6.998  17.132  0.00  0.00    +0.000 C 
ATOM      7  O   UNL     1       3.486   8.025  17.401  0.00  0.00    +0.000 OA
ATOM      8  C   UNL     1       2.299   7.361  17.866  0.00  0.00    +0.000 C 
ENDROOT
BRANCH   1   9
ATOM      9  O   UNL     1       1.994   9.400  19.197  0.00  0.00    +0.000 OA
BRANCH   9  10
ATOM     10  C   UNL     1       0.976  10.280  19.042  0.00  0.00    +0.000 C 
ATOM     11  O   UNL     1      -0.058  10.070  18.430  0.00  0.00    +0.000 OA
BRANCH  10  12
ATOM     12  O   UNL     1       1.318  11.425  19.647  0.00  0.00    +0.000 OA
BRANCH  12  14
ATOM     13  C   UNL     1       2.317  13.807  20.081  0.00  0.00    +0.000 C 
ATOM     14  S   UNL     1       1.653  12.765  18.797  0.00  0.00    +0.000 S 
ATOM     15  O   UNL     1       0.422  13.340  18.306  0.00  0.00    +0.000 OA
ATOM     16  O   UNL     1       2.743  12.441  17.895  0.00  0.00    +0.000 OA
ENDBRANCH  12  14
ENDBRANCH  10  12
ENDBRANCH   9  10
ENDBRANCH   1   9
BRANCH   5  17
ATOM     17  O   UNL     1       4.741   4.683  17.824  0.00  0.00    +0.000 OA
BRANCH  17  18
ATOM     18  C   UNL     1       5.746   4.231  18.620  0.00  0.00    +0.000 C 
ATOM     19  O   UNL     1       6.885   4.675  18.645  0.00  0.00    +0.000 OA
ATOM     20  N   UNL     1       5.359   3.250  19.482  0.00  0.00    +0.000 N 
ATOM     21  H   UNL     1       6.086   3.035  20.149  0.00  0.00    +0.000 HD
BRANCH  20  22
ATOM     22  C   UNL     1       4.484   2.167  19.110  0.00  0.00    +0.000 C 
BRANCH  22  23
ATOM     23  C   UNL     1       3.051   2.395  19.506  0.00  0.00    +0.000 A 
ATOM     24  C   UNL     1       2.727   2.684  20.838  0.00  0.00    +0.000 A 
ATOM     25  C   UNL     1       1.405   2.937  21.207  0.00  0.00    +0.000 A 
ATOM     26  C   UNL     1       0.393   2.898  20.250  0.00  0.00    +0.000 A 
ATOM     27  C   UNL     1       0.702   2.602  18.923  0.00  0.00    +0.000 A 
ATOM     28  C   UNL     1       2.023   2.348  18.551  0.00  0.00    +0.000 A 
ENDBRANCH  22  23
ENDBRANCH  20  22
ENDBRANCH  17  18
ENDBRANCH   5  17
TORSDOF 8
ENDMDL
MODEL 9
REMARK VINA RESULT:      -6.8      2.200      4.372
REMARK  Name = 
REMARK  9 active torsions:
REMARK  status: ('A' for Active; 'I' for Inactive)
REMARK    1  A    between atoms: C_1  and  S_2
REMARK    2  A    between atoms: S_2  and  O_5
REMARK    3  A    between atoms: O_5  and  C_6
REMARK    4  A    between atoms: C_6  and  O_8
REMARK    5  A    between atoms: O_8  and  C_9
REMARK    6  A    between atoms: C_13  and  O_14
REMARK    7  A    between atoms: O_14  and  C_15
REMARK    8  A    between atoms: N_17  and  C_18
REMARK    9  A    between atoms: C_18  and  C_19
REMARK                            x       y       z     vdW  Elec       q    Type
REMARK                         _______ _______ _______ _____ _____    ______ ____
ROOT
ATOM      1  C   UNL     1       1.676   8.088  19.064  0.00  0.00    +0.000 C 
ATOM      2  C   UNL     1       2.115   7.214  20.224  0.00  0.00    +0.000 C 
ATOM      3  O   UNL     1       2.227   5.892  19.690  0.00  0.00    +0.000 OA
ATOM      4  C   UNL     1       2.684   6.013  18.336  0.00  0.00    +0.000 C 
ATOM      5  C   UNL     1       4.212   5.953  18.238  0.00  0.00    +0.000 C 
ATOM      6  C   UNL     1       4.482   6.987  17.164  0.00  0.00    +0.000 C 
ATOM      7  O   UNL     1       3.549   8.044  17.422  0.00  0.00    +0.000 OA
ATOM      8  C   UNL     1       2.331   7.417  17.858  0.00  0.00    +0.000 C 
ENDROOT
BRANCH   1   9
ATOM      9  O   UNL     1       2.069   9.455  19.200  0.00  0.00    +0.000 OA
BRANCH   9  10
ATOM     10  C   UNL     1       1.174  10.371  18.759  0.00  0.00    +0.000 C 
ATOM     11  O   UNL     1      -0.036  10.224  18.726  0.00  0.00    +0.000 OA
BRANCH  10  12
ATOM     12  O   UNL     1       1.851  11.447  18.337  0.00  0.00    +0.000 OA
BRANCH  12  14
ATOM     13  C   UNL     1       2.972  13.814  18.304  0.00  0.00    +0.000 C 
ATOM     14  S   UNL     1       1.584  12.917  18.969  0.00  0.00    +0.000 S 
ATOM     15  O   UNL     1       1.707  12.848  20.408  0.00  0.00    +0.000 OA
ATOM     16  O   UNL     1       0.387  13.445  18.342  0.00  0.00    +0.000 OA
ENDBRANCH  12  14
ENDBRANCH  10  12
ENDBRANCH   9  10
ENDBRANCH   1   9
BRANCH   5  17
ATOM     17  O   UNL     1       4.682   4.658  17.841  0.00  0.00    +0.000 OA
BRANCH  17  18
ATOM     18  C   UNL     1       5.717   4.206  18.597  0.00  0.00    +0.000 C 
ATOM     19  O   UNL     1       6.859   4.640  18.567  0.00  0.00    +0.000 OA
ATOM     20  N   UNL     1       5.359   3.237  19.486  0.00  0.00    +0.000 N 
ATOM     21  H   UNL     1       6.113   3.023  20.122  0.00  0.00    +0.000 HD
BRANCH  20  22
ATOM     22  C   UNL     1       4.459   2.158  19.165  0.00  0.00    +0.000 C 
BRANCH  22  23
ATOM     23  C   UNL     1       3.030   2.444  19.534  0.00  0.00    +0.000 A 
ATOM     24  C   UNL     1       2.031   2.414  18.552  0.00  0.00    +0.000 A 
ATOM     25  C   UNL     1       0.696   2.638  18.891  0.00  0.00    +0.000 A 
ATOM     26  C   UNL     1       0.347   2.900  20.215  0.00  0.00    +0.000 A 
ATOM     27  C   UNL     1       1.333   2.942  21.199  0.00  0.00    +0.000 A 
ATOM     28  C   UNL     1       2.669   2.720  20.862  0.00  0.00    +0.000 A 
ENDBRANCH  22  23
ENDBRANCH  20  22
ENDBRANCH  17  18
ENDBRANCH   5  17
TORSDOF 8
ENDMDL
