MODEL 1
REMARK VINA RESULT:      -8.2      0.000      0.000
REMARK  Name = 
REMARK  11 active torsions:
REMARK  status: ('A' for Active; 'I' for Inactive)
REMARK    1  A    between atoms: C_1  and  C_2
REMARK    2  A    between atoms: C_2  and  C_3
REMARK    3  A    between atoms: C_3  and  C_4
REMARK    4  A    between atoms: C_4  and  C_5
REMARK    5  A    between atoms: C_5  and  C_6
REMARK    6  A    between atoms: C_6  and  C_7
REMARK    7  A    between atoms: C_7  and  C_8
REMARK    8  A    between atoms: C_7  and  C_9
REMARK    9  A    between atoms: C_11  and  O_12
REMARK   10  A    between atoms: C_17  and  C_18
REMARK   11  A    between atoms: C_17  and  C_19
REMARK                            x       y       z     vdW  Elec       q    Type
REMARK                         _______ _______ _______ _____ _____    ______ ____
ROOT
ATOM      1  C   UNL     1       5.466   4.579  15.679  0.00  0.00    +0.000 A 
ATOM      2  C   UNL     1       5.253   5.945  15.875  0.00  0.00    +0.000 A 
ATOM      3  C   UNL     1       4.430   6.416  16.909  0.00  0.00    +0.000 A 
ATOM      4  C   UNL     1       3.789   5.500  17.776  0.00  0.00    +0.000 A 
ATOM      5  C   UNL     1       3.998   4.121  17.559  0.00  0.00    +0.000 A 
ATOM      6  C   UNL     1       4.828   3.673  16.528  0.00  0.00    +0.000 A 
ATOM      7  O   UNL     1       3.392   3.190  18.323  0.00  0.00    +0.000 OA
ATOM      8  C   UNL     1       2.508   3.393  19.373  0.00  0.00    +0.000 C 
ATOM      9  C   UNL     1       1.165   2.772  18.956  0.00  0.00    +0.000 C 
ATOM     10  C   UNL     1       3.101   2.683  20.603  0.00  0.00    +0.000 C 
ATOM     11  C   UNL     1       2.284   4.871  19.685  0.00  0.00    +0.000 A 
ATOM     12  C   UNL     1       1.434   5.219  20.760  0.00  0.00    +0.000 A 
ATOM     13  C   UNL     1       1.208   6.554  21.060  0.00  0.00    +0.000 A 
ATOM     14  N   UNL     1       1.794   7.523  20.332  0.00  0.00    +0.000 NA
ATOM     15  C   UNL     1       2.617   7.234  19.287  0.00  0.00    +0.000 A 
ATOM     16  C   UNL     1       2.890   5.892  18.924  0.00  0.00    +0.000 A 
ENDROOT
BRANCH   1  17
ATOM     17  C   UNL     1       6.384   4.098  14.567  0.00  0.00    +0.000 C 
ATOM     18  C   UNL     1       7.534   5.101  14.334  0.00  0.00    +0.000 C 
BRANCH  17  19
ATOM     19  C   UNL     1       5.544   3.870  13.290  0.00  0.00    +0.000 C 
BRANCH  19  20
ATOM     20  C   UNL     1       6.200   2.871  12.340  0.00  0.00    +0.000 C 
BRANCH  20  21
ATOM     21  C   UNL     1       5.315   2.582  11.133  0.00  0.00    +0.000 C 
BRANCH  21  22
ATOM     22  C   UNL     1       3.953   3.235  11.360  0.00  0.00    +0.000 C 
BRANCH  22  24
ATOM     23  C   UNL     1       2.815   4.519   9.550  0.00  0.00    +0.000 C 
ATOM     24  C   UNL     1       3.070   3.127  10.123  0.00  0.00    +0.000 C 
ENDBRANCH  22  24
ENDBRANCH  21  22
ENDBRANCH  20  21
ENDBRANCH  19  20
ENDBRANCH  17  19
ENDBRANCH   1  17
BRANCH   3  25
ATOM     25  O   UNL     1       4.283   7.748  17.021  0.00  0.00    +0.000 OA
ATOM     26  H   UNL     1       4.189   8.336  16.261  0.00  0.00    +0.000 HD
ENDBRANCH   3  25
TORSDOF 7
ENDMDL
MODEL 2
REMARK VINA RESULT:      -7.5      3.949      7.010
REMARK  Name = 
REMARK  11 active torsions:
REMARK  status: ('A' for Active; 'I' for Inactive)
REMARK    1  A    between atoms: C_1  and  C_2
REMARK    2  A    between atoms: C_2  and  C_3
REMARK    3  A    between atoms: C_3  and  C_4
REMARK    4  A    between atoms: C_4  and  C_5
REMARK    5  A    between atoms: C_5  and  C_6
REMARK    6  A    between atoms: C_6  and  C_7
REMARK    7  A    between atoms: C_7  and  C_8
REMARK    8  A    between atoms: C_7  and  C_9
REMARK    9  A    between atoms: C_11  and  O_12
REMARK   10  A    between atoms: C_17  and  C_18
REMARK   11  A    between atoms: C_17  and  C_19
REMARK                            x       y       z     vdW  Elec       q    Type
REMARK                         _______ _______ _______ _____ _____    ______ ____
ROOT
ATOM      1  C   UNL     1       2.335   7.536  18.395  0.00  0.00    +0.000 A 
ATOM      2  C   UNL     1       2.268   7.263  19.763  0.00  0.00    +0.000 A 
ATOM      3  C   UNL     1       1.598   8.121  20.648  0.00  0.00    +0.000 A 
ATOM      4  C   UNL     1       0.979   9.296  20.162  0.00  0.00    +0.000 A 
ATOM      5  C   UNL     1       1.067   9.572  18.780  0.00  0.00    +0.000 A 
ATOM      6  C   UNL     1       1.732   8.699  17.914  0.00  0.00    +0.000 A 
ATOM      7  O   UNL     1       0.532  10.691  18.251  0.00  0.00    +0.000 OA
ATOM      8  C   UNL     1      -0.139  11.708  18.912  0.00  0.00    +0.000 C 
ATOM      9  C   UNL     1       0.699  12.986  18.737  0.00  0.00    +0.000 C 
ATOM     10  C   UNL     1      -1.520  11.844  18.246  0.00  0.00    +0.000 C 
ATOM     11  C   UNL     1      -0.308  11.439  20.405  0.00  0.00    +0.000 A 
ATOM     12  C   UNL     1      -1.010  12.380  21.193  0.00  0.00    +0.000 A 
ATOM     13  C   UNL     1      -1.171  12.163  22.553  0.00  0.00    +0.000 A 
ATOM     14  N   UNL     1      -0.661  11.057  23.130  0.00  0.00    +0.000 NA
ATOM     15  C   UNL     1       0.024  10.127  22.411  0.00  0.00    +0.000 A 
ATOM     16  C   UNL     1       0.227  10.287  21.018  0.00  0.00    +0.000 A 
ENDROOT
BRANCH   1  17
ATOM     17  C   UNL     1       3.044   6.574  17.455  0.00  0.00    +0.000 C 
ATOM     18  C   UNL     1       3.097   5.155  18.061  0.00  0.00    +0.000 C 
BRANCH  17  19
ATOM     19  C   UNL     1       4.452   7.127  17.145  0.00  0.00    +0.000 C 
BRANCH  19  20
ATOM     20  C   UNL     1       5.183   6.288  16.099  0.00  0.00    +0.000 C 
BRANCH  20  21
ATOM     21  C   UNL     1       6.544   5.823  16.605  0.00  0.00    +0.000 C 
BRANCH  21  22
ATOM     22  C   UNL     1       6.691   6.245  18.066  0.00  0.00    +0.000 C 
BRANCH  22  24
ATOM     23  C   UNL     1       7.896   8.405  17.750  0.00  0.00    +0.000 C 
ATOM     24  C   UNL     1       8.001   6.986  18.303  0.00  0.00    +0.000 C 
ENDBRANCH  22  24
ENDBRANCH  21  22
ENDBRANCH  20  21
ENDBRANCH  19  20
ENDBRANCH  17  19
ENDBRANCH   1  17
BRANCH   3  25
ATOM     25  O   UNL     1       1.586   7.778  21.948  0.00  0.00    +0.000 OA
ATOM     26  H   UNL     1       1.895   8.361  22.653  0.00  0.00    +0.000 HD
ENDBRANCH   3  25
TORSDOF 7
ENDMDL
MODEL 3
REMARK VINA RESULT:      -7.5      3.742      6.417
REMARK  Name = 
REMARK  11 active torsions:
REMARK  status: ('A' for Active; 'I' for Inactive)
REMARK    1  A    between atoms: C_1  and  C_2
REMARK    2  A    between atoms: C_2  and  C_3
REMARK    3  A    between atoms: C_3  and  C_4
REMARK    4  A    between atoms: C_4  and  C_5
REMARK    5  A    between atoms: C_5  and  C_6
REMARK    6  A    between atoms: C_6  and  C_7
REMARK    7  A    between atoms: C_7  and  C_8
REMARK    8  A    between atoms: C_7  and  C_9
REMARK    9  A    between atoms: C_11  and  O_12
REMARK   10  A    between atoms: C_17  and  C_18
REMARK   11  A    between atoms: C_17  and  C_19
REMARK                            x       y       z     vdW  Elec       q    Type
REMARK                         _______ _______ _______ _____ _____    ______ ____
ROOT
ATOM      1  C   UNL     1       2.385   7.526  18.356  0.00  0.00    +0.000 A 
ATOM      2  C   UNL     1       2.301   7.239  19.720  0.00  0.00    +0.000 A 
ATOM      3  C   UNL     1       1.631   8.095  20.608  0.00  0.00    +0.000 A 
ATOM      4  C   UNL     1       1.030   9.281  20.128  0.00  0.00    +0.000 A 
ATOM      5  C   UNL     1       1.134   9.571  18.750  0.00  0.00    +0.000 A 
ATOM      6  C   UNL     1       1.799   8.700  17.882  0.00  0.00    +0.000 A 
ATOM      7  O   UNL     1       0.616  10.701  18.227  0.00  0.00    +0.000 OA
ATOM      8  C   UNL     1      -0.051  11.718  18.893  0.00  0.00    +0.000 C 
ATOM      9  C   UNL     1       0.801  12.989  18.741  0.00  0.00    +0.000 C 
ATOM     10  C   UNL     1      -1.424  11.875  18.214  0.00  0.00    +0.000 C 
ATOM     11  C   UNL     1      -0.239  11.434  20.381  0.00  0.00    +0.000 A 
ATOM     12  C   UNL     1      -0.939  12.374  21.172  0.00  0.00    +0.000 A 
ATOM     13  C   UNL     1      -1.116  12.144  22.528  0.00  0.00    +0.000 A 
ATOM     14  N   UNL     1      -0.624  11.027  23.098  0.00  0.00    +0.000 NA
ATOM     15  C   UNL     1       0.059  10.097  22.376  0.00  0.00    +0.000 A 
ATOM     16  C   UNL     1       0.279  10.270  20.987  0.00  0.00    +0.000 A 
ENDROOT
BRANCH   1  17
ATOM     17  C   UNL     1       3.094   6.567  17.414  0.00  0.00    +0.000 C 
ATOM     18  C   UNL     1       2.902   5.105  17.872  0.00  0.00    +0.000 C 
BRANCH  17  19
ATOM     19  C   UNL     1       4.586   6.959  17.332  0.00  0.00    +0.000 C 
BRANCH  19  20
ATOM     20  C   UNL     1       5.277   6.346  16.116  0.00  0.00    +0.000 C 
BRANCH  20  21
ATOM     21  C   UNL     1       6.664   5.820  16.467  0.00  0.00    +0.000 C 
BRANCH  21  22
ATOM     22  C   UNL     1       6.938   4.572  15.630  0.00  0.00    +0.000 C 
BRANCH  22  24
ATOM     23  C   UNL     1       6.148   3.799  13.394  0.00  0.00    +0.000 C 
ATOM     24  C   UNL     1       5.717   4.171  14.811  0.00  0.00    +0.000 C 
ENDBRANCH  22  24
ENDBRANCH  21  22
ENDBRANCH  20  21
ENDBRANCH  19  20
ENDBRANCH  17  19
ENDBRANCH   1  17
BRANCH   3  25
ATOM     25  O   UNL     1       1.601   7.737  21.904  0.00  0.00    +0.000 OA
ATOM     26  H   UNL     1       2.137   7.022  22.268  0.00  0.00    +0.000 HD
ENDBRANCH   3  25
TORSDOF 7
ENDMDL
MODEL 4
REMARK VINA RESULT:      -7.4      4.062      6.840
REMARK  Name = 
REMARK  11 active torsions:
REMARK  status: ('A' for Active; 'I' for Inactive)
REMARK    1  A    between atoms: C_1  and  C_2
REMARK    2  A    between atoms: C_2  and  C_3
REMARK    3  A    between atoms: C_3  and  C_4
REMARK    4  A    between atoms: C_4  and  C_5
REMARK    5  A    between atoms: C_5  and  C_6
REMARK    6  A    between atoms: C_6  and  C_7
REMARK    7  A    between atoms: C_7  and  C_8
REMARK    8  A    between atoms: C_7  and  C_9
REMARK    9  A    between atoms: C_11  and  O_12
REMARK   10  A    between atoms: C_17  and  C_18
REMARK   11  A    between atoms: C_17  and  C_19
REMARK                            x       y       z     vdW  Elec       q    Type
REMARK                         _______ _______ _______ _____ _____    ______ ____
ROOT
ATOM      1  C   UNL     1       2.909   6.968  18.159  0.00  0.00    +0.000 A 
ATOM      2  C   UNL     1       2.663   6.480  19.445  0.00  0.00    +0.000 A 
ATOM      3  C   UNL     1       1.929   7.223  20.381  0.00  0.00    +0.000 A 
ATOM      4  C   UNL     1       1.426   8.499  20.034  0.00  0.00    +0.000 A 
ATOM      5  C   UNL     1       1.694   8.990  18.738  0.00  0.00    +0.000 A 
ATOM      6  C   UNL     1       2.421   8.229  17.818  0.00  0.00    +0.000 A 
ATOM      7  O   UNL     1       1.277  10.212  18.349  0.00  0.00    +0.000 OA
ATOM      8  C   UNL     1       0.576  11.149  19.093  0.00  0.00    +0.000 C 
ATOM      9  C   UNL     1       1.484  12.382  19.233  0.00  0.00    +0.000 C 
ATOM     10  C   UNL     1      -0.706  11.478  18.307  0.00  0.00    +0.000 C 
ATOM     11  C   UNL     1       0.214  10.650  20.490  0.00  0.00    +0.000 A 
ATOM     12  C   UNL     1      -0.537  11.493  21.341  0.00  0.00    +0.000 A 
ATOM     13  C   UNL     1      -0.873  11.068  22.617  0.00  0.00    +0.000 A 
ATOM     14  N   UNL     1      -0.486   9.853  23.053  0.00  0.00    +0.000 NA
ATOM     15  C   UNL     1       0.240   9.010  22.269  0.00  0.00    +0.000 A 
ATOM     16  C   UNL     1       0.619   9.382  20.955  0.00  0.00    +0.000 A 
ENDROOT
BRANCH   1  17
ATOM     17  C   UNL     1       3.685   6.129  17.157  0.00  0.00    +0.000 C 
ATOM     18  C   UNL     1       3.894   4.694  17.688  0.00  0.00    +0.000 C 
BRANCH  17  19
ATOM     19  C   UNL     1       5.023   6.834  16.846  0.00  0.00    +0.000 C 
BRANCH  19  20
ATOM     20  C   UNL     1       6.144   6.381  17.778  0.00  0.00    +0.000 C 
BRANCH  20  21
ATOM     21  C   UNL     1       7.510   6.835  17.275  0.00  0.00    +0.000 C 
BRANCH  21  22
ATOM     22  C   UNL     1       8.149   7.726  18.338  0.00  0.00    +0.000 C 
BRANCH  22  24
ATOM     23  C   UNL     1       9.034   9.998  18.862  0.00  0.00    +0.000 C 
ATOM     24  C   UNL     1       8.161   9.188  17.907  0.00  0.00    +0.000 C 
ENDBRANCH  22  24
ENDBRANCH  21  22
ENDBRANCH  20  21
ENDBRANCH  19  20
ENDBRANCH  17  19
ENDBRANCH   1  17
BRANCH   3  25
ATOM     25  O   UNL     1       1.742   6.674  21.594  0.00  0.00    +0.000 OA
ATOM     26  H   UNL     1       0.869   6.529  21.981  0.00  0.00    +0.000 HD
ENDBRANCH   3  25
TORSDOF 7
ENDMDL
MODEL 5
REMARK VINA RESULT:      -7.4      1.151      1.809
REMARK  Name = 
REMARK  11 active torsions:
REMARK  status: ('A' for Active; 'I' for Inactive)
REMARK    1  A    between atoms: C_1  and  C_2
REMARK    2  A    between atoms: C_2  and  C_3
REMARK    3  A    between atoms: C_3  and  C_4
REMARK    4  A    between atoms: C_4  and  C_5
REMARK    5  A    between atoms: C_5  and  C_6
REMARK    6  A    between atoms: C_6  and  C_7
REMARK    7  A    between atoms: C_7  and  C_8
REMARK    8  A    between atoms: C_7  and  C_9
REMARK    9  A    between atoms: C_11  and  O_12
REMARK   10  A    between atoms: C_17  and  C_18
REMARK   11  A    between atoms: C_17  and  C_19
REMARK                            x       y       z     vdW  Elec       q    Type
REMARK                         _______ _______ _______ _____ _____    ______ ____
ROOT
ATOM      1  C   UNL     1       5.347   4.522  15.624  0.00  0.00    +0.000 A 
ATOM      2  C   UNL     1       5.163   5.891  15.830  0.00  0.00    +0.000 A 
ATOM      3  C   UNL     1       4.366   6.372  16.880  0.00  0.00    +0.000 A 
ATOM      4  C   UNL     1       3.722   5.464  17.753  0.00  0.00    +0.000 A 
ATOM      5  C   UNL     1       3.901   4.082  17.526  0.00  0.00    +0.000 A 
ATOM      6  C   UNL     1       4.706   3.624  16.479  0.00  0.00    +0.000 A 
ATOM      7  O   UNL     1       3.290   3.159  18.295  0.00  0.00    +0.000 OA
ATOM      8  C   UNL     1       2.428   3.373  19.360  0.00  0.00    +0.000 C 
ATOM      9  C   UNL     1       1.066   2.779  18.961  0.00  0.00    +0.000 C 
ATOM     10  C   UNL     1       3.026   2.645  20.577  0.00  0.00    +0.000 C 
ATOM     11  C   UNL     1       2.237   4.853  19.683  0.00  0.00    +0.000 A 
ATOM     12  C   UNL     1       1.411   5.211  20.773  0.00  0.00    +0.000 A 
ATOM     13  C   UNL     1       1.215   6.549  21.083  0.00  0.00    +0.000 A 
ATOM     14  N   UNL     1       1.807   7.511  20.350  0.00  0.00    +0.000 NA
ATOM     15  C   UNL     1       2.607   7.212  19.291  0.00  0.00    +0.000 A 
ATOM     16  C   UNL     1       2.849   5.866  18.917  0.00  0.00    +0.000 A 
ENDROOT
BRANCH   1  17
ATOM     17  C   UNL     1       6.238   4.030  14.495  0.00  0.00    +0.000 C 
ATOM     18  C   UNL     1       7.410   5.006  14.257  0.00  0.00    +0.000 C 
BRANCH  17  19
ATOM     19  C   UNL     1       5.376   3.836  13.228  0.00  0.00    +0.000 C 
BRANCH  19  20
ATOM     20  C   UNL     1       6.188   3.286  12.057  0.00  0.00    +0.000 C 
BRANCH  20  21
ATOM     21  C   UNL     1       5.597   1.984  11.529  0.00  0.00    +0.000 C 
BRANCH  21  22
ATOM     22  C   UNL     1       6.708   1.188  10.846  0.00  0.00    +0.000 C 
BRANCH  22  24
ATOM     23  C   UNL     1       5.614  -1.011  11.277  0.00  0.00    +0.000 C 
ATOM     24  C   UNL     1       6.881  -0.185  11.483  0.00  0.00    +0.000 C 
ENDBRANCH  22  24
ENDBRANCH  21  22
ENDBRANCH  20  21
ENDBRANCH  19  20
ENDBRANCH  17  19
ENDBRANCH   1  17
BRANCH   3  25
ATOM     25  O   UNL     1       4.246   7.706  17.001  0.00  0.00    +0.000 OA
ATOM     26  H   UNL     1       3.971   8.140  17.819  0.00  0.00    +0.000 HD
ENDBRANCH   3  25
TORSDOF 7
ENDMDL
MODEL 6
REMARK VINA RESULT:      -7.4      3.870      6.392
REMARK  Name = 
REMARK  11 active torsions:
REMARK  status: ('A' for Active; 'I' for Inactive)
REMARK    1  A    between atoms: C_1  and  C_2
REMARK    2  A    between atoms: C_2  and  C_3
REMARK    3  A    between atoms: C_3  and  C_4
REMARK    4  A    between atoms: C_4  and  C_5
REMARK    5  A    between atoms: C_5  and  C_6
REMARK    6  A    between atoms: C_6  and  C_7
REMARK    7  A    between atoms: C_7  and  C_8
REMARK    8  A    between atoms: C_7  and  C_9
REMARK    9  A    between atoms: C_11  and  O_12
REMARK   10  A    between atoms: C_17  and  C_18
REMARK   11  A    between atoms: C_17  and  C_19
REMARK                            x       y       z     vdW  Elec       q    Type
REMARK                         _______ _______ _______ _____ _____    ______ ____
ROOT
ATOM      1  C   UNL     1       2.756   6.649  18.463  0.00  0.00    +0.000 A 
ATOM      2  C   UNL     1       2.669   7.740  17.595  0.00  0.00    +0.000 A 
ATOM      3  C   UNL     1       2.112   8.960  18.007  0.00  0.00    +0.000 A 
ATOM      4  C   UNL     1       1.616   9.102  19.324  0.00  0.00    +0.000 A 
ATOM      5  C   UNL     1       1.693   7.988  20.188  0.00  0.00    +0.000 A 
ATOM      6  C   UNL     1       2.260   6.785  19.760  0.00  0.00    +0.000 A 
ATOM      7  O   UNL     1       1.209   8.039  21.446  0.00  0.00    +0.000 OA
ATOM      8  C   UNL     1       0.580   9.104  22.073  0.00  0.00    +0.000 C 
ATOM      9  C   UNL     1      -0.856   8.653  22.392  0.00  0.00    +0.000 C 
ATOM     10  C   UNL     1       1.376   9.403  23.357  0.00  0.00    +0.000 C 
ATOM     11  C   UNL     1       0.514  10.355  21.201  0.00  0.00    +0.000 A 
ATOM     12  C   UNL     1      -0.069  11.528  21.734  0.00  0.00    +0.000 A 
ATOM     13  C   UNL     1      -0.148  12.676  20.960  0.00  0.00    +0.000 A 
ATOM     14  N   UNL     1       0.327  12.680  19.699  0.00  0.00    +0.000 NA
ATOM     15  C   UNL     1       0.892  11.574  19.145  0.00  0.00    +0.000 A 
ATOM     16  C   UNL     1       1.004  10.366  19.878  0.00  0.00    +0.000 A 
ENDROOT
BRANCH   1  17
ATOM     17  C   UNL     1       3.389   5.349  17.997  0.00  0.00    +0.000 C 
ATOM     18  C   UNL     1       4.450   5.615  16.907  0.00  0.00    +0.000 C 
BRANCH  17  19
ATOM     19  C   UNL     1       2.274   4.399  17.504  0.00  0.00    +0.000 C 
BRANCH  19  20
ATOM     20  C   UNL     1       2.714   2.937  17.517  0.00  0.00    +0.000 C 
BRANCH  20  21
ATOM     21  C   UNL     1       2.345   2.253  18.828  0.00  0.00    +0.000 C 
BRANCH  21  22
ATOM     22  C   UNL     1       0.954   2.722  19.248  0.00  0.00    +0.000 C 
BRANCH  22  24
ATOM     23  C   UNL     1       1.615   2.597  21.649  0.00  0.00    +0.000 C 
ATOM     24  C   UNL     1       0.996   3.480  20.569  0.00  0.00    +0.000 C 
ENDBRANCH  22  24
ENDBRANCH  21  22
ENDBRANCH  20  21
ENDBRANCH  19  20
ENDBRANCH  17  19
ENDBRANCH   1  17
BRANCH   3  25
ATOM     25  O   UNL     1       2.070   9.955  17.104  0.00  0.00    +0.000 OA
ATOM     26  H   UNL     1       2.455  10.828  17.259  0.00  0.00    +0.000 HD
ENDBRANCH   3  25
TORSDOF 7
ENDMDL
MODEL 7
REMARK VINA RESULT:      -7.3      4.892      8.290
REMARK  Name = 
REMARK  11 active torsions:
REMARK  status: ('A' for Active; 'I' for Inactive)
REMARK    1  A    between atoms: C_1  and  C_2
REMARK    2  A    between atoms: C_2  and  C_3
REMARK    3  A    between atoms: C_3  and  C_4
REMARK    4  A    between atoms: C_4  and  C_5
REMARK    5  A    between atoms: C_5  and  C_6
REMARK    6  A    between atoms: C_6  and  C_7
REMARK    7  A    between atoms: C_7  and  C_8
REMARK    8  A    between atoms: C_7  and  C_9
REMARK    9  A    between atoms: C_11  and  O_12
REMARK   10  A    between atoms: C_17  and  C_18
REMARK   11  A    between atoms: C_17  and  C_19
REMARK                            x       y       z     vdW  Elec       q    Type
REMARK                         _______ _______ _______ _____ _____    ______ ____
ROOT
ATOM      1  C   UNL     1       1.475   8.259  20.419  0.00  0.00    +0.000 A 
ATOM      2  C   UNL     1       1.300   8.549  21.775  0.00  0.00    +0.000 A 
ATOM      3  C   UNL     1       0.503   9.625  22.195  0.00  0.00    +0.000 A 
ATOM      4  C   UNL     1      -0.137  10.447  21.239  0.00  0.00    +0.000 A 
ATOM      5  C   UNL     1       0.060  10.156  19.872  0.00  0.00    +0.000 A 
ATOM      6  C   UNL     1       0.851   9.074  19.475  0.00  0.00    +0.000 A 
ATOM      7  O   UNL     1      -0.490  10.918  18.905  0.00  0.00    +0.000 OA
ATOM      8  C   UNL     1      -1.277  12.049  19.057  0.00  0.00    +0.000 C 
ATOM      9  C   UNL     1      -0.504  13.222  18.430  0.00  0.00    +0.000 C 
ATOM     10  C   UNL     1      -2.597  11.782  18.311  0.00  0.00    +0.000 C 
ATOM     11  C   UNL     1      -1.565  12.383  20.518  0.00  0.00    +0.000 A 
ATOM     12  C   UNL     1      -2.390  13.493  20.814  0.00  0.00    +0.000 A 
ATOM     13  C   UNL     1      -2.661  13.822  22.134  0.00  0.00    +0.000 A 
ATOM     14  N   UNL     1      -2.142  13.089  23.138  0.00  0.00    +0.000 NA
ATOM     15  C   UNL     1      -1.340  12.016  22.899  0.00  0.00    +0.000 A 
ATOM     16  C   UNL     1      -1.021  11.625  21.575  0.00  0.00    +0.000 A 
ENDROOT
BRANCH   1  17
ATOM     17  C   UNL     1       2.322   7.071  19.994  0.00  0.00    +0.000 C 
ATOM     18  C   UNL     1       2.330   6.927  18.456  0.00  0.00    +0.000 C 
BRANCH  17  19
ATOM     19  C   UNL     1       1.789   5.802  20.694  0.00  0.00    +0.000 C 
BRANCH  19  20
ATOM     20  C   UNL     1       2.103   4.533  19.904  0.00  0.00    +0.000 C 
BRANCH  20  21
ATOM     21  C   UNL     1       0.928   3.562  19.914  0.00  0.00    +0.000 C 
BRANCH  21  22
ATOM     22  C   UNL     1       1.071   2.612  18.726  0.00  0.00    +0.000 C 
BRANCH  22  24
ATOM     23  C   UNL     1       3.287   1.879  17.847  0.00  0.00    +0.000 C 
ATOM     24  C   UNL     1       2.250   2.999  17.842  0.00  0.00    +0.000 C 
ENDBRANCH  22  24
ENDBRANCH  21  22
ENDBRANCH  20  21
ENDBRANCH  19  20
ENDBRANCH  17  19
ENDBRANCH   1  17
BRANCH   3  25
ATOM     25  O   UNL     1       0.393   9.828  23.520  0.00  0.00    +0.000 OA
ATOM     26  H   UNL     1       1.141   9.778  24.128  0.00  0.00    +0.000 HD
ENDBRANCH   3  25
TORSDOF 7
ENDMDL
MODEL 8
REMARK VINA RESULT:      -7.2      4.456      7.641
REMARK  Name = 
REMARK  11 active torsions:
REMARK  status: ('A' for Active; 'I' for Inactive)
REMARK    1  A    between atoms: C_1  and  C_2
REMARK    2  A    between atoms: C_2  and  C_3
REMARK    3  A    between atoms: C_3  and  C_4
REMARK    4  A    between atoms: C_4  and  C_5
REMARK    5  A    between atoms: C_5  and  C_6
REMARK    6  A    between atoms: C_6  and  C_7
REMARK    7  A    between atoms: C_7  and  C_8
REMARK    8  A    between atoms: C_7  and  C_9
REMARK    9  A    between atoms: C_11  and  O_12
REMARK   10  A    between atoms: C_17  and  C_18
REMARK   11  A    between atoms: C_17  and  C_19
REMARK                            x       y       z     vdW  Elec       q    Type
REMARK                         _______ _______ _______ _____ _____    ______ ____
ROOT
ATOM      1  C   UNL     1       2.109   7.794  19.178  0.00  0.00    +0.000 A 
ATOM      2  C   UNL     1       1.878   7.748  20.555  0.00  0.00    +0.000 A 
ATOM      3  C   UNL     1       1.067   8.699  21.193  0.00  0.00    +0.000 A 
ATOM      4  C   UNL     1       0.469   9.737  20.440  0.00  0.00    +0.000 A 
ATOM      5  C   UNL     1       0.722   9.784  19.052  0.00  0.00    +0.000 A 
ATOM      6  C   UNL     1       1.527   8.822  18.436  0.00  0.00    +0.000 A 
ATOM      7  O   UNL     1       0.214  10.764  18.278  0.00  0.00    +0.000 OA
ATOM      8  C   UNL     1      -0.577  11.835  18.669  0.00  0.00    +0.000 C 
ATOM      9  C   UNL     1       0.225  13.115  18.378  0.00  0.00    +0.000 C 
ATOM     10  C   UNL     1      -1.865  11.772  17.829  0.00  0.00    +0.000 C 
ATOM     11  C   UNL     1      -0.925  11.806  20.155  0.00  0.00    +0.000 A 
ATOM     12  C   UNL     1      -1.759  12.821  20.679  0.00  0.00    +0.000 A 
ATOM     13  C   UNL     1      -2.085  12.822  22.027  0.00  0.00    +0.000 A 
ATOM     14  N   UNL     1      -1.609  11.862  22.843  0.00  0.00    +0.000 NA
ATOM     15  C   UNL     1      -0.800  10.869  22.383  0.00  0.00    +0.000 A 
ATOM     16  C   UNL     1      -0.427  10.807  21.017  0.00  0.00    +0.000 A 
ENDROOT
BRANCH   1  17
ATOM     17  C   UNL     1       2.971   6.735  18.510  0.00  0.00    +0.000 C 
ATOM     18  C   UNL     1       3.816   7.353  17.375  0.00  0.00    +0.000 C 
BRANCH  17  19
ATOM     19  C   UNL     1       2.059   5.597  18.003  0.00  0.00    +0.000 C 
BRANCH  19  20
ATOM     20  C   UNL     1       2.847   4.332  17.670  0.00  0.00    +0.000 C 
BRANCH  20  21
ATOM     21  C   UNL     1       2.333   3.129  18.452  0.00  0.00    +0.000 C 
BRANCH  21  22
ATOM     22  C   UNL     1       1.061   3.537  19.194  0.00  0.00    +0.000 C 
BRANCH  22  24
ATOM     23  C   UNL     1       2.185   3.961  21.380  0.00  0.00    +0.000 C 
ATOM     24  C   UNL     1       1.120   3.135  20.663  0.00  0.00    +0.000 C 
ENDBRANCH  22  24
ENDBRANCH  21  22
ENDBRANCH  20  21
ENDBRANCH  19  20
ENDBRANCH  17  19
ENDBRANCH   1  17
BRANCH   3  25
ATOM     25  O   UNL     1       0.901   8.576  22.521  0.00  0.00    +0.000 OA
ATOM     26  H   UNL     1       1.052   7.750  22.999  0.00  0.00    +0.000 HD
ENDBRANCH   3  25
TORSDOF 7
ENDMDL
MODEL 9
REMARK VINA RESULT:      -7.2      3.432      6.081
REMARK  Name = 
REMARK  11 active torsions:
REMARK  status: ('A' for Active; 'I' for Inactive)
REMARK    1  A    between atoms: C_1  and  C_2
REMARK    2  A    between atoms: C_2  and  C_3
REMARK    3  A    between atoms: C_3  and  C_4
REMARK    4  A    between atoms: C_4  and  C_5
REMARK    5  A    between atoms: C_5  and  C_6
REMARK    6  A    between atoms: C_6  and  C_7
REMARK    7  A    between atoms: C_7  and  C_8
REMARK    8  A    between atoms: C_7  and  C_9
REMARK    9  A    between atoms: C_11  and  O_12
REMARK   10  A    between atoms: C_17  and  C_18
REMARK   11  A    between atoms: C_17  and  C_19
REMARK                            x       y       z     vdW  Elec       q    Type
REMARK                         _______ _______ _______ _____ _____    ______ ____
ROOT
ATOM      1  C   UNL     1       3.463   6.261  18.214  0.00  0.00    +0.000 A 
ATOM      2  C   UNL     1       3.156   5.870  19.519  0.00  0.00    +0.000 A 
ATOM      3  C   UNL     1       2.327   6.651  20.340  0.00  0.00    +0.000 A 
ATOM      4  C   UNL     1       1.790   7.865  19.853  0.00  0.00    +0.000 A 
ATOM      5  C   UNL     1       2.120   8.259  18.538  0.00  0.00    +0.000 A 
ATOM      6  C   UNL     1       2.941   7.463  17.734  0.00  0.00    +0.000 A 
ATOM      7  O   UNL     1       1.674   9.421  18.019  0.00  0.00    +0.000 OA
ATOM      8  C   UNL     1       0.882  10.379  18.634  0.00  0.00    +0.000 C 
ATOM      9  C   UNL     1       1.721  11.665  18.723  0.00  0.00    +0.000 C 
ATOM     10  C   UNL     1      -0.359  10.575  17.744  0.00  0.00    +0.000 C 
ATOM     11  C   UNL     1       0.452   9.981  20.044  0.00  0.00    +0.000 A 
ATOM     12  C   UNL     1      -0.392  10.853  20.770  0.00  0.00    +0.000 A 
ATOM     13  C   UNL     1      -0.792  10.518  22.055  0.00  0.00    +0.000 A 
ATOM     14  N   UNL     1      -0.379   9.366  22.618  0.00  0.00    +0.000 NA
ATOM     15  C   UNL     1       0.436   8.500  21.957  0.00  0.00    +0.000 A 
ATOM     16  C   UNL     1       0.884   8.779  20.642  0.00  0.00    +0.000 A 
ENDROOT
BRANCH   1  17
ATOM     17  C   UNL     1       4.342   5.383  17.338  0.00  0.00    +0.000 C 
ATOM     18  C   UNL     1       4.889   6.181  16.135  0.00  0.00    +0.000 C 
BRANCH  17  19
ATOM     19  C   UNL     1       3.528   4.147  16.894  0.00  0.00    +0.000 C 
BRANCH  19  20
ATOM     20  C   UNL     1       4.035   2.860  17.540  0.00  0.00    +0.000 C 
BRANCH  20  21
ATOM     21  C   UNL     1       3.101   2.382  18.645  0.00  0.00    +0.000 C 
BRANCH  21  22
ATOM     22  C   UNL     1       1.665   2.727  18.254  0.00  0.00    +0.000 C 
BRANCH  22  24
ATOM     23  C   UNL     1       1.593   2.696  20.746  0.00  0.00    +0.000 C 
ATOM     24  C   UNL     1       0.810   3.027  19.478  0.00  0.00    +0.000 C 
ENDBRANCH  22  24
ENDBRANCH  21  22
ENDBRANCH  20  21
ENDBRANCH  19  20
ENDBRANCH  17  19
ENDBRANCH   1  17
BRANCH   3  25
ATOM     25  O   UNL     1       2.086   6.196  21.582  0.00  0.00    +0.000 OA
ATOM     26  H   UNL     1       1.347   6.501  22.123  0.00  0.00    +0.000 HD
ENDBRANCH   3  25
TORSDOF 7
ENDMDL
