MODEL 1
REMARK VINA RESULT:      -7.6      0.000      0.000
REMARK  Name = 
REMARK  7 active torsions:
REMARK  status: ('A' for Active; 'I' for Inactive)
REMARK    1  A    between atoms: C_1  and  C_2
REMARK    2  A    between atoms: C_7  and  C_8
REMARK    3  A    between atoms: C_8  and  S_9
REMARK    4  A    between atoms: S_9  and  C_10
REMARK    5  A    between atoms: C_10  and  C_11
REMARK    6  A    between atoms: N_13  and  C_14
REMARK    7  A    between atoms: C_19  and  O_20
REMARK                            x       y       z     vdW  Elec       q    Type
REMARK                         _______ _______ _______ _____ _____    ______ ____
ROOT
ATOM      1  C   UNL     1       5.484   3.926  18.969  0.00  0.00    +0.000 C 
ATOM      2  O   UNL     1       6.036   4.661  19.785  0.00  0.00    +0.000 OA
ATOM      3  N   UNL     1       5.755   3.966  17.629  0.00  0.00    +0.000 N 
ATOM      4  H   UNL     1       5.311   3.230  17.082  0.00  0.00    +0.000 HD
ENDROOT
BRANCH   3   5
ATOM      5  C   UNL     1       6.768   4.804  16.978  0.00  0.00    +0.000 C 
ATOM      6  C   UNL     1       6.652   6.290  17.354  0.00  0.00    +0.000 C 
ATOM      7  C   UNL     1       5.380   6.909  16.784  0.00  0.00    +0.000 C 
ATOM      8  N   UNL     1       5.304   6.778  15.326  0.00  0.00    +0.000 NA
ATOM      9  C   UNL     1       5.417   5.375  14.900  0.00  0.00    +0.000 C 
ATOM     10  C   UNL     1       6.673   4.663  15.441  0.00  0.00    +0.000 C 
ATOM     11  H   UNL     1       6.019   7.348  14.883  0.00  0.00    +0.000 HD
BRANCH  10  12
ATOM     12  O   UNL     1       7.851   5.178  14.806  0.00  0.00    +0.000 OA
ATOM     13  H   UNL     1       8.339   5.696  15.470  0.00  0.00    +0.000 HD
ENDBRANCH  10  12
ENDBRANCH   3   5
BRANCH   1  14
ATOM     14  C   UNL     1       4.440   2.899  19.411  0.00  0.00    +0.000 C 
BRANCH  14  15
ATOM     15  S   UNL     1       3.575   2.074  18.019  0.00  0.00    +0.000 S 
BRANCH  15  16
ATOM     16  C   UNL     1       1.909   2.752  18.297  0.00  0.00    +0.000 C 
BRANCH  16  23
ATOM     17  C   UNL     1       1.315   3.360  21.210  0.00  0.00    +0.000 C 
ATOM     18  C   UNL     1       1.672   4.437  20.223  0.00  0.00    +0.000 A 
ATOM     19  C   UNL     1       1.785   5.761  20.686  0.00  0.00    +0.000 A 
ATOM     20  C   UNL     1       2.115   6.800  19.819  0.00  0.00    +0.000 A 
ATOM     21  C   UNL     1       2.333   6.533  18.470  0.00  0.00    +0.000 A 
ATOM     22  C   UNL     1       2.240   5.224  17.999  0.00  0.00    +0.000 A 
ATOM     23  C   UNL     1       1.930   4.156  18.863  0.00  0.00    +0.000 A 
ENDBRANCH  16  23
ENDBRANCH  15  16
ENDBRANCH  14  15
ENDBRANCH   1  14
TORSDOF 6
ENDMDL
MODEL 2
REMARK VINA RESULT:      -7.2      1.410      1.701
REMARK  Name = 
REMARK  7 active torsions:
REMARK  status: ('A' for Active; 'I' for Inactive)
REMARK    1  A    between atoms: C_1  and  C_2
REMARK    2  A    between atoms: C_7  and  C_8
REMARK    3  A    between atoms: C_8  and  S_9
REMARK    4  A    between atoms: S_9  and  C_10
REMARK    5  A    between atoms: C_10  and  C_11
REMARK    6  A    between atoms: N_13  and  C_14
REMARK    7  A    between atoms: C_19  and  O_20
REMARK                            x       y       z     vdW  Elec       q    Type
REMARK                         _______ _______ _______ _____ _____    ______ ____
ROOT
ATOM      1  C   UNL     1       4.662   2.816  19.173  0.00  0.00    +0.000 C 
ATOM      2  O   UNL     1       5.017   2.835  20.349  0.00  0.00    +0.000 OA
ATOM      3  N   UNL     1       4.964   3.815  18.288  0.00  0.00    +0.000 N 
ATOM      4  H   UNL     1       4.706   3.622  17.322  0.00  0.00    +0.000 HD
ENDROOT
BRANCH   3   5
ATOM      5  C   UNL     1       5.798   4.989  18.565  0.00  0.00    +0.000 C 
ATOM      6  C   UNL     1       5.393   6.223  17.742  0.00  0.00    +0.000 C 
ATOM      7  C   UNL     1       5.689   6.023  16.259  0.00  0.00    +0.000 C 
ATOM      8  N   UNL     1       7.102   5.725  16.010  0.00  0.00    +0.000 NA
ATOM      9  C   UNL     1       7.555   4.555  16.777  0.00  0.00    +0.000 C 
ATOM     10  C   UNL     1       7.286   4.665  18.291  0.00  0.00    +0.000 C 
ATOM     11  H   UNL     1       7.676   6.538  16.220  0.00  0.00    +0.000 HD
BRANCH  10  12
ATOM     12  O   UNL     1       8.141   5.655  18.879  0.00  0.00    +0.000 OA
ATOM     13  H   UNL     1       8.474   6.218  18.159  0.00  0.00    +0.000 HD
ENDBRANCH  10  12
ENDBRANCH   3   5
BRANCH   1  14
ATOM     14  C   UNL     1       3.845   1.650  18.612  0.00  0.00    +0.000 C 
BRANCH  14  15
ATOM     15  S   UNL     1       2.643   2.141  17.315  0.00  0.00    +0.000 S 
BRANCH  15  16
ATOM     16  C   UNL     1       1.314   2.755  18.396  0.00  0.00    +0.000 C 
BRANCH  16  23
ATOM     17  C   UNL     1       1.437   3.394  21.360  0.00  0.00    +0.000 C 
ATOM     18  C   UNL     1       1.655   4.443  20.304  0.00  0.00    +0.000 A 
ATOM     19  C   UNL     1       1.981   5.749  20.713  0.00  0.00    +0.000 A 
ATOM     20  C   UNL     1       2.196   6.762  19.780  0.00  0.00    +0.000 A 
ATOM     21  C   UNL     1       2.086   6.485  18.420  0.00  0.00    +0.000 A 
ATOM     22  C   UNL     1       1.780   5.191  17.999  0.00  0.00    +0.000 A 
ATOM     23  C   UNL     1       1.580   4.148  18.924  0.00  0.00    +0.000 A 
ENDBRANCH  16  23
ENDBRANCH  15  16
ENDBRANCH  14  15
ENDBRANCH   1  14
TORSDOF 6
ENDMDL
MODEL 3
REMARK VINA RESULT:      -6.9      0.980      1.377
REMARK  Name = 
REMARK  7 active torsions:
REMARK  status: ('A' for Active; 'I' for Inactive)
REMARK    1  A    between atoms: C_1  and  C_2
REMARK    2  A    between atoms: C_7  and  C_8
REMARK    3  A    between atoms: C_8  and  S_9
REMARK    4  A    between atoms: S_9  and  C_10
REMARK    5  A    between atoms: C_10  and  C_11
REMARK    6  A    between atoms: N_13  and  C_14
REMARK    7  A    between atoms: C_19  and  O_20
REMARK                            x       y       z     vdW  Elec       q    Type
REMARK                         _______ _______ _______ _____ _____    ______ ____
ROOT
ATOM      1  C   UNL     1       5.049   4.135  18.987  0.00  0.00    +0.000 C 
ATOM      2  O   UNL     1       5.395   4.855  19.920  0.00  0.00    +0.000 OA
ATOM      3  N   UNL     1       5.128   4.524  17.677  0.00  0.00    +0.000 N 
ATOM      4  H   UNL     1       4.914   3.792  17.001  0.00  0.00    +0.000 HD
ENDROOT
BRANCH   3   5
ATOM      5  C   UNL     1       5.693   5.784  17.185  0.00  0.00    +0.000 C 
ATOM      6  C   UNL     1       5.063   6.251  15.863  0.00  0.00    +0.000 C 
ATOM      7  C   UNL     1       5.432   5.319  14.713  0.00  0.00    +0.000 C 
ATOM      8  N   UNL     1       6.882   5.203  14.536  0.00  0.00    +0.000 NA
ATOM      9  C   UNL     1       7.548   4.766  15.772  0.00  0.00    +0.000 C 
ATOM     10  C   UNL     1       7.222   5.647  16.995  0.00  0.00    +0.000 C 
ATOM     11  H   UNL     1       7.269   6.085  14.210  0.00  0.00    +0.000 HD
BRANCH  10  12
ATOM     12  O   UNL     1       7.838   6.935  16.860  0.00  0.00    +0.000 OA
ATOM     13  H   UNL     1       7.901   7.131  15.909  0.00  0.00    +0.000 HD
ENDBRANCH  10  12
ENDBRANCH   3   5
BRANCH   1  14
ATOM     14  C   UNL     1       4.498   2.729  19.236  0.00  0.00    +0.000 C 
BRANCH  14  15
ATOM     15  S   UNL     1       3.432   2.099  17.881  0.00  0.00    +0.000 S 
BRANCH  15  16
ATOM     16  C   UNL     1       1.824   2.662  18.519  0.00  0.00    +0.000 C 
BRANCH  16  23
ATOM     17  C   UNL     1       1.562   3.461  21.435  0.00  0.00    +0.000 C 
ATOM     18  C   UNL     1       1.740   4.475  20.338  0.00  0.00    +0.000 A 
ATOM     19  C   UNL     1       1.843   5.834  20.692  0.00  0.00    +0.000 A 
ATOM     20  C   UNL     1       2.011   6.818  19.720  0.00  0.00    +0.000 A 
ATOM     21  C   UNL     1       2.075   6.460  18.376  0.00  0.00    +0.000 A 
ATOM     22  C   UNL     1       1.991   5.116  18.012  0.00  0.00    +0.000 A 
ATOM     23  C   UNL     1       1.844   4.104  18.980  0.00  0.00    +0.000 A 
ENDBRANCH  16  23
ENDBRANCH  15  16
ENDBRANCH  14  15
ENDBRANCH   1  14
TORSDOF 6
ENDMDL
MODEL 4
REMARK VINA RESULT:      -6.8      2.284      3.212
REMARK  Name = 
REMARK  7 active torsions:
REMARK  status: ('A' for Active; 'I' for Inactive)
REMARK    1  A    between atoms: C_1  and  C_2
REMARK    2  A    between atoms: C_7  and  C_8
REMARK    3  A    between atoms: C_8  and  S_9
REMARK    4  A    between atoms: S_9  and  C_10
REMARK    5  A    between atoms: C_10  and  C_11
REMARK    6  A    between atoms: N_13  and  C_14
REMARK    7  A    between atoms: C_19  and  O_20
REMARK                            x       y       z     vdW  Elec       q    Type
REMARK                         _______ _______ _______ _____ _____    ______ ____
ROOT
ATOM      1  C   UNL     1       3.446   3.644  18.237  0.00  0.00    +0.000 C 
ATOM      2  O   UNL     1       3.037   2.836  17.407  0.00  0.00    +0.000 OA
ATOM      3  N   UNL     1       4.336   4.638  17.932  0.00  0.00    +0.000 N 
ATOM      4  H   UNL     1       4.505   5.305  18.683  0.00  0.00    +0.000 HD
ENDROOT
BRANCH   3   5
ATOM      5  C   UNL     1       4.864   4.943  16.598  0.00  0.00    +0.000 C 
ATOM      6  C   UNL     1       6.139   4.153  16.260  0.00  0.00    +0.000 C 
ATOM      7  C   UNL     1       7.313   4.597  17.127  0.00  0.00    +0.000 C 
ATOM      8  N   UNL     1       7.590   6.030  16.994  0.00  0.00    +0.000 NA
ATOM      9  C   UNL     1       6.404   6.844  17.296  0.00  0.00    +0.000 C 
ATOM     10  C   UNL     1       5.160   6.457  16.472  0.00  0.00    +0.000 C 
ATOM     11  H   UNL     1       7.940   6.237  16.062  0.00  0.00    +0.000 HD
BRANCH  10  12
ATOM     12  O   UNL     1       5.335   6.831  15.099  0.00  0.00    +0.000 OA
ATOM     13  H   UNL     1       5.358   7.803  15.061  0.00  0.00    +0.000 HD
ENDBRANCH  10  12
ENDBRANCH   3   5
BRANCH   1  14
ATOM     14  C   UNL     1       2.977   3.589  19.692  0.00  0.00    +0.000 C 
BRANCH  14  15
ATOM     15  S   UNL     1       1.602   4.743  20.073  0.00  0.00    +0.000 S 
BRANCH  15  16
ATOM     16  C   UNL     1       2.588   6.229  20.432  0.00  0.00    +0.000 C 
BRANCH  16  23
ATOM     17  C   UNL     1       0.945   8.378  21.808  0.00  0.00    +0.000 C 
ATOM     18  C   UNL     1       1.331   8.470  20.357  0.00  0.00    +0.000 A 
ATOM     19  C   UNL     1       0.961   9.620  19.636  0.00  0.00    +0.000 A 
ATOM     20  C   UNL     1       1.292   9.763  18.290  0.00  0.00    +0.000 A 
ATOM     21  C   UNL     1       1.998   8.754  17.640  0.00  0.00    +0.000 A 
ATOM     22  C   UNL     1       2.386   7.615  18.346  0.00  0.00    +0.000 A 
ATOM     23  C   UNL     1       2.081   7.461  19.712  0.00  0.00    +0.000 A 
ENDBRANCH  16  23
ENDBRANCH  15  16
ENDBRANCH  14  15
ENDBRANCH   1  14
TORSDOF 6
ENDMDL
MODEL 5
REMARK VINA RESULT:      -6.8      2.294      3.443
REMARK  Name = 
REMARK  7 active torsions:
REMARK  status: ('A' for Active; 'I' for Inactive)
REMARK    1  A    between atoms: C_1  and  C_2
REMARK    2  A    between atoms: C_7  and  C_8
REMARK    3  A    between atoms: C_8  and  S_9
REMARK    4  A    between atoms: S_9  and  C_10
REMARK    5  A    between atoms: C_10  and  C_11
REMARK    6  A    between atoms: N_13  and  C_14
REMARK    7  A    between atoms: C_19  and  O_20
REMARK                            x       y       z     vdW  Elec       q    Type
REMARK                         _______ _______ _______ _____ _____    ______ ____
ROOT
ATOM      1  C   UNL     1       3.757   3.895  18.471  0.00  0.00    +0.000 C 
ATOM      2  O   UNL     1       3.010   3.698  17.516  0.00  0.00    +0.000 OA
ATOM      3  N   UNL     1       5.074   4.239  18.328  0.00  0.00    +0.000 N 
ATOM      4  H   UNL     1       5.548   4.481  19.196  0.00  0.00    +0.000 HD
ENDROOT
BRANCH   3   5
ATOM      5  C   UNL     1       5.763   4.500  17.060  0.00  0.00    +0.000 C 
ATOM      6  C   UNL     1       7.282   4.669  17.224  0.00  0.00    +0.000 C 
ATOM      7  C   UNL     1       7.618   5.948  17.985  0.00  0.00    +0.000 C 
ATOM      8  N   UNL     1       7.072   7.142  17.334  0.00  0.00    +0.000 NA
ATOM      9  C   UNL     1       5.618   7.038  17.139  0.00  0.00    +0.000 C 
ATOM     10  C   UNL     1       5.183   5.765  16.385  0.00  0.00    +0.000 C 
ATOM     11  H   UNL     1       7.543   7.307  16.448  0.00  0.00    +0.000 HD
BRANCH  10  12
ATOM     12  O   UNL     1       5.582   5.840  15.010  0.00  0.00    +0.000 OA
ATOM     13  H   UNL     1       6.026   5.003  14.788  0.00  0.00    +0.000 HD
ENDBRANCH  10  12
ENDBRANCH   3   5
BRANCH   1  14
ATOM     14  C   UNL     1       3.252   3.766  19.910  0.00  0.00    +0.000 C 
BRANCH  14  15
ATOM     15  S   UNL     1       1.909   4.943  20.333  0.00  0.00    +0.000 S 
BRANCH  15  16
ATOM     16  C   UNL     1       2.673   6.466  19.694  0.00  0.00    +0.000 C 
BRANCH  16  23
ATOM     17  C   UNL     1       2.326   8.706  17.676  0.00  0.00    +0.000 C 
ATOM     18  C   UNL     1       1.670   8.737  19.029  0.00  0.00    +0.000 A 
ATOM     19  C   UNL     1       0.826   9.819  19.341  0.00  0.00    +0.000 A 
ATOM     20  C   UNL     1       0.189   9.901  20.578  0.00  0.00    +0.000 A 
ATOM     21  C   UNL     1       0.390   8.903  21.527  0.00  0.00    +0.000 A 
ATOM     22  C   UNL     1       1.212   7.817  21.227  0.00  0.00    +0.000 A 
ATOM     23  C   UNL     1       1.847   7.703  19.975  0.00  0.00    +0.000 A 
ENDBRANCH  16  23
ENDBRANCH  15  16
ENDBRANCH  14  15
ENDBRANCH   1  14
TORSDOF 6
ENDMDL
MODEL 6
REMARK VINA RESULT:      -6.8      5.269      7.939
REMARK  Name = 
REMARK  7 active torsions:
REMARK  status: ('A' for Active; 'I' for Inactive)
REMARK    1  A    between atoms: C_1  and  C_2
REMARK    2  A    between atoms: C_7  and  C_8
REMARK    3  A    between atoms: C_8  and  S_9
REMARK    4  A    between atoms: S_9  and  C_10
REMARK    5  A    between atoms: C_10  and  C_11
REMARK    6  A    between atoms: N_13  and  C_14
REMARK    7  A    between atoms: C_19  and  O_20
REMARK                            x       y       z     vdW  Elec       q    Type
REMARK                         _______ _______ _______ _____ _____    ______ ____
ROOT
ATOM      1  C   UNL     1       7.415   6.679  17.634  0.00  0.00    +0.000 C 
ATOM      2  O   UNL     1       7.551   6.655  16.412  0.00  0.00    +0.000 OA
ATOM      3  N   UNL     1       6.490   5.917  18.294  0.00  0.00    +0.000 N 
ATOM      4  H   UNL     1       6.559   5.948  19.310  0.00  0.00    +0.000 HD
ENDROOT
BRANCH   3   5
ATOM      5  C   UNL     1       5.599   4.923  17.686  0.00  0.00    +0.000 C 
ATOM      6  C   UNL     1       4.429   5.556  16.915  0.00  0.00    +0.000 C 
ATOM      7  C   UNL     1       3.456   6.255  17.859  0.00  0.00    +0.000 C 
ATOM      8  N   UNL     1       2.921   5.347  18.877  0.00  0.00    +0.000 NA
ATOM      9  C   UNL     1       3.993   4.700  19.647  0.00  0.00    +0.000 C 
ATOM     10  C   UNL     1       5.035   3.975  18.771  0.00  0.00    +0.000 C 
ATOM     11  H   UNL     1       2.317   4.651  18.446  0.00  0.00    +0.000 HD
BRANCH  10  12
ATOM     12  O   UNL     1       4.458   2.804  18.177  0.00  0.00    +0.000 OA
ATOM     13  H   UNL     1       4.522   2.084  18.828  0.00  0.00    +0.000 HD
ENDBRANCH  10  12
ENDBRANCH   3   5
BRANCH   1  14
ATOM     14  C   UNL     1       8.289   7.579  18.509  0.00  0.00    +0.000 C 
BRANCH  14  15
ATOM     15  S   UNL     1       8.302   9.337  17.986  0.00  0.00    +0.000 S 
BRANCH  15  16
ATOM     16  C   UNL     1       9.182  10.038  19.417  0.00  0.00    +0.000 C 
BRANCH  16  23
ATOM     17  C   UNL     1       9.760  12.227  21.437  0.00  0.00    +0.000 C 
ATOM     18  C   UNL     1      10.252  12.297  20.018  0.00  0.00    +0.000 A 
ATOM     19  C   UNL     1      11.051  13.390  19.638  0.00  0.00    +0.000 A 
ATOM     20  C   UNL     1      11.537  13.507  18.337  0.00  0.00    +0.000 A 
ATOM     21  C   UNL     1      11.228  12.533  17.392  0.00  0.00    +0.000 A 
ATOM     22  C   UNL     1      10.449  11.435  17.758  0.00  0.00    +0.000 A 
ATOM     23  C   UNL     1       9.967  11.286  19.073  0.00  0.00    +0.000 A 
ENDBRANCH  16  23
ENDBRANCH  15  16
ENDBRANCH  14  15
ENDBRANCH   1  14
TORSDOF 6
ENDMDL
MODEL 7
REMARK VINA RESULT:      -6.7      1.873      2.683
REMARK  Name = 
REMARK  7 active torsions:
REMARK  status: ('A' for Active; 'I' for Inactive)
REMARK    1  A    between atoms: C_1  and  C_2
REMARK    2  A    between atoms: C_7  and  C_8
REMARK    3  A    between atoms: C_8  and  S_9
REMARK    4  A    between atoms: S_9  and  C_10
REMARK    5  A    between atoms: C_10  and  C_11
REMARK    6  A    between atoms: N_13  and  C_14
REMARK    7  A    between atoms: C_19  and  O_20
REMARK                            x       y       z     vdW  Elec       q    Type
REMARK                         _______ _______ _______ _____ _____    ______ ____
ROOT
ATOM      1  C   UNL     1       3.949   3.631  18.999  0.00  0.00    +0.000 C 
ATOM      2  O   UNL     1       4.433   2.876  19.840  0.00  0.00    +0.000 OA
ATOM      3  N   UNL     1       4.703   4.498  18.255  0.00  0.00    +0.000 N 
ATOM      4  H   UNL     1       4.193   4.983  17.520  0.00  0.00    +0.000 HD
ENDROOT
BRANCH   3   5
ATOM      5  C   UNL     1       6.165   4.608  18.279  0.00  0.00    +0.000 C 
ATOM      6  C   UNL     1       6.657   6.000  18.708  0.00  0.00    +0.000 C 
ATOM      7  C   UNL     1       6.321   7.055  17.658  0.00  0.00    +0.000 C 
ATOM      8  N   UNL     1       6.887   6.732  16.346  0.00  0.00    +0.000 NA
ATOM      9  C   UNL     1       6.459   5.404  15.881  0.00  0.00    +0.000 C 
ATOM     10  C   UNL     1       6.750   4.272  16.887  0.00  0.00    +0.000 C 
ATOM     11  H   UNL     1       7.901   6.794  16.374  0.00  0.00    +0.000 HD
BRANCH  10  12
ATOM     12  O   UNL     1       8.161   4.029  16.970  0.00  0.00    +0.000 OA
ATOM     13  H   UNL     1       8.349   3.219  16.464  0.00  0.00    +0.000 HD
ENDBRANCH  10  12
ENDBRANCH   3   5
BRANCH   1  14
ATOM     14  C   UNL     1       2.444   3.647  18.725  0.00  0.00    +0.000 C 
BRANCH  14  15
ATOM     15  S   UNL     1       1.464   4.504  20.018  0.00  0.00    +0.000 S 
BRANCH  15  16
ATOM     16  C   UNL     1       2.600   5.886  20.347  0.00  0.00    +0.000 C 
BRANCH  16  23
ATOM     17  C   UNL     1       0.890   8.069  21.580  0.00  0.00    +0.000 C 
ATOM     18  C   UNL     1       1.441   8.175  20.185  0.00  0.00    +0.000 A 
ATOM     19  C   UNL     1       1.195   9.352  19.454  0.00  0.00    +0.000 A 
ATOM     20  C   UNL     1       1.682   9.507  18.157  0.00  0.00    +0.000 A 
ATOM     21  C   UNL     1       2.419   8.485  17.568  0.00  0.00    +0.000 A 
ATOM     22  C   UNL     1       2.684   7.318  18.285  0.00  0.00    +0.000 A 
ATOM     23  C   UNL     1       2.221   7.150  19.605  0.00  0.00    +0.000 A 
ENDBRANCH  16  23
ENDBRANCH  15  16
ENDBRANCH  14  15
ENDBRANCH   1  14
TORSDOF 6
ENDMDL
MODEL 8
REMARK VINA RESULT:      -6.7      2.354      3.519
REMARK  Name = 
REMARK  7 active torsions:
REMARK  status: ('A' for Active; 'I' for Inactive)
REMARK    1  A    between atoms: C_1  and  C_2
REMARK    2  A    between atoms: C_7  and  C_8
REMARK    3  A    between atoms: C_8  and  S_9
REMARK    4  A    between atoms: S_9  and  C_10
REMARK    5  A    between atoms: C_10  and  C_11
REMARK    6  A    between atoms: N_13  and  C_14
REMARK    7  A    between atoms: C_19  and  O_20
REMARK                            x       y       z     vdW  Elec       q    Type
REMARK                         _______ _______ _______ _____ _____    ______ ____
ROOT
ATOM      1  C   UNL     1       4.725   4.418  19.538  0.00  0.00    +0.000 C 
ATOM      2  O   UNL     1       4.920   3.207  19.450  0.00  0.00    +0.000 OA
ATOM      3  N   UNL     1       5.695   5.348  19.281  0.00  0.00    +0.000 N 
ATOM      4  H   UNL     1       5.371   6.314  19.282  0.00  0.00    +0.000 HD
ENDROOT
BRANCH   3   5
ATOM      5  C   UNL     1       7.051   5.069  18.798  0.00  0.00    +0.000 C 
ATOM      6  C   UNL     1       7.999   6.271  18.937  0.00  0.00    +0.000 C 
ATOM      7  C   UNL     1       7.602   7.403  17.995  0.00  0.00    +0.000 C 
ATOM      8  N   UNL     1       7.576   6.975  16.594  0.00  0.00    +0.000 NA
ATOM      9  C   UNL     1       6.690   5.819  16.394  0.00  0.00    +0.000 C 
ATOM     10  C   UNL     1       7.012   4.626  17.316  0.00  0.00    +0.000 C 
ATOM     11  H   UNL     1       8.518   6.768  16.270  0.00  0.00    +0.000 HD
BRANCH  10  12
ATOM     12  O   UNL     1       8.252   4.018  16.930  0.00  0.00    +0.000 OA
ATOM     13  H   UNL     1       8.718   3.762  17.745  0.00  0.00    +0.000 HD
ENDBRANCH  10  12
ENDBRANCH   3   5
BRANCH   1  14
ATOM     14  C   UNL     1       3.358   4.970  19.946  0.00  0.00    +0.000 C 
BRANCH  14  15
ATOM     15  S   UNL     1       2.339   5.550  18.534  0.00  0.00    +0.000 S 
BRANCH  15  16
ATOM     16  C   UNL     1       2.784   7.314  18.586  0.00  0.00    +0.000 C 
BRANCH  16  23
ATOM     17  C   UNL     1       1.733  10.037  17.756  0.00  0.00    +0.000 C 
ATOM     18  C   UNL     1       1.345   9.391  19.058  0.00  0.00    +0.000 A 
ATOM     19  C   UNL     1       0.422  10.055  19.886  0.00  0.00    +0.000 A 
ATOM     20  C   UNL     1       0.024   9.504  21.103  0.00  0.00    +0.000 A 
ATOM     21  C   UNL     1       0.546   8.281  21.514  0.00  0.00    +0.000 A 
ATOM     22  C   UNL     1       1.451   7.605  20.696  0.00  0.00    +0.000 A 
ATOM     23  C   UNL     1       1.849   8.132  19.452  0.00  0.00    +0.000 A 
ENDBRANCH  16  23
ENDBRANCH  15  16
ENDBRANCH  14  15
ENDBRANCH   1  14
TORSDOF 6
ENDMDL
MODEL 9
REMARK VINA RESULT:      -6.7      2.017      3.517
REMARK  Name = 
REMARK  7 active torsions:
REMARK  status: ('A' for Active; 'I' for Inactive)
REMARK    1  A    between atoms: C_1  and  C_2
REMARK    2  A    between atoms: C_7  and  C_8
REMARK    3  A    between atoms: C_8  and  S_9
REMARK    4  A    between atoms: S_9  and  C_10
REMARK    5  A    between atoms: C_10  and  C_11
REMARK    6  A    between atoms: N_13  and  C_14
REMARK    7  A    between atoms: C_19  and  O_20
REMARK                            x       y       z     vdW  Elec       q    Type
REMARK                         _______ _______ _______ _____ _____    ______ ____
ROOT
ATOM      1  C   UNL     1       3.421   6.691  17.651  0.00  0.00    +0.000 C 
ATOM      2  O   UNL     1       3.438   7.914  17.528  0.00  0.00    +0.000 OA
ATOM      3  N   UNL     1       4.380   5.875  17.114  0.00  0.00    +0.000 N 
ATOM      4  H   UNL     1       4.308   4.896  17.385  0.00  0.00    +0.000 HD
ENDROOT
BRANCH   3   5
ATOM      5  C   UNL     1       5.584   6.314  16.401  0.00  0.00    +0.000 C 
ATOM      6  C   UNL     1       5.992   5.361  15.266  0.00  0.00    +0.000 C 
ATOM      7  C   UNL     1       6.473   4.020  15.813  0.00  0.00    +0.000 C 
ATOM      8  N   UNL     1       7.599   4.171  16.739  0.00  0.00    +0.000 NA
ATOM      9  C   UNL     1       7.274   5.081  17.847  0.00  0.00    +0.000 C 
ATOM     10  C   UNL     1       6.767   6.462  17.386  0.00  0.00    +0.000 C 
ATOM     11  H   UNL     1       8.425   4.491  16.240  0.00  0.00    +0.000 HD
BRANCH  10  12
ATOM     12  O   UNL     1       7.836   7.213  16.794  0.00  0.00    +0.000 OA
ATOM     13  H   UNL     1       7.745   8.135  17.093  0.00  0.00    +0.000 HD
ENDBRANCH  10  12
ENDBRANCH   3   5
BRANCH   1  14
ATOM     14  C   UNL     1       2.306   5.990  18.429  0.00  0.00    +0.000 C 
BRANCH  14  15
ATOM     15  S   UNL     1       2.307   6.361  20.226  0.00  0.00    +0.000 S 
BRANCH  15  16
ATOM     16  C   UNL     1       2.137   4.662  20.853  0.00  0.00    +0.000 C 
BRANCH  16  23
ATOM     17  C   UNL     1       0.335   2.849  19.218  0.00  0.00    +0.000 C 
ATOM     18  C   UNL     1       1.834   2.790  19.117  0.00  0.00    +0.000 A 
ATOM     19  C   UNL     1       2.409   1.901  18.191  0.00  0.00    +0.000 A 
ATOM     20  C   UNL     1       3.793   1.805  18.051  0.00  0.00    +0.000 A 
ATOM     21  C   UNL     1       4.625   2.595  18.839  0.00  0.00    +0.000 A 
ATOM     22  C   UNL     1       4.068   3.493  19.750  0.00  0.00    +0.000 A 
ATOM     23  C   UNL     1       2.673   3.622  19.891  0.00  0.00    +0.000 A 
ENDBRANCH  16  23
ENDBRANCH  15  16
ENDBRANCH  14  15
ENDBRANCH   1  14
TORSDOF 6
ENDMDL
