MODEL 1
REMARK VINA RESULT:      -7.3      0.000      0.000
REMARK  Name = 
REMARK  5 active torsions:
REMARK  status: ('A' for Active; 'I' for Inactive)
REMARK    1  A    between atoms: C_1  and  O_2
REMARK    2  A    between atoms: O_2  and  C_3
REMARK    3  A    between atoms: C_6  and  C_7
REMARK    4  A    between atoms: C_8  and  C_9
REMARK    5  A    between atoms: N_15  and  C_16
REMARK                            x       y       z     vdW  Elec       q    Type
REMARK                         _______ _______ _______ _____ _____    ______ ____
ROOT
ATOM      1  C   UNL     1       0.179  11.710  19.045  0.00  0.00    +0.000 C 
ATOM      2  C   UNL     1       0.105  11.557  20.582  0.00  0.00    +0.000 C 
ATOM      3  C   UNL     1      -0.103  12.836  21.335  0.00  0.00    +0.000 C 
ATOM      4  N   UNL     1      -1.172  12.986  22.203  0.00  0.00    +0.000 N 
ATOM      5  C   UNL     1      -1.858  11.829  22.777  0.00  0.00    +0.000 C 
ATOM      6  C   UNL     1      -2.880  12.256  23.825  0.00  0.00    +0.000 C 
ATOM      7  N   UNL     1      -3.851  13.274  23.372  0.00  0.00    +0.000 NA
ATOM      8  C   UNL     1      -4.809  12.692  22.431  0.00  0.00    +0.000 C 
ATOM      9  C   UNL     1      -3.141  14.416  22.764  0.00  0.00    +0.000 C 
ATOM     10  C   UNL     1      -2.122  14.033  21.699  0.00  0.00    +0.000 C 
ATOM     11  N   UNL     1       0.440  13.954  20.990  0.00  0.00    +0.000 NA
ATOM     12  C   UNL     1       0.466  14.146  19.663  0.00  0.00    +0.000 A 
ATOM     13  N   UNL     1       0.499  15.299  19.055  0.00  0.00    +0.000 NA
ATOM     14  C   UNL     1       1.756  15.237  18.574  0.00  0.00    +0.000 A 
ATOM     15  C   UNL     1       2.606  16.369  18.442  0.00  0.00    +0.000 A 
ATOM     16  C   UNL     1       3.962  16.217  18.224  0.00  0.00    +0.000 A 
ATOM     17  C   UNL     1       4.404  14.893  18.118  0.00  0.00    +0.000 A 
ATOM     18  C   UNL     1       3.569  13.718  18.201  0.00  0.00    +0.000 A 
ATOM     19  C   UNL     1       2.144  13.858  18.430  0.00  0.00    +0.000 A 
ATOM     20  N   UNL     1       0.850  13.155  18.764  0.00  0.00    +0.000 N 
ENDROOT
BRANCH   1  24
ATOM     21  C   UNL     1      -4.412  10.911  17.773  0.00  0.00    +0.000 A 
ATOM     22  C   UNL     1      -3.398   9.995  17.436  0.00  0.00    +0.000 A 
ATOM     23  C   UNL     1      -1.948  10.088  17.859  0.00  0.00    +0.000 A 
ATOM     24  C   UNL     1      -1.457  11.091  18.725  0.00  0.00    +0.000 A 
ATOM     25  C   UNL     1      -2.587  11.928  19.149  0.00  0.00    +0.000 A 
ATOM     26  C   UNL     1      -3.952  11.881  18.664  0.00  0.00    +0.000 A 
BRANCH  21  28
ATOM     27  C   UNL     1      -6.789  11.459  18.199  0.00  0.00    +0.000 C 
ATOM     28  O   UNL     1      -5.715  11.000  17.377  0.00  0.00    +0.000 OA
ENDBRANCH  21  28
ENDBRANCH   1  24
BRANCH   2  29
ATOM     29  C   UNL     1       0.859  10.429  21.208  0.00  0.00    +0.000 C 
ATOM     30  O   UNL     1       0.367   9.327  21.440  0.00  0.00    +0.000 OA
ENDBRANCH   2  29
TORSDOF 3
ENDMDL
MODEL 2
REMARK VINA RESULT:      -6.8      1.056      1.073
REMARK  Name = 
REMARK  5 active torsions:
REMARK  status: ('A' for Active; 'I' for Inactive)
REMARK    1  A    between atoms: C_1  and  O_2
REMARK    2  A    between atoms: O_2  and  C_3
REMARK    3  A    between atoms: C_6  and  C_7
REMARK    4  A    between atoms: C_8  and  C_9
REMARK    5  A    between atoms: N_15  and  C_16
REMARK                            x       y       z     vdW  Elec       q    Type
REMARK                         _______ _______ _______ _____ _____    ______ ____
ROOT
ATOM      1  C   UNL     1      -0.154  11.928  19.875  0.00  0.00    +0.000 C 
ATOM      2  C   UNL     1      -0.451  11.726  21.379  0.00  0.00    +0.000 C 
ATOM      3  C   UNL     1      -0.749  12.982  22.140  0.00  0.00    +0.000 C 
ATOM      4  N   UNL     1      -1.930  13.121  22.850  0.00  0.00    +0.000 N 
ATOM      5  C   UNL     1      -2.706  11.958  23.278  0.00  0.00    +0.000 C 
ATOM      6  C   UNL     1      -3.863  12.368  24.183  0.00  0.00    +0.000 C 
ATOM      7  N   UNL     1      -4.746  13.417  23.632  0.00  0.00    +0.000 NA
ATOM      8  C   UNL     1      -5.565  12.884  22.544  0.00  0.00    +0.000 C 
ATOM      9  C   UNL     1      -3.941  14.566  23.173  0.00  0.00    +0.000 C 
ATOM     10  C   UNL     1      -2.785  14.201  22.253  0.00  0.00    +0.000 C 
ATOM     11  N   UNL     1      -0.148  14.101  21.916  0.00  0.00    +0.000 NA
ATOM     12  C   UNL     1       0.071  14.337  20.615  0.00  0.00    +0.000 A 
ATOM     13  N   UNL     1       0.206  15.509  20.059  0.00  0.00    +0.000 NA
ATOM     14  C   UNL     1       1.518  15.440  19.762  0.00  0.00    +0.000 A 
ATOM     15  C   UNL     1       2.393  16.561  19.793  0.00  0.00    +0.000 A 
ATOM     16  C   UNL     1       3.763  16.393  19.767  0.00  0.00    +0.000 A 
ATOM     17  C   UNL     1       4.200  15.066  19.678  0.00  0.00    +0.000 A 
ATOM     18  C   UNL     1       3.346  13.904  19.599  0.00  0.00    +0.000 A 
ATOM     19  C   UNL     1       1.905  14.061  19.626  0.00  0.00    +0.000 A 
ATOM     20  N   UNL     1       0.568  13.370  19.745  0.00  0.00    +0.000 N 
ENDROOT
BRANCH   1  24
ATOM     21  C   UNL     1      -4.494  11.227  17.872  0.00  0.00    +0.000 A 
ATOM     22  C   UNL     1      -3.471  10.271  17.737  0.00  0.00    +0.000 A 
ATOM     23  C   UNL     1      -2.109  10.334  18.394  0.00  0.00    +0.000 A 
ATOM     24  C   UNL     1      -1.735  11.349  19.302  0.00  0.00    +0.000 A 
ATOM     25  C   UNL     1      -2.889  12.234  19.506  0.00  0.00    +0.000 A 
ATOM     26  C   UNL     1      -4.155  12.212  18.800  0.00  0.00    +0.000 A 
BRANCH  21  28
ATOM     27  C   UNL     1      -6.626  12.419  17.462  0.00  0.00    +0.000 C 
ATOM     28  O   UNL     1      -5.708  11.343  17.260  0.00  0.00    +0.000 OA
ENDBRANCH  21  28
ENDBRANCH   1  24
BRANCH   2  29
ATOM     29  C   UNL     1       0.191  10.564  22.066  0.00  0.00    +0.000 C 
ATOM     30  O   UNL     1       0.086  10.341  23.270  0.00  0.00    +0.000 OA
ENDBRANCH   2  29
TORSDOF 3
ENDMDL
MODEL 3
REMARK VINA RESULT:      -6.8      1.043      1.405
REMARK  Name = 
REMARK  5 active torsions:
REMARK  status: ('A' for Active; 'I' for Inactive)
REMARK    1  A    between atoms: C_1  and  O_2
REMARK    2  A    between atoms: O_2  and  C_3
REMARK    3  A    between atoms: C_6  and  C_7
REMARK    4  A    between atoms: C_8  and  C_9
REMARK    5  A    between atoms: N_15  and  C_16
REMARK                            x       y       z     vdW  Elec       q    Type
REMARK                         _______ _______ _______ _____ _____    ______ ____
ROOT
ATOM      1  C   UNL     1      -0.900  12.224  19.089  0.00  0.00    +0.000 C 
ATOM      2  C   UNL     1      -0.924  11.814  20.580  0.00  0.00    +0.000 C 
ATOM      3  C   UNL     1      -0.757  12.945  21.550  0.00  0.00    +0.000 C 
ATOM      4  N   UNL     1      -1.703  13.185  22.532  0.00  0.00    +0.000 N 
ATOM      5  C   UNL     1      -2.628  12.142  22.974  0.00  0.00    +0.000 C 
ATOM      6  C   UNL     1      -3.447  12.603  24.176  0.00  0.00    +0.000 C 
ATOM      7  N   UNL     1      -4.151  13.890  23.995  0.00  0.00    +0.000 NA
ATOM      8  C   UNL     1      -5.276  13.738  23.072  0.00  0.00    +0.000 C 
ATOM      9  C   UNL     1      -3.208  14.918  23.514  0.00  0.00    +0.000 C 
ATOM     10  C   UNL     1      -2.382  14.504  22.305  0.00  0.00    +0.000 C 
ATOM     11  N   UNL     1       0.032  13.942  21.340  0.00  0.00    +0.000 NA
ATOM     12  C   UNL     1       0.032  14.363  20.067  0.00  0.00    +0.000 A 
ATOM     13  N   UNL     1       0.324  15.566  19.656  0.00  0.00    +0.000 NA
ATOM     14  C   UNL     1       1.494  15.292  19.048  0.00  0.00    +0.000 A 
ATOM     15  C   UNL     1       2.596  16.191  19.019  0.00  0.00    +0.000 A 
ATOM     16  C   UNL     1       3.854  15.760  18.644  0.00  0.00    +0.000 A 
ATOM     17  C   UNL     1       3.938  14.411  18.278  0.00  0.00    +0.000 A 
ATOM     18  C   UNL     1       2.837  13.477  18.251  0.00  0.00    +0.000 A 
ATOM     19  C   UNL     1       1.510  13.911  18.642  0.00  0.00    +0.000 A 
ATOM     20  N   UNL     1       0.100  13.492  18.983  0.00  0.00    +0.000 N 
ENDROOT
BRANCH   1  24
ATOM     21  C   UNL     1      -5.531  10.914  18.666  0.00  0.00    +0.000 A 
ATOM     22  C   UNL     1      -5.164  12.050  19.412  0.00  0.00    +0.000 A 
ATOM     23  C   UNL     1      -3.764  12.611  19.538  0.00  0.00    +0.000 A 
ATOM     24  C   UNL     1      -2.655  12.087  18.837  0.00  0.00    +0.000 A 
ATOM     25  C   UNL     1      -3.127  10.996  17.975  0.00  0.00    +0.000 A 
ATOM     26  C   UNL     1      -4.453  10.412  17.934  0.00  0.00    +0.000 A 
BRANCH  21  28
ATOM     27  C   UNL     1      -7.190   9.263  19.474  0.00  0.00    +0.000 C 
ATOM     28  O   UNL     1      -6.717  10.251  18.556  0.00  0.00    +0.000 OA
ENDBRANCH  21  28
ENDBRANCH   1  24
BRANCH   2  29
ATOM     29  C   UNL     1      -0.449  10.442  20.933  0.00  0.00    +0.000 C 
ATOM     30  O   UNL     1       0.403  10.216  21.790  0.00  0.00    +0.000 OA
ENDBRANCH   2  29
TORSDOF 3
ENDMDL
MODEL 4
REMARK VINA RESULT:      -6.7      1.822      2.225
REMARK  Name = 
REMARK  5 active torsions:
REMARK  status: ('A' for Active; 'I' for Inactive)
REMARK    1  A    between atoms: C_1  and  O_2
REMARK    2  A    between atoms: O_2  and  C_3
REMARK    3  A    between atoms: C_6  and  C_7
REMARK    4  A    between atoms: C_8  and  C_9
REMARK    5  A    between atoms: N_15  and  C_16
REMARK                            x       y       z     vdW  Elec       q    Type
REMARK                         _______ _______ _______ _____ _____    ______ ____
ROOT
ATOM      1  C   UNL     1      -0.386  12.721  20.426  0.00  0.00    +0.000 C 
ATOM      2  C   UNL     1      -0.827  12.158  21.797  0.00  0.00    +0.000 C 
ATOM      3  C   UNL     1      -0.982  13.182  22.881  0.00  0.00    +0.000 C 
ATOM      4  N   UNL     1      -2.178  13.317  23.566  0.00  0.00    +0.000 N 
ATOM      5  C   UNL     1      -3.158  12.232  23.615  0.00  0.00    +0.000 C 
ATOM      6  C   UNL     1      -4.303  12.564  24.566  0.00  0.00    +0.000 C 
ATOM      7  N   UNL     1      -4.966  13.862  24.317  0.00  0.00    +0.000 NA
ATOM      8  C   UNL     1      -5.771  13.805  23.098  0.00  0.00    +0.000 C 
ATOM      9  C   UNL     1      -3.957  14.936  24.236  0.00  0.00    +0.000 C 
ATOM     10  C   UNL     1      -2.804  14.652  23.283  0.00  0.00    +0.000 C 
ATOM     11  N   UNL     1      -0.198  14.197  23.009  0.00  0.00    +0.000 NA
ATOM     12  C   UNL     1       0.155  14.748  21.839  0.00  0.00    +0.000 A 
ATOM     13  N   UNL     1       0.515  15.988  21.652  0.00  0.00    +0.000 NA
ATOM     14  C   UNL     1       1.819  15.781  21.386  0.00  0.00    +0.000 A 
ATOM     15  C   UNL     1       2.854  16.679  21.767  0.00  0.00    +0.000 A 
ATOM     16  C   UNL     1       4.179  16.291  21.733  0.00  0.00    +0.000 A 
ATOM     17  C   UNL     1       4.408  14.988  21.276  0.00  0.00    +0.000 A 
ATOM     18  C   UNL     1       3.391  14.060  20.838  0.00  0.00    +0.000 A 
ATOM     19  C   UNL     1       1.995  14.449  20.867  0.00  0.00    +0.000 A 
ATOM     20  N   UNL     1       0.561  13.994  20.741  0.00  0.00    +0.000 N 
ENDROOT
BRANCH   1  24
ATOM     21  C   UNL     1      -4.635  11.450  18.512  0.00  0.00    +0.000 A 
ATOM     22  C   UNL     1      -4.553  12.466  19.481  0.00  0.00    +0.000 A 
ATOM     23  C   UNL     1      -3.276  13.014  20.081  0.00  0.00    +0.000 A 
ATOM     24  C   UNL     1      -1.989  12.608  19.664  0.00  0.00    +0.000 A 
ATOM     25  C   UNL     1      -2.142  11.652  18.560  0.00  0.00    +0.000 A 
ATOM     26  C   UNL     1      -3.371  11.070  18.059  0.00  0.00    +0.000 A 
BRANCH  21  28
ATOM     27  C   UNL     1      -6.807  10.278  18.723  0.00  0.00    +0.000 C 
ATOM     28  O   UNL     1      -5.708  10.800  17.974  0.00  0.00    +0.000 OA
ENDBRANCH  21  28
ENDBRANCH   1  24
BRANCH   2  29
ATOM     29  C   UNL     1      -0.430  10.757  22.136  0.00  0.00    +0.000 C 
ATOM     30  O   UNL     1      -0.123  10.391  23.268  0.00  0.00    +0.000 OA
ENDBRANCH   2  29
TORSDOF 3
ENDMDL
MODEL 5
REMARK VINA RESULT:      -6.7      2.419      4.716
REMARK  Name = 
REMARK  5 active torsions:
REMARK  status: ('A' for Active; 'I' for Inactive)
REMARK    1  A    between atoms: C_1  and  O_2
REMARK    2  A    between atoms: O_2  and  C_3
REMARK    3  A    between atoms: C_6  and  C_7
REMARK    4  A    between atoms: C_8  and  C_9
REMARK    5  A    between atoms: N_15  and  C_16
REMARK                            x       y       z     vdW  Elec       q    Type
REMARK                         _______ _______ _______ _____ _____    ______ ____
ROOT
ATOM      1  C   UNL     1       1.120  12.437  20.976  0.00  0.00    +0.000 C 
ATOM      2  C   UNL     1      -0.351  12.896  20.839  0.00  0.00    +0.000 C 
ATOM      3  C   UNL     1      -0.752  13.331  19.461  0.00  0.00    +0.000 C 
ATOM      4  N   UNL     1      -1.821  12.738  18.812  0.00  0.00    +0.000 N 
ATOM      5  C   UNL     1      -2.866  12.029  19.549  0.00  0.00    +0.000 C 
ATOM      6  C   UNL     1      -4.011  11.619  18.629  0.00  0.00    +0.000 C 
ATOM      7  N   UNL     1      -3.606  10.859  17.427  0.00  0.00    +0.000 NA
ATOM      8  C   UNL     1      -3.187   9.505  17.788  0.00  0.00    +0.000 C 
ATOM      9  C   UNL     1      -2.527  11.575  16.718  0.00  0.00    +0.000 C 
ATOM     10  C   UNL     1      -1.355  11.987  17.598  0.00  0.00    +0.000 C 
ATOM     11  N   UNL     1       0.030  13.987  18.674  0.00  0.00    +0.000 NA
ATOM     12  C   UNL     1       1.304  13.573  18.723  0.00  0.00    +0.000 A 
ATOM     13  N   UNL     1       2.186  13.688  17.769  0.00  0.00    +0.000 NA
ATOM     14  C   UNL     1       2.981  14.613  18.340  0.00  0.00    +0.000 A 
ATOM     15  C   UNL     1       3.663  15.625  17.610  0.00  0.00    +0.000 A 
ATOM     16  C   UNL     1       4.222  16.711  18.255  0.00  0.00    +0.000 A 
ATOM     17  C   UNL     1       4.089  16.711  19.648  0.00  0.00    +0.000 A 
ATOM     18  C   UNL     1       3.444  15.683  20.431  0.00  0.00    +0.000 A 
ATOM     19  C   UNL     1       2.851  14.537  19.772  0.00  0.00    +0.000 A 
ATOM     20  N   UNL     1       1.970  13.318  19.919  0.00  0.00    +0.000 N 
ENDROOT
BRANCH   1  24
ATOM     21  C   UNL     1       1.100   7.607  20.968  0.00  0.00    +0.000 A 
ATOM     22  C   UNL     1       0.508   8.332  22.019  0.00  0.00    +0.000 A 
ATOM     23  C   UNL     1       0.368   9.837  22.085  0.00  0.00    +0.000 A 
ATOM     24  C   UNL     1       0.758  10.697  21.035  0.00  0.00    +0.000 A 
ATOM     25  C   UNL     1       1.238   9.874  19.918  0.00  0.00    +0.000 A 
ATOM     26  C   UNL     1       1.450   8.440  19.904  0.00  0.00    +0.000 A 
BRANCH  21  28
ATOM     27  C   UNL     1       2.385   5.738  19.973  0.00  0.00    +0.000 C 
ATOM     28  O   UNL     1       1.381   6.279  20.834  0.00  0.00    +0.000 OA
ENDBRANCH  21  28
ENDBRANCH   1  24
BRANCH   2  29
ATOM     29  C   UNL     1      -1.009  13.496  22.039  0.00  0.00    +0.000 C 
ATOM     30  O   UNL     1      -1.062  12.942  23.135  0.00  0.00    +0.000 OA
ENDBRANCH   2  29
TORSDOF 3
ENDMDL
MODEL 6
REMARK VINA RESULT:      -6.7      5.883      9.717
REMARK  Name = 
REMARK  5 active torsions:
REMARK  status: ('A' for Active; 'I' for Inactive)
REMARK    1  A    between atoms: C_1  and  O_2
REMARK    2  A    between atoms: O_2  and  C_3
REMARK    3  A    between atoms: C_6  and  C_7
REMARK    4  A    between atoms: C_8  and  C_9
REMARK    5  A    between atoms: N_15  and  C_16
REMARK                            x       y       z     vdW  Elec       q    Type
REMARK                         _______ _______ _______ _____ _____    ______ ____
ROOT
ATOM      1  C   UNL     1       8.228  15.591  20.816  0.00  0.00    +0.000 C 
ATOM      2  C   UNL     1       7.331  16.552  20.002  0.00  0.00    +0.000 C 
ATOM      3  C   UNL     1       6.768  15.976  18.739  0.00  0.00    +0.000 C 
ATOM      4  N   UNL     1       5.402  15.956  18.513  0.00  0.00    +0.000 N 
ATOM      5  C   UNL     1       4.497  16.862  19.219  0.00  0.00    +0.000 C 
ATOM      6  C   UNL     1       3.076  16.762  18.672  0.00  0.00    +0.000 C 
ATOM      7  N   UNL     1       2.521  15.393  18.625  0.00  0.00    +0.000 NA
ATOM      8  C   UNL     1       2.216  14.912  19.973  0.00  0.00    +0.000 C 
ATOM      9  C   UNL     1       3.465  14.488  17.941  0.00  0.00    +0.000 C 
ATOM     10  C   UNL     1       4.891  14.545  18.468  0.00  0.00    +0.000 C 
ATOM     11  N   UNL     1       7.428  15.174  17.974  0.00  0.00    +0.000 NA
ATOM     12  C   UNL     1       8.171  14.286  18.650  0.00  0.00    +0.000 A 
ATOM     13  N   UNL     1       8.546  13.113  18.218  0.00  0.00    +0.000 NA
ATOM     14  C   UNL     1       9.861  13.363  18.074  0.00  0.00    +0.000 A 
ATOM     15  C   UNL     1      10.665  12.790  17.050  0.00  0.00    +0.000 A 
ATOM     16  C   UNL     1      11.920  13.293  16.768  0.00  0.00    +0.000 A 
ATOM     17  C   UNL     1      12.330  14.362  17.574  0.00  0.00    +0.000 A 
ATOM     18  C   UNL     1      11.564  14.944  18.651  0.00  0.00    +0.000 A 
ATOM     19  C   UNL     1      10.245  14.430  18.962  0.00  0.00    +0.000 A 
ATOM     20  N   UNL     1       8.966  14.637  19.737  0.00  0.00    +0.000 N 
ENDROOT
BRANCH   1  24
ATOM     21  C   UNL     1       5.598  13.964  24.527  0.00  0.00    +0.000 A 
ATOM     22  C   UNL     1       5.810  15.343  24.339  0.00  0.00    +0.000 A 
ATOM     23  C   UNL     1       6.532  15.974  23.168  0.00  0.00    +0.000 A 
ATOM     24  C   UNL     1       7.016  15.233  22.067  0.00  0.00    +0.000 A 
ATOM     25  C   UNL     1       6.643  13.826  22.258  0.00  0.00    +0.000 A 
ATOM     26  C   UNL     1       6.032  13.224  23.427  0.00  0.00    +0.000 A 
BRANCH  21  28
ATOM     27  C   UNL     1       5.815  12.465  26.486  0.00  0.00    +0.000 C 
ATOM     28  O   UNL     1       5.066  13.268  25.572  0.00  0.00    +0.000 OA
ENDBRANCH  21  28
ENDBRANCH   1  24
BRANCH   2  29
ATOM     29  C   UNL     1       7.609  18.018  20.103  0.00  0.00    +0.000 C 
ATOM     30  O   UNL     1       8.331  18.630  19.319  0.00  0.00    +0.000 OA
ENDBRANCH   2  29
TORSDOF 3
ENDMDL
MODEL 7
REMARK VINA RESULT:      -6.7      3.334      6.267
REMARK  Name = 
REMARK  5 active torsions:
REMARK  status: ('A' for Active; 'I' for Inactive)
REMARK    1  A    between atoms: C_1  and  O_2
REMARK    2  A    between atoms: O_2  and  C_3
REMARK    3  A    between atoms: C_6  and  C_7
REMARK    4  A    between atoms: C_8  and  C_9
REMARK    5  A    between atoms: N_15  and  C_16
REMARK                            x       y       z     vdW  Elec       q    Type
REMARK                         _______ _______ _______ _____ _____    ______ ____
ROOT
ATOM      1  C   UNL     1       1.426  10.692  18.641  0.00  0.00    +0.000 C 
ATOM      2  C   UNL     1      -0.097  10.907  18.802  0.00  0.00    +0.000 C 
ATOM      3  C   UNL     1      -0.700  10.278  20.022  0.00  0.00    +0.000 C 
ATOM      4  N   UNL     1      -1.408  11.036  20.938  0.00  0.00    +0.000 N 
ATOM      5  C   UNL     1      -1.993  12.326  20.572  0.00  0.00    +0.000 C 
ATOM      6  C   UNL     1      -2.862  12.878  21.699  0.00  0.00    +0.000 C 
ATOM      7  N   UNL     1      -2.199  12.954  23.018  0.00  0.00    +0.000 NA
ATOM      8  C   UNL     1      -1.202  14.025  23.035  0.00  0.00    +0.000 C 
ATOM      9  C   UNL     1      -1.585  11.654  23.351  0.00  0.00    +0.000 C 
ATOM     10  C   UNL     1      -0.697  11.076  22.259  0.00  0.00    +0.000 C 
ATOM     11  N   UNL     1      -0.326   9.132  20.481  0.00  0.00    +0.000 NA
ATOM     12  C   UNL     1       0.998   8.937  20.412  0.00  0.00    +0.000 A 
ATOM     13  N   UNL     1       1.699   8.149  21.180  0.00  0.00    +0.000 NA
ATOM     14  C   UNL     1       2.010   7.207  20.270  0.00  0.00    +0.000 A 
ATOM     15  C   UNL     1       2.135   5.824  20.579  0.00  0.00    +0.000 A 
ATOM     16  C   UNL     1       2.166   4.873  19.578  0.00  0.00    +0.000 A 
ATOM     17  C   UNL     1       2.096   5.376  18.274  0.00  0.00    +0.000 A 
ATOM     18  C   UNL     1       2.013   6.773  17.916  0.00  0.00    +0.000 A 
ATOM     19  C   UNL     1       1.979   7.785  18.952  0.00  0.00    +0.000 A 
ATOM     20  N   UNL     1       1.749   9.241  19.280  0.00  0.00    +0.000 N 
ENDROOT
BRANCH   1  24
ATOM     21  C   UNL     1       2.062  15.432  19.326  0.00  0.00    +0.000 A 
ATOM     22  C   UNL     1       1.778  14.576  20.406  0.00  0.00    +0.000 A 
ATOM     23  C   UNL     1       1.653  13.069  20.331  0.00  0.00    +0.000 A 
ATOM     24  C   UNL     1       1.892  12.332  19.150  0.00  0.00    +0.000 A 
ATOM     25  C   UNL     1       2.317  13.266  18.099  0.00  0.00    +0.000 A 
ATOM     26  C   UNL     1       2.344  14.714  18.163  0.00  0.00    +0.000 A 
BRANCH  21  28
ATOM     27  C   UNL     1       1.507  17.559  18.186  0.00  0.00    +0.000 C 
ATOM     28  O   UNL     1       2.097  16.793  19.238  0.00  0.00    +0.000 OA
ENDBRANCH  21  28
ENDBRANCH   1  24
BRANCH   2  29
ATOM     29  C   UNL     1      -0.913  11.076  17.560  0.00  0.00    +0.000 C 
ATOM     30  O   UNL     1      -1.655  10.207  17.110  0.00  0.00    +0.000 OA
ENDBRANCH   2  29
TORSDOF 3
ENDMDL
MODEL 8
REMARK VINA RESULT:      -6.6      3.268      6.464
REMARK  Name = 
REMARK  5 active torsions:
REMARK  status: ('A' for Active; 'I' for Inactive)
REMARK    1  A    between atoms: C_1  and  O_2
REMARK    2  A    between atoms: O_2  and  C_3
REMARK    3  A    between atoms: C_6  and  C_7
REMARK    4  A    between atoms: C_8  and  C_9
REMARK    5  A    between atoms: N_15  and  C_16
REMARK                            x       y       z     vdW  Elec       q    Type
REMARK                         _______ _______ _______ _____ _____    ______ ____
ROOT
ATOM      1  C   UNL     1       1.266  10.800  18.506  0.00  0.00    +0.000 C 
ATOM      2  C   UNL     1      -0.257  10.979  18.706  0.00  0.00    +0.000 C 
ATOM      3  C   UNL     1      -0.801  10.394  19.975  0.00  0.00    +0.000 C 
ATOM      4  N   UNL     1      -1.503  11.177  20.875  0.00  0.00    +0.000 N 
ATOM      5  C   UNL     1      -2.139  12.430  20.466  0.00  0.00    +0.000 C 
ATOM      6  C   UNL     1      -2.987  13.012  21.592  0.00  0.00    +0.000 C 
ATOM      7  N   UNL     1      -2.286  13.174  22.883  0.00  0.00    +0.000 NA
ATOM      8  C   UNL     1      -1.322  14.272  22.815  0.00  0.00    +0.000 C 
ATOM      9  C   UNL     1      -1.623  11.910  23.259  0.00  0.00    +0.000 C 
ATOM     10  C   UNL     1      -0.752  11.303  22.168  0.00  0.00    +0.000 C 
ATOM     11  N   UNL     1      -0.379   9.284  20.477  0.00  0.00    +0.000 NA
ATOM     12  C   UNL     1       0.949   9.125  20.375  0.00  0.00    +0.000 A 
ATOM     13  N   UNL     1       1.697   8.397  21.157  0.00  0.00    +0.000 NA
ATOM     14  C   UNL     1       2.007   7.419  20.285  0.00  0.00    +0.000 A 
ATOM     15  C   UNL     1       2.184   6.058  20.657  0.00  0.00    +0.000 A 
ATOM     16  C   UNL     1       2.213   5.059  19.704  0.00  0.00    +0.000 A 
ATOM     17  C   UNL     1       2.086   5.494  18.379  0.00  0.00    +0.000 A 
ATOM     18  C   UNL     1       1.949   6.868  17.956  0.00  0.00    +0.000 A 
ATOM     19  C   UNL     1       1.917   7.929  18.942  0.00  0.00    +0.000 A 
ATOM     20  N   UNL     1       1.654   9.393  19.205  0.00  0.00    +0.000 N 
ENDROOT
BRANCH   1  24
ATOM     21  C   UNL     1       3.214  14.938  20.063  0.00  0.00    +0.000 A 
ATOM     22  C   UNL     1       2.831  14.778  18.718  0.00  0.00    +0.000 A 
ATOM     23  C   UNL     1       2.128  13.571  18.136  0.00  0.00    +0.000 A 
ATOM     24  C   UNL     1       1.698  12.475  18.918  0.00  0.00    +0.000 A 
ATOM     25  C   UNL     1       2.002  12.764  20.325  0.00  0.00    +0.000 A 
ATOM     26  C   UNL     1       2.756  13.883  20.854  0.00  0.00    +0.000 A 
BRANCH  21  28
ATOM     27  C   UNL     1       3.939  17.292  20.314  0.00  0.00    +0.000 C 
ATOM     28  O   UNL     1       3.935  15.913  20.687  0.00  0.00    +0.000 OA
ENDBRANCH  21  28
ENDBRANCH   1  24
BRANCH   2  29
ATOM     29  C   UNL     1      -1.116  11.061  17.485  0.00  0.00    +0.000 C 
ATOM     30  O   UNL     1      -1.733  10.105  17.021  0.00  0.00    +0.000 OA
ENDBRANCH   2  29
TORSDOF 3
ENDMDL
MODEL 9
REMARK VINA RESULT:      -6.6      3.041      5.929
REMARK  Name = 
REMARK  5 active torsions:
REMARK  status: ('A' for Active; 'I' for Inactive)
REMARK    1  A    between atoms: C_1  and  O_2
REMARK    2  A    between atoms: O_2  and  C_3
REMARK    3  A    between atoms: C_6  and  C_7
REMARK    4  A    between atoms: C_8  and  C_9
REMARK    5  A    between atoms: N_15  and  C_16
REMARK                            x       y       z     vdW  Elec       q    Type
REMARK                         _______ _______ _______ _____ _____    ______ ____
ROOT
ATOM      1  C   UNL     1       1.160  11.755  18.940  0.00  0.00    +0.000 C 
ATOM      2  C   UNL     1      -0.383  11.861  18.958  0.00  0.00    +0.000 C 
ATOM      3  C   UNL     1      -1.061  11.050  20.021  0.00  0.00    +0.000 C 
ATOM      4  N   UNL     1      -1.910  11.646  20.938  0.00  0.00    +0.000 N 
ATOM      5  C   UNL     1      -2.543  12.936  20.667  0.00  0.00    +0.000 C 
ATOM      6  C   UNL     1      -3.557  13.292  21.749  0.00  0.00    +0.000 C 
ATOM      7  N   UNL     1      -3.039  13.239  23.132  0.00  0.00    +0.000 NA
ATOM      8  C   UNL     1      -2.126  14.354  23.385  0.00  0.00    +0.000 C 
ATOM      9  C   UNL     1      -2.373  11.944  23.373  0.00  0.00    +0.000 C 
ATOM     10  C   UNL     1      -1.340  11.559  22.324  0.00  0.00    +0.000 C 
ATOM     11  N   UNL     1      -0.657   9.879  20.378  0.00  0.00    +0.000 NA
ATOM     12  C   UNL     1       0.679   9.770  20.432  0.00  0.00    +0.000 A 
ATOM     13  N   UNL     1       1.351   8.932  21.173  0.00  0.00    +0.000 NA
ATOM     14  C   UNL     1       1.818   8.131  20.197  0.00  0.00    +0.000 A 
ATOM     15  C   UNL     1       2.007   6.730  20.351  0.00  0.00    +0.000 A 
ATOM     16  C   UNL     1       2.206   5.915  19.253  0.00  0.00    +0.000 A 
ATOM     17  C   UNL     1       2.233   6.573  18.018  0.00  0.00    +0.000 A 
ATOM     18  C   UNL     1       2.089   7.997  17.822  0.00  0.00    +0.000 A 
ATOM     19  C   UNL     1       1.880   8.868  18.961  0.00  0.00    +0.000 A 
ATOM     20  N   UNL     1       1.517  10.256  19.433  0.00  0.00    +0.000 N 
ENDROOT
BRANCH   1  24
ATOM     21  C   UNL     1       1.306  16.383  20.317  0.00  0.00    +0.000 A 
ATOM     22  C   UNL     1       1.117  15.353  21.257  0.00  0.00    +0.000 A 
ATOM     23  C   UNL     1       1.148  13.869  20.961  0.00  0.00    +0.000 A 
ATOM     24  C   UNL     1       1.456  13.341  19.687  0.00  0.00    +0.000 A 
ATOM     25  C   UNL     1       1.778  14.457  18.790  0.00  0.00    +0.000 A 
ATOM     26  C   UNL     1       1.655  15.875  19.064  0.00  0.00    +0.000 A 
BRANCH  21  28
ATOM     27  C   UNL     1       0.903  18.627  19.350  0.00  0.00    +0.000 C 
ATOM     28  O   UNL     1       1.200  17.738  20.429  0.00  0.00    +0.000 OA
ENDBRANCH  21  28
ENDBRANCH   1  24
BRANCH   2  29
ATOM     29  C   UNL     1      -1.078  12.137  17.664  0.00  0.00    +0.000 C 
ATOM     30  O   UNL     1      -2.059  11.511  17.270  0.00  0.00    +0.000 OA
ENDBRANCH   2  29
TORSDOF 3
ENDMDL
