MODEL 1
REMARK VINA RESULT:      -7.2      0.000      0.000
REMARK  Name = 
REMARK  4 active torsions:
REMARK  status: ('A' for Active; 'I' for Inactive)
REMARK    1  A    between atoms: C_1  and  C_2
REMARK    2  A    between atoms: C_6  and  C_7
REMARK    3  A    between atoms: C_8  and  C_9
REMARK    4  A    between atoms: C_14  and  C_15
REMARK                            x       y       z     vdW  Elec       q    Type
REMARK                         _______ _______ _______ _____ _____    ______ ____
ROOT
ATOM      1  C   UNL     1       8.110   8.045  17.944  0.00  0.00    +0.000 C 
ATOM      2  C   UNL     1       8.614   9.088  18.262  0.00  0.00    +0.000 C 
ENDROOT
BRANCH   1   8
ATOM      3  C   UNL     1       6.828   4.925  14.528  0.00  0.00    +0.000 C 
ATOM      4  C   UNL     1       6.809   5.322  15.975  0.00  0.00    +0.000 A 
ATOM      5  C   UNL     1       6.201   4.495  16.917  0.00  0.00    +0.000 A 
ATOM      6  C   UNL     1       6.275   4.841  18.262  0.00  0.00    +0.000 A 
ATOM      7  C   UNL     1       6.938   6.007  18.629  0.00  0.00    +0.000 A 
ATOM      8  C   UNL     1       7.487   6.793  17.627  0.00  0.00    +0.000 A 
ATOM      9  N   UNL     1       7.446   6.473  16.314  0.00  0.00    +0.000 NA
ENDBRANCH   1   8
BRANCH   2  10
ATOM     10  C   UNL     1       9.200  10.330  18.682  0.00  0.00    +0.000 A 
ATOM     11  C   UNL     1       8.880  10.869  19.932  0.00  0.00    +0.000 A 
ATOM     12  C   UNL     1       9.452  12.081  20.330  0.00  0.00    +0.000 A 
ATOM     13  I   UNL     1       8.978  12.884  22.191  0.00  0.00    +0.000 I 
ATOM     14  C   UNL     1      10.337  12.761  19.494  0.00  0.00    +0.000 A 
ATOM     15  C   UNL     1      10.657  12.221  18.242  0.00  0.00    +0.000 A 
ATOM     16  C   UNL     1      10.086  11.005  17.839  0.00  0.00    +0.000 A 
BRANCH  15  17
ATOM     17  C   UNL     1      11.565  12.914  17.377  0.00  0.00    +0.000 C 
ATOM     18  N   UNL     1      12.295  13.476  16.671  0.00  0.00    +0.000 NA
ENDBRANCH  15  17
ENDBRANCH   2  10
TORSDOF 3
ENDMDL
MODEL 2
REMARK VINA RESULT:      -7.1      2.297      2.783
REMARK  Name = 
REMARK  4 active torsions:
REMARK  status: ('A' for Active; 'I' for Inactive)
REMARK    1  A    between atoms: C_1  and  C_2
REMARK    2  A    between atoms: C_6  and  C_7
REMARK    3  A    between atoms: C_8  and  C_9
REMARK    4  A    between atoms: C_14  and  C_15
REMARK                            x       y       z     vdW  Elec       q    Type
REMARK                         _______ _______ _______ _____ _____    ______ ____
ROOT
ATOM      1  C   UNL     1       8.179   8.423  18.149  0.00  0.00    +0.000 C 
ATOM      2  C   UNL     1       8.675   9.476  18.442  0.00  0.00    +0.000 C 
ENDROOT
BRANCH   1   8
ATOM      3  C   UNL     1       5.459   5.811  15.176  0.00  0.00    +0.000 C 
ATOM      4  C   UNL     1       6.270   5.890  16.436  0.00  0.00    +0.000 A 
ATOM      5  C   UNL     1       6.450   4.754  17.222  0.00  0.00    +0.000 A 
ATOM      6  C   UNL     1       7.279   4.831  18.335  0.00  0.00    +0.000 A 
ATOM      7  C   UNL     1       7.893   6.041  18.643  0.00  0.00    +0.000 A 
ATOM      8  C   UNL     1       7.635   7.134  17.829  0.00  0.00    +0.000 A 
ATOM      9  N   UNL     1       6.848   7.084  16.731  0.00  0.00    +0.000 NA
ENDBRANCH   1   8
BRANCH   2  10
ATOM     10  C   UNL     1       9.300  10.714  18.813  0.00  0.00    +0.000 A 
ATOM     11  C   UNL     1      10.166  11.358  17.923  0.00  0.00    +0.000 A 
ATOM     12  C   UNL     1      10.775  12.560  18.296  0.00  0.00    +0.000 A 
ATOM     13  I   UNL     1      12.062  13.519  16.973  0.00  0.00    +0.000 I 
ATOM     14  C   UNL     1      10.530  13.125  19.548  0.00  0.00    +0.000 A 
ATOM     15  C   UNL     1       9.663  12.480  20.438  0.00  0.00    +0.000 A 
ATOM     16  C   UNL     1       9.051  11.274  20.069  0.00  0.00    +0.000 A 
BRANCH  15  17
ATOM     17  C   UNL     1       9.407  13.054  21.727  0.00  0.00    +0.000 C 
ATOM     18  N   UNL     1       9.197  13.525  22.766  0.00  0.00    +0.000 NA
ENDBRANCH  15  17
ENDBRANCH   2  10
TORSDOF 3
ENDMDL
MODEL 3
REMARK VINA RESULT:      -6.9      6.350      8.879
REMARK  Name = 
REMARK  4 active torsions:
REMARK  status: ('A' for Active; 'I' for Inactive)
REMARK    1  A    between atoms: C_1  and  C_2
REMARK    2  A    between atoms: C_6  and  C_7
REMARK    3  A    between atoms: C_8  and  C_9
REMARK    4  A    between atoms: C_14  and  C_15
REMARK                            x       y       z     vdW  Elec       q    Type
REMARK                         _______ _______ _______ _____ _____    ______ ____
ROOT
ATOM      1  C   UNL     1       2.271   8.846  18.009  0.00  0.00    +0.000 C 
ATOM      2  C   UNL     1       2.826   7.806  17.781  0.00  0.00    +0.000 C 
ENDROOT
BRANCH   1   8
ATOM      3  C   UNL     1       2.525  13.633  18.279  0.00  0.00    +0.000 C 
ATOM      4  C   UNL     1       1.709  12.382  18.422  0.00  0.00    +0.000 A 
ATOM      5  C   UNL     1       0.359  12.464  18.756  0.00  0.00    +0.000 A 
ATOM      6  C   UNL     1      -0.397  11.297  18.795  0.00  0.00    +0.000 A 
ATOM      7  C   UNL     1       0.217  10.081  18.515  0.00  0.00    +0.000 A 
ATOM      8  C   UNL     1       1.573  10.081  18.224  0.00  0.00    +0.000 A 
ATOM      9  N   UNL     1       2.328  11.201  18.163  0.00  0.00    +0.000 NA
ENDBRANCH   1   8
BRANCH   2  10
ATOM     10  C   UNL     1       3.466   6.558  17.472  0.00  0.00    +0.000 A 
ATOM     11  C   UNL     1       2.890   5.353  17.886  0.00  0.00    +0.000 A 
ATOM     12  C   UNL     1       3.523   4.144  17.585  0.00  0.00    +0.000 A 
ATOM     13  I   UNL     1       2.666   2.349  18.198  0.00  0.00    +0.000 I 
ATOM     14  C   UNL     1       4.726   4.124  16.879  0.00  0.00    +0.000 A 
ATOM     15  C   UNL     1       5.303   5.332  16.466  0.00  0.00    +0.000 A 
ATOM     16  C   UNL     1       4.671   6.547  16.765  0.00  0.00    +0.000 A 
BRANCH  15  17
ATOM     17  C   UNL     1       6.539   5.320  15.740  0.00  0.00    +0.000 C 
ATOM     18  N   UNL     1       7.537   5.305  15.149  0.00  0.00    +0.000 NA
ENDBRANCH  15  17
ENDBRANCH   2  10
TORSDOF 3
ENDMDL
MODEL 4
REMARK VINA RESULT:      -6.8      6.906      9.208
REMARK  Name = 
REMARK  4 active torsions:
REMARK  status: ('A' for Active; 'I' for Inactive)
REMARK    1  A    between atoms: C_1  and  C_2
REMARK    2  A    between atoms: C_6  and  C_7
REMARK    3  A    between atoms: C_8  and  C_9
REMARK    4  A    between atoms: C_14  and  C_15
REMARK                            x       y       z     vdW  Elec       q    Type
REMARK                         _______ _______ _______ _____ _____    ______ ____
ROOT
ATOM      1  C   UNL     1       1.589   9.143  18.241  0.00  0.00    +0.000 C 
ATOM      2  C   UNL     1       2.194   8.122  18.056  0.00  0.00    +0.000 C 
ENDROOT
BRANCH   1   8
ATOM      3  C   UNL     1      -2.604  11.467  18.508  0.00  0.00    +0.000 C 
ATOM      4  C   UNL     1      -1.104  11.525  18.487  0.00  0.00    +0.000 A 
ATOM      5  C   UNL     1      -0.451  12.747  18.635  0.00  0.00    +0.000 A 
ATOM      6  C   UNL     1       0.937  12.763  18.703  0.00  0.00    +0.000 A 
ATOM      7  C   UNL     1       1.636  11.565  18.607  0.00  0.00    +0.000 A 
ATOM      8  C   UNL     1       0.913  10.395  18.427  0.00  0.00    +0.000 A 
ATOM      9  N   UNL     1      -0.437  10.347  18.375  0.00  0.00    +0.000 NA
ENDBRANCH   1   8
BRANCH   2  10
ATOM     10  C   UNL     1       2.946   6.923  17.812  0.00  0.00    +0.000 A 
ATOM     11  C   UNL     1       2.382   5.673  18.086  0.00  0.00    +0.000 A 
ATOM     12  C   UNL     1       3.124   4.512  17.849  0.00  0.00    +0.000 A 
ATOM     13  I   UNL     1       2.287   2.651  18.255  0.00  0.00    +0.000 I 
ATOM     14  C   UNL     1       4.423   4.586  17.344  0.00  0.00    +0.000 A 
ATOM     15  C   UNL     1       4.986   5.839  17.071  0.00  0.00    +0.000 A 
ATOM     16  C   UNL     1       4.246   7.005  17.306  0.00  0.00    +0.000 A 
BRANCH  15  17
ATOM     17  C   UNL     1       6.320   5.923  16.552  0.00  0.00    +0.000 C 
ATOM     18  N   UNL     1       7.397   5.993  16.125  0.00  0.00    +0.000 NA
ENDBRANCH  15  17
ENDBRANCH   2  10
TORSDOF 3
ENDMDL
MODEL 5
REMARK VINA RESULT:      -6.8      6.683      9.220
REMARK  Name = 
REMARK  4 active torsions:
REMARK  status: ('A' for Active; 'I' for Inactive)
REMARK    1  A    between atoms: C_1  and  C_2
REMARK    2  A    between atoms: C_6  and  C_7
REMARK    3  A    between atoms: C_8  and  C_9
REMARK    4  A    between atoms: C_14  and  C_15
REMARK                            x       y       z     vdW  Elec       q    Type
REMARK                         _______ _______ _______ _____ _____    ______ ____
ROOT
ATOM      1  C   UNL     1       1.783   8.534  18.890  0.00  0.00    +0.000 C 
ATOM      2  C   UNL     1       2.423   7.604  18.480  0.00  0.00    +0.000 C 
ENDROOT
BRANCH   1   8
ATOM      3  C   UNL     1      -0.511  10.363  22.691  0.00  0.00    +0.000 C 
ATOM      4  C   UNL     1      -0.176  10.450  21.230  0.00  0.00    +0.000 A 
ATOM      5  C   UNL     1      -0.644  11.520  20.470  0.00  0.00    +0.000 A 
ATOM      6  C   UNL     1      -0.246  11.626  19.142  0.00  0.00    +0.000 A 
ATOM      7  C   UNL     1       0.592  10.655  18.604  0.00  0.00    +0.000 A 
ATOM      8  C   UNL     1       0.985   9.603  19.418  0.00  0.00    +0.000 A 
ATOM      9  N   UNL     1       0.629   9.484  20.717  0.00  0.00    +0.000 NA
ENDBRANCH   1   8
BRANCH   2  10
ATOM     10  C   UNL     1       3.165   6.465  18.017  0.00  0.00    +0.000 A 
ATOM     11  C   UNL     1       2.672   5.174  18.227  0.00  0.00    +0.000 A 
ATOM     12  C   UNL     1       3.405   4.071  17.778  0.00  0.00    +0.000 A 
ATOM     13  I   UNL     1       2.672   2.149  18.089  0.00  0.00    +0.000 I 
ATOM     14  C   UNL     1       4.624   4.244  17.122  0.00  0.00    +0.000 A 
ATOM     15  C   UNL     1       5.116   5.538  16.912  0.00  0.00    +0.000 A 
ATOM     16  C   UNL     1       4.385   6.646  17.361  0.00  0.00    +0.000 A 
BRANCH  15  17
ATOM     17  C   UNL     1       6.369   5.724  16.239  0.00  0.00    +0.000 C 
ATOM     18  N   UNL     1       7.386   5.868  15.698  0.00  0.00    +0.000 NA
ENDBRANCH  15  17
ENDBRANCH   2  10
TORSDOF 3
ENDMDL
MODEL 6
REMARK VINA RESULT:      -6.7      6.748      9.188
REMARK  Name = 
REMARK  4 active torsions:
REMARK  status: ('A' for Active; 'I' for Inactive)
REMARK    1  A    between atoms: C_1  and  C_2
REMARK    2  A    between atoms: C_6  and  C_7
REMARK    3  A    between atoms: C_8  and  C_9
REMARK    4  A    between atoms: C_14  and  C_15
REMARK                            x       y       z     vdW  Elec       q    Type
REMARK                         _______ _______ _______ _____ _____    ______ ____
ROOT
ATOM      1  C   UNL     1       1.532   8.987  18.255  0.00  0.00    +0.000 C 
ATOM      2  C   UNL     1       2.206   8.021  18.021  0.00  0.00    +0.000 C 
ENDROOT
BRANCH   1   8
ATOM      3  C   UNL     1       1.064  13.106  20.678  0.00  0.00    +0.000 C 
ATOM      4  C   UNL     1       0.446  12.055  19.802  0.00  0.00    +0.000 A 
ATOM      5  C   UNL     1      -0.870  12.198  19.365  0.00  0.00    +0.000 A 
ATOM      6  C   UNL     1      -1.390  11.257  18.483  0.00  0.00    +0.000 A 
ATOM      7  C   UNL     1      -0.592  10.195  18.074  0.00  0.00    +0.000 A 
ATOM      8  C   UNL     1       0.696  10.107  18.582  0.00  0.00    +0.000 A 
ATOM      9  N   UNL     1       1.234  11.015  19.427  0.00  0.00    +0.000 NA
ENDBRANCH   1   8
BRANCH   2  10
ATOM     10  C   UNL     1       2.992   6.845  17.774  0.00  0.00    +0.000 A 
ATOM     11  C   UNL     1       2.454   5.578  18.018  0.00  0.00    +0.000 A 
ATOM     12  C   UNL     1       3.229   4.439  17.781  0.00  0.00    +0.000 A 
ATOM     13  I   UNL     1       2.429   2.552  18.142  0.00  0.00    +0.000 I 
ATOM     14  C   UNL     1       4.535   4.552  17.303  0.00  0.00    +0.000 A 
ATOM     15  C   UNL     1       5.073   5.821  17.059  0.00  0.00    +0.000 A 
ATOM     16  C   UNL     1       4.300   6.966  17.296  0.00  0.00    +0.000 A 
BRANCH  15  17
ATOM     17  C   UNL     1       6.414   5.945  16.569  0.00  0.00    +0.000 C 
ATOM     18  N   UNL     1       7.498   6.050  16.165  0.00  0.00    +0.000 NA
ENDBRANCH  15  17
ENDBRANCH   2  10
TORSDOF 3
ENDMDL
MODEL 7
REMARK VINA RESULT:      -6.7      6.734      7.897
REMARK  Name = 
REMARK  4 active torsions:
REMARK  status: ('A' for Active; 'I' for Inactive)
REMARK    1  A    between atoms: C_1  and  C_2
REMARK    2  A    between atoms: C_6  and  C_7
REMARK    3  A    between atoms: C_8  and  C_9
REMARK    4  A    between atoms: C_14  and  C_15
REMARK                            x       y       z     vdW  Elec       q    Type
REMARK                         _______ _______ _______ _____ _____    ______ ____
ROOT
ATOM      1  C   UNL     1       5.159   4.790  15.718  0.00  0.00    +0.000 C 
ATOM      2  C   UNL     1       4.518   5.004  16.711  0.00  0.00    +0.000 C 
ENDROOT
BRANCH   1   8
ATOM      3  C   UNL     1       8.878   5.921  12.900  0.00  0.00    +0.000 C 
ATOM      4  C   UNL     1       7.621   5.127  13.109  0.00  0.00    +0.000 A 
ATOM      5  C   UNL     1       7.203   4.216  12.141  0.00  0.00    +0.000 A 
ATOM      6  C   UNL     1       6.086   3.429  12.398  0.00  0.00    +0.000 A 
ATOM      7  C   UNL     1       5.408   3.582  13.602  0.00  0.00    +0.000 A 
ATOM      8  C   UNL     1       5.869   4.535  14.498  0.00  0.00    +0.000 A 
ATOM      9  N   UNL     1       6.962   5.303  14.283  0.00  0.00    +0.000 NA
ENDBRANCH   1   8
BRANCH   2  10
ATOM     10  C   UNL     1       3.715   5.263  17.873  0.00  0.00    +0.000 A 
ATOM     11  C   UNL     1       3.440   4.234  18.779  0.00  0.00    +0.000 A 
ATOM     12  C   UNL     1       2.653   4.494  19.904  0.00  0.00    +0.000 A 
ATOM     13  I   UNL     1       2.244   2.965  21.255  0.00  0.00    +0.000 I 
ATOM     14  C   UNL     1       2.135   5.770  20.134  0.00  0.00    +0.000 A 
ATOM     15  C   UNL     1       2.411   6.799  19.225  0.00  0.00    +0.000 A 
ATOM     16  C   UNL     1       3.200   6.542  18.095  0.00  0.00    +0.000 A 
BRANCH  15  17
ATOM     17  C   UNL     1       1.882   8.112  19.454  0.00  0.00    +0.000 C 
ATOM     18  N   UNL     1       1.446   9.172  19.639  0.00  0.00    +0.000 NA
ENDBRANCH  15  17
ENDBRANCH   2  10
TORSDOF 3
ENDMDL
MODEL 8
REMARK VINA RESULT:      -6.6      6.501      9.770
REMARK  Name = 
REMARK  4 active torsions:
REMARK  status: ('A' for Active; 'I' for Inactive)
REMARK    1  A    between atoms: C_1  and  C_2
REMARK    2  A    between atoms: C_6  and  C_7
REMARK    3  A    between atoms: C_8  and  C_9
REMARK    4  A    between atoms: C_14  and  C_15
REMARK                            x       y       z     vdW  Elec       q    Type
REMARK                         _______ _______ _______ _____ _____    ______ ____
ROOT
ATOM      1  C   UNL     1       2.075   8.974  18.105  0.00  0.00    +0.000 C 
ATOM      2  C   UNL     1       2.518   7.870  17.940  0.00  0.00    +0.000 C 
ENDROOT
BRANCH   1   8
ATOM      3  C   UNL     1       2.749  13.727  18.208  0.00  0.00    +0.000 C 
ATOM      4  C   UNL     1       1.826  12.558  18.393  0.00  0.00    +0.000 A 
ATOM      5  C   UNL     1       0.489  12.770  18.721  0.00  0.00    +0.000 A 
ATOM      6  C   UNL     1      -0.366  11.676  18.798  0.00  0.00    +0.000 A 
ATOM      7  C   UNL     1       0.138  10.402  18.563  0.00  0.00    +0.000 A 
ATOM      8  C   UNL     1       1.489  10.273  18.276  0.00  0.00    +0.000 A 
ATOM      9  N   UNL     1       2.340  11.319  18.177  0.00  0.00    +0.000 NA
ENDBRANCH   1   8
BRANCH   2  10
ATOM     10  C   UNL     1       3.009   6.537  17.729  0.00  0.00    +0.000 A 
ATOM     11  C   UNL     1       4.260   6.336  17.138  0.00  0.00    +0.000 A 
ATOM     12  C   UNL     1       4.727   5.034  16.931  0.00  0.00    +0.000 A 
ATOM     13  I   UNL     1       6.590   4.733  16.055  0.00  0.00    +0.000 I 
ATOM     14  C   UNL     1       3.957   3.933  17.305  0.00  0.00    +0.000 A 
ATOM     15  C   UNL     1       2.703   4.136  17.895  0.00  0.00    +0.000 A 
ATOM     16  C   UNL     1       2.232   5.439  18.105  0.00  0.00    +0.000 A 
BRANCH  15  17
ATOM     17  C   UNL     1       1.906   3.008  18.282  0.00  0.00    +0.000 C 
ATOM     18  N   UNL     1       1.254   2.100  18.593  0.00  0.00    +0.000 NA
ENDBRANCH  15  17
ENDBRANCH   2  10
TORSDOF 3
ENDMDL
MODEL 9
REMARK VINA RESULT:      -6.6      7.073      7.965
REMARK  Name = 
REMARK  4 active torsions:
REMARK  status: ('A' for Active; 'I' for Inactive)
REMARK    1  A    between atoms: C_1  and  C_2
REMARK    2  A    between atoms: C_6  and  C_7
REMARK    3  A    between atoms: C_8  and  C_9
REMARK    4  A    between atoms: C_14  and  C_15
REMARK                            x       y       z     vdW  Elec       q    Type
REMARK                         _______ _______ _______ _____ _____    ______ ____
ROOT
ATOM      1  C   UNL     1       5.136   4.803  15.681  0.00  0.00    +0.000 C 
ATOM      2  C   UNL     1       4.499   4.998  16.681  0.00  0.00    +0.000 C 
ENDROOT
BRANCH   1   8
ATOM      3  C   UNL     1       5.288   2.494  11.474  0.00  0.00    +0.000 C 
ATOM      4  C   UNL     1       5.951   3.416  12.457  0.00  0.00    +0.000 A 
ATOM      5  C   UNL     1       7.183   3.989  12.153  0.00  0.00    +0.000 A 
ATOM      6  C   UNL     1       7.733   4.909  13.039  0.00  0.00    +0.000 A 
ATOM      7  C   UNL     1       7.049   5.219  14.208  0.00  0.00    +0.000 A 
ATOM      8  C   UNL     1       5.843   4.579  14.453  0.00  0.00    +0.000 A 
ATOM      9  N   UNL     1       5.276   3.694  13.602  0.00  0.00    +0.000 NA
ENDBRANCH   1   8
BRANCH   2  10
ATOM     10  C   UNL     1       3.701   5.237  17.850  0.00  0.00    +0.000 A 
ATOM     11  C   UNL     1       3.432   4.193  18.742  0.00  0.00    +0.000 A 
ATOM     12  C   UNL     1       2.650   4.434  19.875  0.00  0.00    +0.000 A 
ATOM     13  I   UNL     1       2.251   2.883  21.203  0.00  0.00    +0.000 I 
ATOM     14  C   UNL     1       2.132   5.705  20.127  0.00  0.00    +0.000 A 
ATOM     15  C   UNL     1       2.401   6.749  19.233  0.00  0.00    +0.000 A 
ATOM     16  C   UNL     1       3.185   6.512  18.096  0.00  0.00    +0.000 A 
BRANCH  15  17
ATOM     17  C   UNL     1       1.872   8.057  19.485  0.00  0.00    +0.000 C 
ATOM     18  N   UNL     1       1.442   9.117  19.681  0.00  0.00    +0.000 NA
ENDBRANCH  15  17
ENDBRANCH   2  10
TORSDOF 3
ENDMDL
