MODEL 1
REMARK VINA RESULT:      -7.2      0.000      0.000
REMARK  Name = 
REMARK  3 active torsions:
REMARK  status: ('A' for Active; 'I' for Inactive)
REMARK    1  A    between atoms: C_11  and  S_12
REMARK    2  A    between atoms: C_11  and  C_19
REMARK    3  A    between atoms: S_12  and  C_13
REMARK                            x       y       z     vdW  Elec       q    Type
REMARK                         _______ _______ _______ _____ _____    ______ ____
ROOT
ATOM      1  O   UNL     1       2.381   8.574  17.084  0.00  0.00    +0.000 OA
ATOM      2  C   UNL     1       2.223   8.056  18.175  0.00  0.00    +0.000 C 
ATOM      3  C   UNL     1       1.635   8.783  19.302  0.00  0.00    +0.000 A 
ATOM      4  C   UNL     1       1.195  10.094  19.352  0.00  0.00    +0.000 A 
ATOM      5  C   UNL     1       0.680  10.563  20.566  0.00  0.00    +0.000 A 
ATOM      6  C   UNL     1       0.618   9.724  21.695  0.00  0.00    +0.000 A 
ATOM      7  C   UNL     1       1.062   8.403  21.623  0.00  0.00    +0.000 A 
ATOM      8  C   UNL     1       1.563   7.961  20.411  0.00  0.00    +0.000 A 
ATOM      9  C   UNL     1       2.089   6.640  20.099  0.00  0.00    +0.000 C 
ATOM     10  O   UNL     1       2.139   5.771  20.955  0.00  0.00    +0.000 OA
ATOM     11  C   UNL     1       2.556   6.611  18.629  0.00  0.00    +0.000 C 
ENDROOT
BRANCH  11  12
ATOM     12  C   UNL     1       4.043   6.303  18.429  0.00  0.00    +0.000 A 
ATOM     13  C   UNL     1       4.744   6.705  17.276  0.00  0.00    +0.000 A 
ATOM     14  C   UNL     1       6.094   6.391  17.100  0.00  0.00    +0.000 A 
ATOM     15  C   UNL     1       6.778   5.674  18.075  0.00  0.00    +0.000 A 
ATOM     16  C   UNL     1       6.113   5.270  19.227  0.00  0.00    +0.000 A 
ATOM     17  C   UNL     1       4.760   5.575  19.400  0.00  0.00    +0.000 A 
ENDBRANCH  11  12
BRANCH  11  18
ATOM     18  S   UNL     1       1.425   5.489  17.658  0.00  0.00    +0.000 S 
BRANCH  18  19
ATOM     19  C   UNL     1       2.145   3.893  17.981  0.00  0.00    +0.000 A 
ATOM     20  C   UNL     1       1.685   3.135  19.063  0.00  0.00    +0.000 A 
ATOM     21  C   UNL     1       2.281   1.912  19.371  0.00  0.00    +0.000 A 
ATOM     22  C   UNL     1       3.315   1.422  18.575  0.00  0.00    +0.000 A 
ATOM     23  C   UNL     1       3.742   2.149  17.465  0.00  0.00    +0.000 A 
ATOM     24  C   UNL     1       3.155   3.379  17.164  0.00  0.00    +0.000 A 
ENDBRANCH  18  19
ENDBRANCH  11  18
TORSDOF 3
ENDMDL
MODEL 2
REMARK VINA RESULT:      -7.1      0.087      1.393
REMARK  Name = 
REMARK  3 active torsions:
REMARK  status: ('A' for Active; 'I' for Inactive)
REMARK    1  A    between atoms: C_11  and  S_12
REMARK    2  A    between atoms: C_11  and  C_19
REMARK    3  A    between atoms: S_12  and  C_13
REMARK                            x       y       z     vdW  Elec       q    Type
REMARK                         _______ _______ _______ _____ _____    ______ ____
ROOT
ATOM      1  O   UNL     1       2.383   8.604  17.105  0.00  0.00    +0.000 OA
ATOM      2  C   UNL     1       2.226   8.080  18.194  0.00  0.00    +0.000 C 
ATOM      3  C   UNL     1       1.638   8.800  19.325  0.00  0.00    +0.000 A 
ATOM      4  C   UNL     1       1.194  10.109  19.380  0.00  0.00    +0.000 A 
ATOM      5  C   UNL     1       0.678  10.571  20.597  0.00  0.00    +0.000 A 
ATOM      6  C   UNL     1       0.618   9.727  21.722  0.00  0.00    +0.000 A 
ATOM      7  C   UNL     1       1.066   8.408  21.644  0.00  0.00    +0.000 A 
ATOM      8  C   UNL     1       1.568   7.972  20.429  0.00  0.00    +0.000 A 
ATOM      9  C   UNL     1       2.097   6.655  20.111  0.00  0.00    +0.000 C 
ATOM     10  O   UNL     1       2.150   5.782  20.963  0.00  0.00    +0.000 OA
ATOM     11  C   UNL     1       2.564   6.634  18.641  0.00  0.00    +0.000 C 
ENDROOT
BRANCH  11  12
ATOM     12  C   UNL     1       4.052   6.330  18.439  0.00  0.00    +0.000 A 
ATOM     13  C   UNL     1       4.810   5.624  19.392  0.00  0.00    +0.000 A 
ATOM     14  C   UNL     1       6.172   5.380  19.201  0.00  0.00    +0.000 A 
ATOM     15  C   UNL     1       6.808   5.829  18.049  0.00  0.00    +0.000 A 
ATOM     16  C   UNL     1       6.083   6.523  17.087  0.00  0.00    +0.000 A 
ATOM     17  C   UNL     1       4.722   6.776  17.282  0.00  0.00    +0.000 A 
ENDBRANCH  11  12
BRANCH  11  18
ATOM     18  S   UNL     1       1.435   5.513  17.665  0.00  0.00    +0.000 S 
BRANCH  18  19
ATOM     19  C   UNL     1       2.110   3.910  18.046  0.00  0.00    +0.000 A 
ATOM     20  C   UNL     1       3.165   3.407  17.278  0.00  0.00    +0.000 A 
ATOM     21  C   UNL     1       3.665   2.126  17.520  0.00  0.00    +0.000 A 
ATOM     22  C   UNL     1       3.135   1.357  18.554  0.00  0.00    +0.000 A 
ATOM     23  C   UNL     1       2.118   1.874  19.355  0.00  0.00    +0.000 A 
ATOM     24  C   UNL     1       1.610   3.150  19.106  0.00  0.00    +0.000 A 
ENDBRANCH  18  19
ENDBRANCH  11  18
TORSDOF 3
ENDMDL
MODEL 3
REMARK VINA RESULT:      -7.1      1.756      5.420
REMARK  Name = 
REMARK  3 active torsions:
REMARK  status: ('A' for Active; 'I' for Inactive)
REMARK    1  A    between atoms: C_11  and  S_12
REMARK    2  A    between atoms: C_11  and  C_19
REMARK    3  A    between atoms: S_12  and  C_13
REMARK                            x       y       z     vdW  Elec       q    Type
REMARK                         _______ _______ _______ _____ _____    ______ ____
ROOT
ATOM      1  O   UNL     1       1.138   5.214  17.219  0.00  0.00    +0.000 OA
ATOM      2  C   UNL     1       2.147   5.132  17.898  0.00  0.00    +0.000 C 
ATOM      3  C   UNL     1       2.711   3.841  18.298  0.00  0.00    +0.000 A 
ATOM      4  C   UNL     1       2.243   2.569  18.021  0.00  0.00    +0.000 A 
ATOM      5  C   UNL     1       2.963   1.484  18.536  0.00  0.00    +0.000 A 
ATOM      6  C   UNL     1       4.121   1.688  19.310  0.00  0.00    +0.000 A 
ATOM      7  C   UNL     1       4.579   2.979  19.573  0.00  0.00    +0.000 A 
ATOM      8  C   UNL     1       3.854   4.036  19.051  0.00  0.00    +0.000 A 
ATOM      9  C   UNL     1       4.128   5.458  19.198  0.00  0.00    +0.000 C 
ATOM     10  O   UNL     1       5.083   5.843  19.855  0.00  0.00    +0.000 OA
ATOM     11  C   UNL     1       3.039   6.267  18.465  0.00  0.00    +0.000 C 
ENDROOT
BRANCH  11  12
ATOM     12  C   UNL     1       2.225   7.213  19.354  0.00  0.00    +0.000 A 
ATOM     13  C   UNL     1       1.782   6.839  20.637  0.00  0.00    +0.000 A 
ATOM     14  C   UNL     1       1.018   7.707  21.422  0.00  0.00    +0.000 A 
ATOM     15  C   UNL     1       0.686   8.970  20.947  0.00  0.00    +0.000 A 
ATOM     16  C   UNL     1       1.117   9.368  19.687  0.00  0.00    +0.000 A 
ATOM     17  C   UNL     1       1.873   8.498  18.897  0.00  0.00    +0.000 A 
ENDBRANCH  11  12
BRANCH  11  18
ATOM     18  S   UNL     1       3.806   7.110  16.987  0.00  0.00    +0.000 S 
BRANCH  18  19
ATOM     19  C   UNL     1       5.124   5.984  16.579  0.00  0.00    +0.000 A 
ATOM     20  C   UNL     1       4.869   4.902  15.730  0.00  0.00    +0.000 A 
ATOM     21  C   UNL     1       5.871   3.973  15.451  0.00  0.00    +0.000 A 
ATOM     22  C   UNL     1       7.145   4.141  15.991  0.00  0.00    +0.000 A 
ATOM     23  C   UNL     1       7.419   5.245  16.796  0.00  0.00    +0.000 A 
ATOM     24  C   UNL     1       6.413   6.168  17.085  0.00  0.00    +0.000 A 
ENDBRANCH  18  19
ENDBRANCH  11  18
TORSDOF 3
ENDMDL
MODEL 4
REMARK VINA RESULT:      -6.9      2.533      5.719
REMARK  Name = 
REMARK  3 active torsions:
REMARK  status: ('A' for Active; 'I' for Inactive)
REMARK    1  A    between atoms: C_11  and  S_12
REMARK    2  A    between atoms: C_11  and  C_19
REMARK    3  A    between atoms: S_12  and  C_13
REMARK                            x       y       z     vdW  Elec       q    Type
REMARK                         _______ _______ _______ _____ _____    ______ ____
ROOT
ATOM      1  O   UNL     1       6.787   6.117  18.231  0.00  0.00    +0.000 OA
ATOM      2  C   UNL     1       5.994   5.488  17.553  0.00  0.00    +0.000 C 
ATOM      3  C   UNL     1       6.298   5.080  16.180  0.00  0.00    +0.000 A 
ATOM      4  C   UNL     1       7.441   5.320  15.439  0.00  0.00    +0.000 A 
ATOM      5  C   UNL     1       7.482   4.831  14.128  0.00  0.00    +0.000 A 
ATOM      6  C   UNL     1       6.392   4.122  13.588  0.00  0.00    +0.000 A 
ATOM      7  C   UNL     1       5.250   3.886  14.354  0.00  0.00    +0.000 A 
ATOM      8  C   UNL     1       5.234   4.375  15.649  0.00  0.00    +0.000 A 
ATOM      9  C   UNL     1       4.160   4.263  16.625  0.00  0.00    +0.000 C 
ATOM     10  O   UNL     1       3.116   3.698  16.340  0.00  0.00    +0.000 OA
ATOM     11  C   UNL     1       4.577   4.979  17.926  0.00  0.00    +0.000 C 
ENDROOT
BRANCH  11  12
ATOM     12  C   UNL     1       3.669   6.141  18.344  0.00  0.00    +0.000 A 
ATOM     13  C   UNL     1       3.025   6.176  19.595  0.00  0.00    +0.000 A 
ATOM     14  C   UNL     1       2.181   7.232  19.948  0.00  0.00    +0.000 A 
ATOM     15  C   UNL     1       1.965   8.281  19.061  0.00  0.00    +0.000 A 
ATOM     16  C   UNL     1       2.594   8.276  17.821  0.00  0.00    +0.000 A 
ATOM     17  C   UNL     1       3.432   7.215  17.464  0.00  0.00    +0.000 A 
ENDBRANCH  11  12
BRANCH  11  18
ATOM     18  S   UNL     1       4.820   3.704  19.266  0.00  0.00    +0.000 S 
BRANCH  18  19
ATOM     19  C   UNL     1       3.137   3.277  19.661  0.00  0.00    +0.000 A 
ATOM     20  C   UNL     1       2.329   2.687  18.684  0.00  0.00    +0.000 A 
ATOM     21  C   UNL     1       0.989   2.405  18.954  0.00  0.00    +0.000 A 
ATOM     22  C   UNL     1       0.461   2.679  20.214  0.00  0.00    +0.000 A 
ATOM     23  C   UNL     1       1.276   3.220  21.207  0.00  0.00    +0.000 A 
ATOM     24  C   UNL     1       2.613   3.513  20.933  0.00  0.00    +0.000 A 
ENDBRANCH  18  19
ENDBRANCH  11  18
TORSDOF 3
ENDMDL
MODEL 5
REMARK VINA RESULT:      -6.7      2.524      5.583
REMARK  Name = 
REMARK  3 active torsions:
REMARK  status: ('A' for Active; 'I' for Inactive)
REMARK    1  A    between atoms: C_11  and  S_12
REMARK    2  A    between atoms: C_11  and  C_19
REMARK    3  A    between atoms: S_12  and  C_13
REMARK                            x       y       z     vdW  Elec       q    Type
REMARK                         _______ _______ _______ _____ _____    ______ ____
ROOT
ATOM      1  O   UNL     1       6.758   6.157  18.247  0.00  0.00    +0.000 OA
ATOM      2  C   UNL     1       5.980   5.525  17.554  0.00  0.00    +0.000 C 
ATOM      3  C   UNL     1       6.313   5.116  16.188  0.00  0.00    +0.000 A 
ATOM      4  C   UNL     1       7.471   5.358  15.470  0.00  0.00    +0.000 A 
ATOM      5  C   UNL     1       7.540   4.867  14.161  0.00  0.00    +0.000 A 
ATOM      6  C   UNL     1       6.463   4.153  13.600  0.00  0.00    +0.000 A 
ATOM      7  C   UNL     1       5.307   3.915  14.343  0.00  0.00    +0.000 A 
ATOM      8  C   UNL     1       5.263   4.406  15.636  0.00  0.00    +0.000 A 
ATOM      9  C   UNL     1       4.170   4.293  16.591  0.00  0.00    +0.000 C 
ATOM     10  O   UNL     1       3.134   3.724  16.286  0.00  0.00    +0.000 OA
ATOM     11  C   UNL     1       4.558   5.012  17.898  0.00  0.00    +0.000 C 
ENDROOT
BRANCH  11  12
ATOM     12  C   UNL     1       3.638   6.172  18.296  0.00  0.00    +0.000 A 
ATOM     13  C   UNL     1       3.379   7.253  17.433  0.00  0.00    +0.000 A 
ATOM     14  C   UNL     1       2.558   8.314  17.825  0.00  0.00    +0.000 A 
ATOM     15  C   UNL     1       1.972   8.316  19.085  0.00  0.00    +0.000 A 
ATOM     16  C   UNL     1       2.205   7.257  19.956  0.00  0.00    +0.000 A 
ATOM     17  C   UNL     1       3.033   6.200  19.569  0.00  0.00    +0.000 A 
ENDBRANCH  11  12
BRANCH  11  18
ATOM     18  S   UNL     1       4.777   3.739  19.246  0.00  0.00    +0.000 S 
BRANCH  18  19
ATOM     19  C   UNL     1       3.087   3.332  19.629  0.00  0.00    +0.000 A 
ATOM     20  C   UNL     1       2.591   3.586  20.912  0.00  0.00    +0.000 A 
ATOM     21  C   UNL     1       1.289   3.215  21.251  0.00  0.00    +0.000 A 
ATOM     22  C   UNL     1       0.465   2.621  20.297  0.00  0.00    +0.000 A 
ATOM     23  C   UNL     1       0.937   2.413  19.002  0.00  0.00    +0.000 A 
ATOM     24  C   UNL     1       2.243   2.773  18.666  0.00  0.00    +0.000 A 
ENDBRANCH  18  19
ENDBRANCH  11  18
TORSDOF 3
ENDMDL
MODEL 6
REMARK VINA RESULT:      -6.5      1.328      2.022
REMARK  Name = 
REMARK  3 active torsions:
REMARK  status: ('A' for Active; 'I' for Inactive)
REMARK    1  A    between atoms: C_11  and  S_12
REMARK    2  A    between atoms: C_11  and  C_19
REMARK    3  A    between atoms: S_12  and  C_13
REMARK                            x       y       z     vdW  Elec       q    Type
REMARK                         _______ _______ _______ _____ _____    ______ ____
ROOT
ATOM      1  O   UNL     1       3.527   7.617  16.222  0.00  0.00    +0.000 OA
ATOM      2  C   UNL     1       3.246   7.375  17.383  0.00  0.00    +0.000 C 
ATOM      3  C   UNL     1       2.329   8.219  18.152  0.00  0.00    +0.000 A 
ATOM      4  C   UNL     1       1.668   9.366  17.752  0.00  0.00    +0.000 A 
ATOM      5  C   UNL     1       0.848  10.005  18.690  0.00  0.00    +0.000 A 
ATOM      6  C   UNL     1       0.707   9.493  19.993  0.00  0.00    +0.000 A 
ATOM      7  C   UNL     1       1.378   8.331  20.375  0.00  0.00    +0.000 A 
ATOM      8  C   UNL     1       2.180   7.714  19.430  0.00  0.00    +0.000 A 
ATOM      9  C   UNL     1       2.978   6.508  19.596  0.00  0.00    +0.000 C 
ATOM     10  O   UNL     1       3.006   5.923  20.667  0.00  0.00    +0.000 OA
ATOM     11  C   UNL     1       3.727   6.207  18.282  0.00  0.00    +0.000 C 
ENDROOT
BRANCH  11  12
ATOM     12  C   UNL     1       5.255   6.195  18.396  0.00  0.00    +0.000 A 
ATOM     13  C   UNL     1       5.929   5.424  19.362  0.00  0.00    +0.000 A 
ATOM     14  C   UNL     1       7.322   5.447  19.467  0.00  0.00    +0.000 A 
ATOM     15  C   UNL     1       8.075   6.235  18.604  0.00  0.00    +0.000 A 
ATOM     16  C   UNL     1       7.436   7.001  17.636  0.00  0.00    +0.000 A 
ATOM     17  C   UNL     1       6.042   6.986  17.536  0.00  0.00    +0.000 A 
ENDBRANCH  11  12
BRANCH  11  18
ATOM     18  S   UNL     1       3.024   4.650  17.530  0.00  0.00    +0.000 S 
BRANCH  18  19
ATOM     19  C   UNL     1       2.520   3.750  18.981  0.00  0.00    +0.000 A 
ATOM     20  C   UNL     1       1.172   3.748  19.357  0.00  0.00    +0.000 A 
ATOM     21  C   UNL     1       0.768   3.103  20.526  0.00  0.00    +0.000 A 
ATOM     22  C   UNL     1       1.703   2.425  21.306  0.00  0.00    +0.000 A 
ATOM     23  C   UNL     1       3.039   2.381  20.908  0.00  0.00    +0.000 A 
ATOM     24  C   UNL     1       3.446   3.037  19.745  0.00  0.00    +0.000 A 
ENDBRANCH  18  19
ENDBRANCH  11  18
TORSDOF 3
ENDMDL
MODEL 7
REMARK VINA RESULT:      -6.5      6.460      8.977
REMARK  Name = 
REMARK  3 active torsions:
REMARK  status: ('A' for Active; 'I' for Inactive)
REMARK    1  A    between atoms: C_11  and  S_12
REMARK    2  A    between atoms: C_11  and  C_19
REMARK    3  A    between atoms: S_12  and  C_13
REMARK                            x       y       z     vdW  Elec       q    Type
REMARK                         _______ _______ _______ _____ _____    ______ ____
ROOT
ATOM      1  O   UNL     1       0.678  10.146  18.776  0.00  0.00    +0.000 OA
ATOM      2  C   UNL     1      -0.324  10.818  18.951  0.00  0.00    +0.000 C 
ATOM      3  C   UNL     1      -1.522  10.654  18.125  0.00  0.00    +0.000 A 
ATOM      4  C   UNL     1      -1.733   9.789  17.067  0.00  0.00    +0.000 A 
ATOM      5  C   UNL     1      -2.976   9.835  16.425  0.00  0.00    +0.000 A 
ATOM      6  C   UNL     1      -3.972  10.736  16.846  0.00  0.00    +0.000 A 
ATOM      7  C   UNL     1      -3.742  11.597  17.919  0.00  0.00    +0.000 A 
ATOM      8  C   UNL     1      -2.508  11.530  18.541  0.00  0.00    +0.000 A 
ATOM      9  C   UNL     1      -2.037  12.327  19.665  0.00  0.00    +0.000 C 
ATOM     10  O   UNL     1      -2.751  13.183  20.163  0.00  0.00    +0.000 OA
ATOM     11  C   UNL     1      -0.588  11.923  20.005  0.00  0.00    +0.000 C 
ENDROOT
BRANCH  11  12
ATOM     12  C   UNL     1       0.442  13.051  19.889  0.00  0.00    +0.000 A 
ATOM     13  C   UNL     1       0.191  14.223  19.150  0.00  0.00    +0.000 A 
ATOM     14  C   UNL     1       1.154  15.228  19.034  0.00  0.00    +0.000 A 
ATOM     15  C   UNL     1       2.388  15.090  19.659  0.00  0.00    +0.000 A 
ATOM     16  C   UNL     1       2.661  13.947  20.401  0.00  0.00    +0.000 A 
ATOM     17  C   UNL     1       1.702  12.936  20.510  0.00  0.00    +0.000 A 
ENDBRANCH  11  12
BRANCH  11  18
ATOM     18  S   UNL     1      -0.574  11.070  21.665  0.00  0.00    +0.000 S 
BRANCH  18  19
ATOM     19  C   UNL     1      -1.412  12.264  22.686  0.00  0.00    +0.000 A 
ATOM     20  C   UNL     1      -2.667  11.953  23.221  0.00  0.00    +0.000 A 
ATOM     21  C   UNL     1      -3.368  12.899  23.969  0.00  0.00    +0.000 A 
ATOM     22  C   UNL     1      -2.802  14.148  24.217  0.00  0.00    +0.000 A 
ATOM     23  C   UNL     1      -1.529  14.444  23.730  0.00  0.00    +0.000 A 
ATOM     24  C   UNL     1      -0.833  13.502  22.971  0.00  0.00    +0.000 A 
ENDBRANCH  18  19
ENDBRANCH  11  18
TORSDOF 3
ENDMDL
MODEL 8
REMARK VINA RESULT:      -6.4      6.512      9.111
REMARK  Name = 
REMARK  3 active torsions:
REMARK  status: ('A' for Active; 'I' for Inactive)
REMARK    1  A    between atoms: C_11  and  S_12
REMARK    2  A    between atoms: C_11  and  C_19
REMARK    3  A    between atoms: S_12  and  C_13
REMARK                            x       y       z     vdW  Elec       q    Type
REMARK                         _______ _______ _______ _____ _____    ______ ____
ROOT
ATOM      1  O   UNL     1       0.581  10.126  18.831  0.00  0.00    +0.000 OA
ATOM      2  C   UNL     1      -0.408  10.820  18.993  0.00  0.00    +0.000 C 
ATOM      3  C   UNL     1      -1.603  10.676  18.158  0.00  0.00    +0.000 A 
ATOM      4  C   UNL     1      -1.823   9.808  17.104  0.00  0.00    +0.000 A 
ATOM      5  C   UNL     1      -3.059   9.876  16.451  0.00  0.00    +0.000 A 
ATOM      6  C   UNL     1      -4.040  10.801  16.858  0.00  0.00    +0.000 A 
ATOM      7  C   UNL     1      -3.800  11.664  17.927  0.00  0.00    +0.000 A 
ATOM      8  C   UNL     1      -2.572  11.576  18.560  0.00  0.00    +0.000 A 
ATOM      9  C   UNL     1      -2.094  12.370  19.682  0.00  0.00    +0.000 C 
ATOM     10  O   UNL     1      -2.794  13.245  20.169  0.00  0.00    +0.000 OA
ATOM     11  C   UNL     1      -0.657  11.938  20.038  0.00  0.00    +0.000 C 
ENDROOT
BRANCH  11  12
ATOM     12  C   UNL     1       0.398  13.043  19.922  0.00  0.00    +0.000 A 
ATOM     13  C   UNL     1       1.625  12.982  20.609  0.00  0.00    +0.000 A 
ATOM     14  C   UNL     1       2.564  14.012  20.511  0.00  0.00    +0.000 A 
ATOM     15  C   UNL     1       2.302  15.124  19.719  0.00  0.00    +0.000 A 
ATOM     16  C   UNL     1       1.101  15.208  19.024  0.00  0.00    +0.000 A 
ATOM     17  C   UNL     1       0.157  14.182  19.128  0.00  0.00    +0.000 A 
ENDBRANCH  11  12
BRANCH  11  18
ATOM     18  S   UNL     1      -0.675  11.096  21.703  0.00  0.00    +0.000 S 
BRANCH  18  19
ATOM     19  C   UNL     1      -1.521  12.302  22.703  0.00  0.00    +0.000 A 
ATOM     20  C   UNL     1      -0.898  13.522  22.985  0.00  0.00    +0.000 A 
ATOM     21  C   UNL     1      -1.518  14.454  23.819  0.00  0.00    +0.000 A 
ATOM     22  C   UNL     1      -2.780  14.184  24.346  0.00  0.00    +0.000 A 
ATOM     23  C   UNL     1      -3.427  12.992  24.026  0.00  0.00    +0.000 A 
ATOM     24  C   UNL     1      -2.802  12.055  23.201  0.00  0.00    +0.000 A 
ENDBRANCH  18  19
ENDBRANCH  11  18
TORSDOF 3
ENDMDL
MODEL 9
REMARK VINA RESULT:      -6.4      6.614      9.242
REMARK  Name = 
REMARK  3 active torsions:
REMARK  status: ('A' for Active; 'I' for Inactive)
REMARK    1  A    between atoms: C_11  and  S_12
REMARK    2  A    between atoms: C_11  and  C_19
REMARK    3  A    between atoms: S_12  and  C_13
REMARK                            x       y       z     vdW  Elec       q    Type
REMARK                         _______ _______ _______ _____ _____    ______ ____
ROOT
ATOM      1  O   UNL     1       0.607  10.405  18.925  0.00  0.00    +0.000 OA
ATOM      2  C   UNL     1      -0.433  11.017  19.093  0.00  0.00    +0.000 C 
ATOM      3  C   UNL     1      -1.616  10.781  18.262  0.00  0.00    +0.000 A 
ATOM      4  C   UNL     1      -1.769   9.902  17.204  0.00  0.00    +0.000 A 
ATOM      5  C   UNL     1      -3.009   9.874  16.556  0.00  0.00    +0.000 A 
ATOM      6  C   UNL     1      -4.060  10.715  16.970  0.00  0.00    +0.000 A 
ATOM      7  C   UNL     1      -3.886  11.590  18.042  0.00  0.00    +0.000 A 
ATOM      8  C   UNL     1      -2.653  11.598  18.671  0.00  0.00    +0.000 A 
ATOM      9  C   UNL     1      -2.236  12.424  19.794  0.00  0.00    +0.000 C 
ATOM     10  O   UNL     1      -3.002  13.237  20.287  0.00  0.00    +0.000 OA
ATOM     11  C   UNL     1      -0.768  12.107  20.143  0.00  0.00    +0.000 C 
ENDROOT
BRANCH  11  12
ATOM     12  C   UNL     1       0.195  13.294  20.029  0.00  0.00    +0.000 A 
ATOM     13  C   UNL     1      -0.103  14.429  19.253  0.00  0.00    +0.000 A 
ATOM     14  C   UNL     1       0.800  15.490  19.140  0.00  0.00    +0.000 A 
ATOM     15  C   UNL     1       2.019  15.443  19.807  0.00  0.00    +0.000 A 
ATOM     16  C   UNL     1       2.337  14.337  20.586  0.00  0.00    +0.000 A 
ATOM     17  C   UNL     1       1.438  13.272  20.692  0.00  0.00    +0.000 A 
ENDBRANCH  11  12
BRANCH  11  18
ATOM     18  S   UNL     1      -0.712  11.259  21.805  0.00  0.00    +0.000 S 
BRANCH  18  19
ATOM     19  C   UNL     1      -1.621  12.406  22.820  0.00  0.00    +0.000 A 
ATOM     20  C   UNL     1      -1.053  13.643  23.140  0.00  0.00    +0.000 A 
ATOM     21  C   UNL     1      -1.722  14.529  23.985  0.00  0.00    +0.000 A 
ATOM     22  C   UNL     1      -2.979  14.195  24.488  0.00  0.00    +0.000 A 
ATOM     23  C   UNL     1      -3.572  12.985  24.131  0.00  0.00    +0.000 A 
ATOM     24  C   UNL     1      -2.897  12.094  23.294  0.00  0.00    +0.000 A 
ENDBRANCH  18  19
ENDBRANCH  11  18
TORSDOF 3
ENDMDL
