MODEL 1
REMARK VINA RESULT:      -8.1      0.000      0.000
REMARK  Name = 
REMARK  6 active torsions:
REMARK  status: ('A' for Active; 'I' for Inactive)
REMARK    1  A    between atoms: C_2  and  C_12
REMARK    2  A    between atoms: N_3  and  C_4
REMARK    3  A    between atoms: C_4  and  C_5
REMARK    4  A    between atoms: C_5  and  N_6
REMARK    5  A    between atoms: C_14  and  C_15
REMARK    6  A    between atoms: C_20  and  C_21
REMARK                            x       y       z     vdW  Elec       q    Type
REMARK                         _______ _______ _______ _____ _____    ______ ____
ROOT
ATOM      1  C   UNL     1       6.443   5.966  17.383  0.00  0.00    +0.000 A 
ATOM      2  C   UNL     1       6.718   5.455  16.111  0.00  0.00    +0.000 A 
ATOM      3  C   UNL     1       5.746   4.734  15.403  0.00  0.00    +0.000 A 
ATOM      4  C   UNL     1       4.488   4.526  16.000  0.00  0.00    +0.000 A 
ATOM      5  C   UNL     1       4.191   5.048  17.269  0.00  0.00    +0.000 A 
ATOM      6  C   UNL     1       5.181   5.771  17.959  0.00  0.00    +0.000 A 
ENDROOT
BRANCH   1   8
ATOM      7  O   UNL     1       8.100   6.331  19.002  0.00  0.00    +0.000 OA
ATOM      8  C   UNL     1       7.474   6.796  18.058  0.00  0.00    +0.000 C 
ATOM      9  N   UNL     1       7.656   8.073  17.571  0.00  0.00    +0.000 N 
ATOM     10  H   UNL     1       6.921   8.515  17.033  0.00  0.00    +0.000 HD
BRANCH   9  11
ATOM     11  C   UNL     1       8.609   8.954  18.220  0.00  0.00    +0.000 C 
BRANCH  11  12
ATOM     12  C   UNL     1       8.334  10.444  17.941  0.00  0.00    +0.000 C 
BRANCH  12  13
ATOM     13  N   UNL     1       9.295  11.370  18.588  0.00  0.00    +0.000 NA
ATOM     14  C   UNL     1       9.568  10.965  19.980  0.00  0.00    +0.000 C 
ATOM     15  C   UNL     1      10.540  11.925  20.663  0.00  0.00    +0.000 C 
ATOM     16  C   UNL     1      11.845  12.039  19.887  0.00  0.00    +0.000 C 
ATOM     17  C   UNL     1      11.566  12.372  18.428  0.00  0.00    +0.000 C 
ATOM     18  C   UNL     1      10.555  11.395  17.815  0.00  0.00    +0.000 C 
ENDBRANCH  12  13
ENDBRANCH  11  12
ENDBRANCH   9  11
ENDBRANCH   1   8
BRANCH   3  19
ATOM     19  C   UNL     1       6.022   4.211  14.011  0.00  0.00    +0.000 C 
ATOM     20  F   UNL     1       6.479   2.930  13.988  0.00  0.00    +0.000 F 
ATOM     21  F   UNL     1       4.912   4.228  13.223  0.00  0.00    +0.000 F 
ATOM     22  F   UNL     1       6.956   4.956  13.360  0.00  0.00    +0.000 F 
ENDBRANCH   3  19
BRANCH   5  23
ATOM     23  C   UNL     1       2.823   4.879  17.888  0.00  0.00    +0.000 C 
ATOM     24  F   UNL     1       2.090   6.027  17.907  0.00  0.00    +0.000 F 
ATOM     25  F   UNL     1       2.066   3.960  17.229  0.00  0.00    +0.000 F 
ATOM     26  F   UNL     1       2.890   4.455  19.179  0.00  0.00    +0.000 F 
ENDBRANCH   5  23
TORSDOF 6
ENDMDL
MODEL 2
REMARK VINA RESULT:      -8.0      5.473      7.010
REMARK  Name = 
REMARK  6 active torsions:
REMARK  status: ('A' for Active; 'I' for Inactive)
REMARK    1  A    between atoms: C_2  and  C_12
REMARK    2  A    between atoms: N_3  and  C_4
REMARK    3  A    between atoms: C_4  and  C_5
REMARK    4  A    between atoms: C_5  and  N_6
REMARK    5  A    between atoms: C_14  and  C_15
REMARK    6  A    between atoms: C_20  and  C_21
REMARK                            x       y       z     vdW  Elec       q    Type
REMARK                         _______ _______ _______ _____ _____    ______ ____
ROOT
ATOM      1  C   UNL     1       2.529   6.227  19.100  0.00  0.00    +0.000 A 
ATOM      2  C   UNL     1       3.503   6.287  18.098  0.00  0.00    +0.000 A 
ATOM      3  C   UNL     1       3.933   5.123  17.446  0.00  0.00    +0.000 A 
ATOM      4  C   UNL     1       3.372   3.889  17.823  0.00  0.00    +0.000 A 
ATOM      5  C   UNL     1       2.379   3.814  18.814  0.00  0.00    +0.000 A 
ATOM      6  C   UNL     1       1.962   4.996  19.453  0.00  0.00    +0.000 A 
ENDROOT
BRANCH   1   8
ATOM      7  O   UNL     1       1.905   8.485  18.995  0.00  0.00    +0.000 OA
ATOM      8  C   UNL     1       2.044   7.496  19.702  0.00  0.00    +0.000 C 
ATOM      9  N   UNL     1       1.788   7.479  21.056  0.00  0.00    +0.000 N 
ATOM     10  H   UNL     1       2.216   6.771  21.640  0.00  0.00    +0.000 HD
BRANCH   9  11
ATOM     11  C   UNL     1       1.365   8.699  21.717  0.00  0.00    +0.000 C 
BRANCH  11  12
ATOM     12  C   UNL     1      -0.167   8.837  21.800  0.00  0.00    +0.000 C 
BRANCH  12  13
ATOM     13  N   UNL     1      -0.656  10.235  21.721  0.00  0.00    +0.000 NA
ATOM     14  C   UNL     1      -1.068  10.730  23.049  0.00  0.00    +0.000 C 
ATOM     15  C   UNL     1      -1.594  12.161  22.976  0.00  0.00    +0.000 C 
ATOM     16  C   UNL     1      -0.564  13.101  22.365  0.00  0.00    +0.000 C 
ATOM     17  C   UNL     1      -0.071  12.552  21.033  0.00  0.00    +0.000 C 
ATOM     18  C   UNL     1       0.406  11.101  21.169  0.00  0.00    +0.000 C 
ENDBRANCH  12  13
ENDBRANCH  11  12
ENDBRANCH   9  11
ENDBRANCH   1   8
BRANCH   3  19
ATOM     19  C   UNL     1       4.957   5.184  16.335  0.00  0.00    +0.000 C 
ATOM     20  F   UNL     1       6.238   5.013  16.762  0.00  0.00    +0.000 F 
ATOM     21  F   UNL     1       4.747   4.232  15.386  0.00  0.00    +0.000 F 
ATOM     22  F   UNL     1       4.935   6.377  15.682  0.00  0.00    +0.000 F 
ENDBRANCH   3  19
BRANCH   5  23
ATOM     23  C   UNL     1       1.731   2.499  19.179  0.00  0.00    +0.000 C 
ATOM     24  F   UNL     1       1.633   2.297  20.523  0.00  0.00    +0.000 F 
ATOM     25  F   UNL     1       0.465   2.393  18.691  0.00  0.00    +0.000 F 
ATOM     26  F   UNL     1       2.415   1.432  18.687  0.00  0.00    +0.000 F 
ENDBRANCH   5  23
TORSDOF 6
ENDMDL
MODEL 3
REMARK VINA RESULT:      -8.0      0.794      3.498
REMARK  Name = 
REMARK  6 active torsions:
REMARK  status: ('A' for Active; 'I' for Inactive)
REMARK    1  A    between atoms: C_2  and  C_12
REMARK    2  A    between atoms: N_3  and  C_4
REMARK    3  A    between atoms: C_4  and  C_5
REMARK    4  A    between atoms: C_5  and  N_6
REMARK    5  A    between atoms: C_14  and  C_15
REMARK    6  A    between atoms: C_20  and  C_21
REMARK                            x       y       z     vdW  Elec       q    Type
REMARK                         _______ _______ _______ _____ _____    ______ ____
ROOT
ATOM      1  C   UNL     1       6.604   5.741  17.507  0.00  0.00    +0.000 A 
ATOM      2  C   UNL     1       5.603   5.097  18.240  0.00  0.00    +0.000 A 
ATOM      3  C   UNL     1       4.732   4.190  17.620  0.00  0.00    +0.000 A 
ATOM      4  C   UNL     1       4.878   3.945  16.242  0.00  0.00    +0.000 A 
ATOM      5  C   UNL     1       5.890   4.571  15.496  0.00  0.00    +0.000 A 
ATOM      6  C   UNL     1       6.754   5.475  16.140  0.00  0.00    +0.000 A 
ENDROOT
BRANCH   1   8
ATOM      7  O   UNL     1       8.174   6.195  19.190  0.00  0.00    +0.000 OA
ATOM      8  C   UNL     1       7.556   6.628  18.225  0.00  0.00    +0.000 C 
ATOM      9  N   UNL     1       7.676   7.917  17.753  0.00  0.00    +0.000 N 
ATOM     10  H   UNL     1       6.935   8.318  17.191  0.00  0.00    +0.000 HD
BRANCH   9  11
ATOM     11  C   UNL     1       8.546   8.851  18.442  0.00  0.00    +0.000 C 
BRANCH  11  12
ATOM     12  C   UNL     1       8.493  10.272  17.849  0.00  0.00    +0.000 C 
BRANCH  12  13
ATOM     13  N   UNL     1       9.356  11.255  18.547  0.00  0.00    +0.000 NA
ATOM     14  C   UNL     1       9.662  10.811  19.921  0.00  0.00    +0.000 C 
ATOM     15  C   UNL     1      10.532  11.827  20.657  0.00  0.00    +0.000 C 
ATOM     16  C   UNL     1      11.823  12.106  19.900  0.00  0.00    +0.000 C 
ATOM     17  C   UNL     1      11.517  12.482  18.456  0.00  0.00    +0.000 C 
ATOM     18  C   UNL     1      10.609  11.442  17.788  0.00  0.00    +0.000 C 
ENDBRANCH  12  13
ENDBRANCH  11  12
ENDBRANCH   9  11
ENDBRANCH   1   8
BRANCH   3  19
ATOM     19  C   UNL     1       3.671   3.459  18.413  0.00  0.00    +0.000 C 
ATOM     20  F   UNL     1       3.899   3.452  19.754  0.00  0.00    +0.000 F 
ATOM     21  F   UNL     1       2.435   4.002  18.244  0.00  0.00    +0.000 F 
ATOM     22  F   UNL     1       3.562   2.155  18.043  0.00  0.00    +0.000 F 
ENDBRANCH   3  19
BRANCH   5  23
ATOM     23  C   UNL     1       6.090   4.266  14.030  0.00  0.00    +0.000 C 
ATOM     24  F   UNL     1       4.952   4.387  13.290  0.00  0.00    +0.000 F 
ATOM     25  F   UNL     1       7.005   5.089  13.449  0.00  0.00    +0.000 F 
ATOM     26  F   UNL     1       6.539   2.998  13.822  0.00  0.00    +0.000 F 
ENDBRANCH   5  23
TORSDOF 6
ENDMDL
MODEL 4
REMARK VINA RESULT:      -8.0      5.172      7.614
REMARK  Name = 
REMARK  6 active torsions:
REMARK  status: ('A' for Active; 'I' for Inactive)
REMARK    1  A    between atoms: C_2  and  C_12
REMARK    2  A    between atoms: N_3  and  C_4
REMARK    3  A    between atoms: C_4  and  C_5
REMARK    4  A    between atoms: C_5  and  N_6
REMARK    5  A    between atoms: C_14  and  C_15
REMARK    6  A    between atoms: C_20  and  C_21
REMARK                            x       y       z     vdW  Elec       q    Type
REMARK                         _______ _______ _______ _____ _____    ______ ____
ROOT
ATOM      1  C   UNL     1       2.565   6.375  18.855  0.00  0.00    +0.000 A 
ATOM      2  C   UNL     1       3.567   6.659  17.922  0.00  0.00    +0.000 A 
ATOM      3  C   UNL     1       4.118   5.641  17.130  0.00  0.00    +0.000 A 
ATOM      4  C   UNL     1       3.649   4.324  17.297  0.00  0.00    +0.000 A 
ATOM      5  C   UNL     1       2.631   4.027  18.217  0.00  0.00    +0.000 A 
ATOM      6  C   UNL     1       2.091   5.065  18.999  0.00  0.00    +0.000 A 
ENDROOT
BRANCH   1   8
ATOM      7  O   UNL     1       1.677   7.352  20.793  0.00  0.00    +0.000 OA
ATOM      8  C   UNL     1       1.953   7.499  19.610  0.00  0.00    +0.000 C 
ATOM      9  N   UNL     1       1.720   8.661  18.906  0.00  0.00    +0.000 N 
ATOM     10  H   UNL     1       1.655   8.633  17.896  0.00  0.00    +0.000 HD
BRANCH   9  11
ATOM     11  C   UNL     1       1.074   9.778  19.570  0.00  0.00    +0.000 C 
BRANCH  11  12
ATOM     12  C   UNL     1       0.352  10.723  18.589  0.00  0.00    +0.000 C 
BRANCH  12  13
ATOM     13  N   UNL     1      -1.126  10.602  18.606  0.00  0.00    +0.000 NA
ATOM     14  C   UNL     1      -1.766  11.925  18.740  0.00  0.00    +0.000 C 
ATOM     15  C   UNL     1      -3.288  11.809  18.781  0.00  0.00    +0.000 C 
ATOM     16  C   UNL     1      -3.825  11.093  17.550  0.00  0.00    +0.000 C 
ATOM     17  C   UNL     1      -3.107   9.764  17.357  0.00  0.00    +0.000 C 
ATOM     18  C   UNL     1      -1.584   9.946  17.364  0.00  0.00    +0.000 C 
ENDBRANCH  12  13
ENDBRANCH  11  12
ENDBRANCH   9  11
ENDBRANCH   1   8
BRANCH   3  19
ATOM     19  C   UNL     1       5.174   5.945  16.091  0.00  0.00    +0.000 C 
ATOM     20  F   UNL     1       4.877   7.017  15.308  0.00  0.00    +0.000 F 
ATOM     21  F   UNL     1       6.386   6.211  16.650  0.00  0.00    +0.000 F 
ATOM     22  F   UNL     1       5.373   4.901  15.242  0.00  0.00    +0.000 F 
ENDBRANCH   3  19
BRANCH   5  23
ATOM     23  C   UNL     1       2.082   2.626  18.357  0.00  0.00    +0.000 C 
ATOM     24  F   UNL     1       2.501   1.989  19.486  0.00  0.00    +0.000 F 
ATOM     25  F   UNL     1       0.722   2.604  18.396  0.00  0.00    +0.000 F 
ATOM     26  F   UNL     1       2.442   1.824  17.319  0.00  0.00    +0.000 F 
ENDBRANCH   5  23
TORSDOF 6
ENDMDL
MODEL 5
REMARK VINA RESULT:      -7.9      5.244      6.652
REMARK  Name = 
REMARK  6 active torsions:
REMARK  status: ('A' for Active; 'I' for Inactive)
REMARK    1  A    between atoms: C_2  and  C_12
REMARK    2  A    between atoms: N_3  and  C_4
REMARK    3  A    between atoms: C_4  and  C_5
REMARK    4  A    between atoms: C_5  and  N_6
REMARK    5  A    between atoms: C_14  and  C_15
REMARK    6  A    between atoms: C_20  and  C_21
REMARK                            x       y       z     vdW  Elec       q    Type
REMARK                         _______ _______ _______ _____ _____    ______ ____
ROOT
ATOM      1  C   UNL     1       2.736   6.406  18.714  0.00  0.00    +0.000 A 
ATOM      2  C   UNL     1       3.742   6.581  17.758  0.00  0.00    +0.000 A 
ATOM      3  C   UNL     1       4.219   5.493  17.013  0.00  0.00    +0.000 A 
ATOM      4  C   UNL     1       3.672   4.218  17.250  0.00  0.00    +0.000 A 
ATOM      5  C   UNL     1       2.649   4.030  18.193  0.00  0.00    +0.000 A 
ATOM      6  C   UNL     1       2.184   5.137  18.927  0.00  0.00    +0.000 A 
ENDROOT
BRANCH   1   8
ATOM      7  O   UNL     1       2.136   8.671  18.824  0.00  0.00    +0.000 OA
ATOM      8  C   UNL     1       2.204   7.602  19.418  0.00  0.00    +0.000 C 
ATOM      9  N   UNL     1       1.824   7.428  20.731  0.00  0.00    +0.000 N 
ATOM     10  H   UNL     1       2.192   6.649  21.262  0.00  0.00    +0.000 HD
BRANCH   9  11
ATOM     11  C   UNL     1       1.348   8.568  21.492  0.00  0.00    +0.000 C 
BRANCH  11  12
ATOM     12  C   UNL     1      -0.149   8.858  21.266  0.00  0.00    +0.000 C 
BRANCH  12  13
ATOM     13  N   UNL     1      -0.439  10.244  20.827  0.00  0.00    +0.000 NA
ATOM     14  C   UNL     1       0.756  11.102  20.950  0.00  0.00    +0.000 C 
ATOM     15  C   UNL     1       0.462  12.537  20.521  0.00  0.00    +0.000 C 
ATOM     16  C   UNL     1      -0.075  12.593  19.098  0.00  0.00    +0.000 C 
ATOM     17  C   UNL     1      -1.256  11.645  18.941  0.00  0.00    +0.000 C 
ATOM     18  C   UNL     1      -0.906  10.232  19.425  0.00  0.00    +0.000 C 
ENDBRANCH  12  13
ENDBRANCH  11  12
ENDBRANCH   9  11
ENDBRANCH   1   8
BRANCH   3  19
ATOM     19  C   UNL     1       5.278   5.679  15.950  0.00  0.00    +0.000 C 
ATOM     20  F   UNL     1       6.528   5.872  16.452  0.00  0.00    +0.000 F 
ATOM     21  F   UNL     1       5.368   4.608  15.117  0.00  0.00    +0.000 F 
ATOM     22  F   UNL     1       5.022   6.753  15.155  0.00  0.00    +0.000 F 
ENDBRANCH   3  19
BRANCH   5  23
ATOM     23  C   UNL     1       2.016   2.675  18.408  0.00  0.00    +0.000 C 
ATOM     24  F   UNL     1       0.655   2.709  18.439  0.00  0.00    +0.000 F 
ATOM     25  F   UNL     1       2.348   1.788  17.430  0.00  0.00    +0.000 F 
ATOM     26  F   UNL     1       2.405   2.104  19.580  0.00  0.00    +0.000 F 
ENDBRANCH   5  23
TORSDOF 6
ENDMDL
MODEL 6
REMARK VINA RESULT:      -7.9      0.793      3.525
REMARK  Name = 
REMARK  6 active torsions:
REMARK  status: ('A' for Active; 'I' for Inactive)
REMARK    1  A    between atoms: C_2  and  C_12
REMARK    2  A    between atoms: N_3  and  C_4
REMARK    3  A    between atoms: C_4  and  C_5
REMARK    4  A    between atoms: C_5  and  N_6
REMARK    5  A    between atoms: C_14  and  C_15
REMARK    6  A    between atoms: C_20  and  C_21
REMARK                            x       y       z     vdW  Elec       q    Type
REMARK                         _______ _______ _______ _____ _____    ______ ____
ROOT
ATOM      1  C   UNL     1       6.608   5.680  17.490  0.00  0.00    +0.000 A 
ATOM      2  C   UNL     1       5.622   5.007  18.219  0.00  0.00    +0.000 A 
ATOM      3  C   UNL     1       4.765   4.093  17.590  0.00  0.00    +0.000 A 
ATOM      4  C   UNL     1       4.909   3.870  16.207  0.00  0.00    +0.000 A 
ATOM      5  C   UNL     1       5.906   4.525  15.466  0.00  0.00    +0.000 A 
ATOM      6  C   UNL     1       6.756   5.435  16.119  0.00  0.00    +0.000 A 
ENDROOT
BRANCH   1   8
ATOM      7  O   UNL     1       8.131   6.158  19.208  0.00  0.00    +0.000 OA
ATOM      8  C   UNL     1       7.547   6.574  18.216  0.00  0.00    +0.000 C 
ATOM      9  N   UNL     1       7.694   7.851  17.718  0.00  0.00    +0.000 N 
ATOM     10  H   UNL     1       6.975   8.245  17.124  0.00  0.00    +0.000 HD
BRANCH   9  11
ATOM     11  C   UNL     1       8.553   8.792  18.411  0.00  0.00    +0.000 C 
BRANCH  11  12
ATOM     12  C   UNL     1       8.380  10.241  17.916  0.00  0.00    +0.000 C 
BRANCH  12  13
ATOM     13  N   UNL     1       9.259  11.224  18.593  0.00  0.00    +0.000 NA
ATOM     14  C   UNL     1       9.576  10.794  19.969  0.00  0.00    +0.000 C 
ATOM     15  C   UNL     1      10.463  11.810  20.684  0.00  0.00    +0.000 C 
ATOM     16  C   UNL     1      11.748  12.067  19.910  0.00  0.00    +0.000 C 
ATOM     17  C   UNL     1      11.431  12.429  18.465  0.00  0.00    +0.000 C 
ATOM     18  C   UNL     1      10.507  11.389  17.819  0.00  0.00    +0.000 C 
ENDBRANCH  12  13
ENDBRANCH  11  12
ENDBRANCH   9  11
ENDBRANCH   1   8
BRANCH   3  19
ATOM     19  C   UNL     1       3.722   3.332  18.377  0.00  0.00    +0.000 C 
ATOM     20  F   UNL     1       2.905   2.566  17.605  0.00  0.00    +0.000 F 
ATOM     21  F   UNL     1       4.278   2.488  19.289  0.00  0.00    +0.000 F 
ATOM     22  F   UNL     1       2.906   4.161  19.082  0.00  0.00    +0.000 F 
ENDBRANCH   3  19
BRANCH   5  23
ATOM     23  C   UNL     1       6.103   4.243  13.994  0.00  0.00    +0.000 C 
ATOM     24  F   UNL     1       7.022   5.058  13.405  0.00  0.00    +0.000 F 
ATOM     25  F   UNL     1       6.526   2.971  13.763  0.00  0.00    +0.000 F 
ATOM     26  F   UNL     1       4.955   4.394  13.281  0.00  0.00    +0.000 F 
ENDBRANCH   5  23
TORSDOF 6
ENDMDL
MODEL 7
REMARK VINA RESULT:      -7.9      5.461      6.701
REMARK  Name = 
REMARK  6 active torsions:
REMARK  status: ('A' for Active; 'I' for Inactive)
REMARK    1  A    between atoms: C_2  and  C_12
REMARK    2  A    between atoms: N_3  and  C_4
REMARK    3  A    between atoms: C_4  and  C_5
REMARK    4  A    between atoms: C_5  and  N_6
REMARK    5  A    between atoms: C_14  and  C_15
REMARK    6  A    between atoms: C_20  and  C_21
REMARK                            x       y       z     vdW  Elec       q    Type
REMARK                         _______ _______ _______ _____ _____    ______ ____
ROOT
ATOM      1  C   UNL     1       2.597   6.214  18.991  0.00  0.00    +0.000 A 
ATOM      2  C   UNL     1       3.582   6.238  17.998  0.00  0.00    +0.000 A 
ATOM      3  C   UNL     1       3.984   5.056  17.360  0.00  0.00    +0.000 A 
ATOM      4  C   UNL     1       3.384   3.842  17.742  0.00  0.00    +0.000 A 
ATOM      5  C   UNL     1       2.381   3.805  18.724  0.00  0.00    +0.000 A 
ATOM      6  C   UNL     1       1.992   5.003  19.349  0.00  0.00    +0.000 A 
ENDROOT
BRANCH   1   8
ATOM      7  O   UNL     1       2.171   8.519  18.896  0.00  0.00    +0.000 OA
ATOM      8  C   UNL     1       2.143   7.502  19.578  0.00  0.00    +0.000 C 
ATOM      9  N   UNL     1       1.721   7.468  20.889  0.00  0.00    +0.000 N 
ATOM     10  H   UNL     1       2.015   6.711  21.493  0.00  0.00    +0.000 HD
BRANCH   9  11
ATOM     11  C   UNL     1       1.317   8.701  21.540  0.00  0.00    +0.000 C 
BRANCH  11  12
ATOM     12  C   UNL     1      -0.173   9.033  21.326  0.00  0.00    +0.000 C 
BRANCH  12  13
ATOM     13  N   UNL     1      -0.418  10.374  20.743  0.00  0.00    +0.000 NA
ATOM     14  C   UNL     1       0.798  11.208  20.797  0.00  0.00    +0.000 C 
ATOM     15  C   UNL     1       0.550  12.599  20.220  0.00  0.00    +0.000 C 
ATOM     16  C   UNL     1       0.033  12.524  18.790  0.00  0.00    +0.000 C 
ATOM     17  C   UNL     1      -1.172  11.596  18.712  0.00  0.00    +0.000 C 
ATOM     18  C   UNL     1      -0.868  10.231  19.343  0.00  0.00    +0.000 C 
ENDBRANCH  12  13
ENDBRANCH  11  12
ENDBRANCH   9  11
ENDBRANCH   1   8
BRANCH   3  19
ATOM     19  C   UNL     1       5.020   5.078  16.259  0.00  0.00    +0.000 C 
ATOM     20  F   UNL     1       4.811   4.143  15.292  0.00  0.00    +0.000 F 
ATOM     21  F   UNL     1       5.067   6.277  15.618  0.00  0.00    +0.000 F 
ATOM     22  F   UNL     1       6.276   4.856  16.732  0.00  0.00    +0.000 F 
ENDBRANCH   3  19
BRANCH   5  23
ATOM     23  C   UNL     1       1.692   2.512  19.095  0.00  0.00    +0.000 C 
ATOM     24  F   UNL     1       0.467   2.364  18.517  0.00  0.00    +0.000 F 
ATOM     25  F   UNL     1       2.413   1.417  18.731  0.00  0.00    +0.000 F 
ATOM     26  F   UNL     1       1.490   2.400  20.436  0.00  0.00    +0.000 F 
ENDBRANCH   5  23
TORSDOF 6
ENDMDL
MODEL 8
REMARK VINA RESULT:      -7.9      5.255      7.375
REMARK  Name = 
REMARK  6 active torsions:
REMARK  status: ('A' for Active; 'I' for Inactive)
REMARK    1  A    between atoms: C_2  and  C_12
REMARK    2  A    between atoms: N_3  and  C_4
REMARK    3  A    between atoms: C_4  and  C_5
REMARK    4  A    between atoms: C_5  and  N_6
REMARK    5  A    between atoms: C_14  and  C_15
REMARK    6  A    between atoms: C_20  and  C_21
REMARK                            x       y       z     vdW  Elec       q    Type
REMARK                         _______ _______ _______ _____ _____    ______ ____
ROOT
ATOM      1  C   UNL     1       3.225   5.905  17.897  0.00  0.00    +0.000 A 
ATOM      2  C   UNL     1       2.647   4.755  18.443  0.00  0.00    +0.000 A 
ATOM      3  C   UNL     1       3.170   3.485  18.158  0.00  0.00    +0.000 A 
ATOM      4  C   UNL     1       4.285   3.388  17.305  0.00  0.00    +0.000 A 
ATOM      5  C   UNL     1       4.888   4.536  16.763  0.00  0.00    +0.000 A 
ATOM      6  C   UNL     1       4.347   5.799  17.065  0.00  0.00    +0.000 A 
ENDROOT
BRANCH   1   8
ATOM      7  O   UNL     1       2.715   8.159  17.495  0.00  0.00    +0.000 OA
ATOM      8  C   UNL     1       2.689   7.232  18.295  0.00  0.00    +0.000 C 
ATOM      9  N   UNL     1       2.194   7.340  19.577  0.00  0.00    +0.000 N 
ATOM     10  H   UNL     1       2.484   6.676  20.285  0.00  0.00    +0.000 HD
BRANCH   9  11
ATOM     11  C   UNL     1       1.706   8.622  20.048  0.00  0.00    +0.000 C 
BRANCH  11  12
ATOM     12  C   UNL     1       1.330   8.610  21.542  0.00  0.00    +0.000 C 
BRANCH  12  13
ATOM     13  N   UNL     1       0.727   9.874  22.027  0.00  0.00    +0.000 NA
ATOM     14  C   UNL     1       0.532  10.830  20.919  0.00  0.00    +0.000 C 
ATOM     15  C   UNL     1      -0.068  12.144  21.411  0.00  0.00    +0.000 C 
ATOM     16  C   UNL     1      -1.385  11.916  22.139  0.00  0.00    +0.000 C 
ATOM     17  C   UNL     1      -1.211  10.867  23.229  0.00  0.00    +0.000 C 
ATOM     18  C   UNL     1      -0.569   9.589  22.677  0.00  0.00    +0.000 C 
ENDBRANCH  12  13
ENDBRANCH  11  12
ENDBRANCH   9  11
ENDBRANCH   1   8
BRANCH   3  19
ATOM     19  C   UNL     1       2.575   2.240  18.775  0.00  0.00    +0.000 C 
ATOM     20  F   UNL     1       1.255   2.067  18.494  0.00  0.00    +0.000 F 
ATOM     21  F   UNL     1       3.200   1.106  18.356  0.00  0.00    +0.000 F 
ATOM     22  F   UNL     1       2.674   2.243  20.132  0.00  0.00    +0.000 F 
ENDBRANCH   3  19
BRANCH   5  23
ATOM     23  C   UNL     1       6.121   4.440  15.895  0.00  0.00    +0.000 C 
ATOM     24  F   UNL     1       6.334   5.548  15.131  0.00  0.00    +0.000 F 
ATOM     25  F   UNL     1       7.256   4.264  16.626  0.00  0.00    +0.000 F 
ATOM     26  F   UNL     1       6.064   3.392  15.031  0.00  0.00    +0.000 F 
ENDBRANCH   5  23
TORSDOF 6
ENDMDL
MODEL 9
REMARK VINA RESULT:      -7.9      0.817      1.239
REMARK  Name = 
REMARK  6 active torsions:
REMARK  status: ('A' for Active; 'I' for Inactive)
REMARK    1  A    between atoms: C_2  and  C_12
REMARK    2  A    between atoms: N_3  and  C_4
REMARK    3  A    between atoms: C_4  and  C_5
REMARK    4  A    between atoms: C_5  and  N_6
REMARK    5  A    between atoms: C_14  and  C_15
REMARK    6  A    between atoms: C_20  and  C_21
REMARK                            x       y       z     vdW  Elec       q    Type
REMARK                         _______ _______ _______ _____ _____    ______ ____
ROOT
ATOM      1  C   UNL     1       6.713   5.459  17.671  0.00  0.00    +0.000 A 
ATOM      2  C   UNL     1       6.879   5.263  16.296  0.00  0.00    +0.000 A 
ATOM      3  C   UNL     1       5.995   4.445  15.578  0.00  0.00    +0.000 A 
ATOM      4  C   UNL     1       4.940   3.818  16.267  0.00  0.00    +0.000 A 
ATOM      5  C   UNL     1       4.750   4.020  17.644  0.00  0.00    +0.000 A 
ATOM      6  C   UNL     1       5.648   4.846  18.344  0.00  0.00    +0.000 A 
ENDROOT
BRANCH   1   8
ATOM      7  O   UNL     1       8.210   6.033  19.383  0.00  0.00    +0.000 OA
ATOM      8  C   UNL     1       7.623   6.401  18.373  0.00  0.00    +0.000 C 
ATOM      9  N   UNL     1       7.741   7.664  17.834  0.00  0.00    +0.000 N 
ATOM     10  H   UNL     1       7.017   8.019  17.222  0.00  0.00    +0.000 HD
BRANCH   9  11
ATOM     11  C   UNL     1       8.571   8.649  18.502  0.00  0.00    +0.000 C 
BRANCH  11  12
ATOM     12  C   UNL     1       8.374  10.074  17.947  0.00  0.00    +0.000 C 
BRANCH  12  13
ATOM     13  N   UNL     1       9.224  11.101  18.598  0.00  0.00    +0.000 NA
ATOM     14  C   UNL     1       9.529  10.731  19.994  0.00  0.00    +0.000 C 
ATOM     15  C   UNL     1      10.385  11.793  20.680  0.00  0.00    +0.000 C 
ATOM     16  C   UNL     1      11.676  12.047  19.914  0.00  0.00    +0.000 C 
ATOM     17  C   UNL     1      11.372  12.345  18.451  0.00  0.00    +0.000 C 
ATOM     18  C   UNL     1      10.478  11.262  17.835  0.00  0.00    +0.000 C 
ENDBRANCH  12  13
ENDBRANCH  11  12
ENDBRANCH   9  11
ENDBRANCH   1   8
BRANCH   3  19
ATOM     19  C   UNL     1       6.144   4.259  14.085  0.00  0.00    +0.000 C 
ATOM     20  F   UNL     1       6.478   2.990  13.722  0.00  0.00    +0.000 F 
ATOM     21  F   UNL     1       4.999   4.553  13.411  0.00  0.00    +0.000 F 
ATOM     22  F   UNL     1       7.106   5.066  13.561  0.00  0.00    +0.000 F 
ENDBRANCH   3  19
BRANCH   5  23
ATOM     23  C   UNL     1       3.585   3.397  18.376  0.00  0.00    +0.000 C 
ATOM     24  F   UNL     1       3.763   2.075  18.656  0.00  0.00    +0.000 F 
ATOM     25  F   UNL     1       3.339   4.003  19.569  0.00  0.00    +0.000 F 
ATOM     26  F   UNL     1       2.426   3.478  17.667  0.00  0.00    +0.000 F 
ENDBRANCH   5  23
TORSDOF 6
ENDMDL
