MODEL 1
REMARK VINA RESULT:      -7.4      0.000      0.000
REMARK  Name = 
REMARK  4 active torsions:
REMARK  status: ('A' for Active; 'I' for Inactive)
REMARK    1  A    between atoms: C_1  and  C_2
REMARK    2  A    between atoms: C_2  and  C_3
REMARK    3  A    between atoms: C_8  and  C_9
REMARK    4  A    between atoms: C_11  and  C_12
REMARK                            x       y       z     vdW  Elec       q    Type
REMARK                         _______ _______ _______ _____ _____    ______ ____
ROOT
ATOM      1  C   UNL     1       3.649   5.671  17.812  0.00  0.00    +0.000 C 
ATOM      2  C   UNL     1       2.697   4.447  17.633  0.00  0.00    +0.000 C 
ATOM      3  C   UNL     1       2.522   3.659  18.953  0.00  0.00    +0.000 C 
ATOM      4  C   UNL     1       3.771   2.784  19.213  0.00  0.00    +0.000 C 
ATOM      5  C   UNL     1       1.282   2.759  18.968  0.00  0.00    +0.000 C 
ATOM      6  C   UNL     1       0.721   2.942  20.363  0.00  0.00    +0.000 C 
ATOM      7  O   UNL     1       1.029   4.272  20.751  0.00  0.00    +0.000 OA
ATOM      8  C   UNL     1       2.230   4.670  20.084  0.00  0.00    +0.000 C 
ATOM      9  O   UNL     1       2.035   5.969  19.505  0.00  0.00    +0.000 OA
ATOM     10  O   UNL     1       3.341   6.402  19.006  0.00  0.00    +0.000 OA
ENDROOT
BRANCH   1  16
ATOM     11  C   UNL     1       5.835   4.763  16.623  0.00  0.00    +0.000 A 
ATOM     12  C   UNL     1       7.221   4.526  16.720  0.00  0.00    +0.000 A 
ATOM     13  C   UNL     1       7.933   4.789  17.885  0.00  0.00    +0.000 A 
ATOM     14  C   UNL     1       7.263   5.280  18.994  0.00  0.00    +0.000 A 
ATOM     15  C   UNL     1       5.885   5.521  18.926  0.00  0.00    +0.000 A 
ATOM     16  C   UNL     1       5.141   5.298  17.742  0.00  0.00    +0.000 A 
BRANCH  11  18
ATOM     17  C   UNL     1       6.265   4.008  14.260  0.00  0.00    +0.000 C 
ATOM     18  C   UNL     1       5.211   4.362  15.300  0.00  0.00    +0.000 C 
ENDBRANCH  11  18
ENDBRANCH   1  16
TORSDOF 2
ENDMDL
MODEL 2
REMARK VINA RESULT:      -7.3      0.757      2.264
REMARK  Name = 
REMARK  4 active torsions:
REMARK  status: ('A' for Active; 'I' for Inactive)
REMARK    1  A    between atoms: C_1  and  C_2
REMARK    2  A    between atoms: C_2  and  C_3
REMARK    3  A    between atoms: C_8  and  C_9
REMARK    4  A    between atoms: C_11  and  C_12
REMARK                            x       y       z     vdW  Elec       q    Type
REMARK                         _______ _______ _______ _____ _____    ______ ____
ROOT
ATOM      1  C   UNL     1       3.450   5.555  17.826  0.00  0.00    +0.000 C 
ATOM      2  C   UNL     1       2.369   4.432  17.898  0.00  0.00    +0.000 C 
ATOM      3  C   UNL     1       2.597   3.493  19.107  0.00  0.00    +0.000 C 
ATOM      4  C   UNL     1       3.751   2.510  18.801  0.00  0.00    +0.000 C 
ATOM      5  C   UNL     1       1.354   2.683  19.495  0.00  0.00    +0.000 C 
ATOM      6  C   UNL     1       1.358   2.722  21.009  0.00  0.00    +0.000 C 
ATOM      7  O   UNL     1       1.930   3.968  21.380  0.00  0.00    +0.000 OA
ATOM      8  C   UNL     1       2.846   4.366  20.357  0.00  0.00    +0.000 C 
ATOM      9  O   UNL     1       2.599   5.740  20.018  0.00  0.00    +0.000 OA
ATOM     10  O   UNL     1       3.676   6.145  19.113  0.00  0.00    +0.000 OA
ENDROOT
BRANCH   1  16
ATOM     11  C   UNL     1       6.040   5.003  17.794  0.00  0.00    +0.000 A 
ATOM     12  C   UNL     1       7.134   4.511  17.055  0.00  0.00    +0.000 A 
ATOM     13  C   UNL     1       7.009   4.123  15.725  0.00  0.00    +0.000 A 
ATOM     14  C   UNL     1       5.780   4.240  15.096  0.00  0.00    +0.000 A 
ATOM     15  C   UNL     1       4.677   4.729  15.808  0.00  0.00    +0.000 A 
ATOM     16  C   UNL     1       4.766   5.095  17.172  0.00  0.00    +0.000 A 
BRANCH  11  18
ATOM     17  C   UNL     1       7.832   5.836  19.354  0.00  0.00    +0.000 C 
ATOM     18  C   UNL     1       6.371   5.435  19.210  0.00  0.00    +0.000 C 
ENDBRANCH  11  18
ENDBRANCH   1  16
TORSDOF 2
ENDMDL
MODEL 3
REMARK VINA RESULT:      -7.2      1.786      2.986
REMARK  Name = 
REMARK  4 active torsions:
REMARK  status: ('A' for Active; 'I' for Inactive)
REMARK    1  A    between atoms: C_1  and  C_2
REMARK    2  A    between atoms: C_2  and  C_3
REMARK    3  A    between atoms: C_8  and  C_9
REMARK    4  A    between atoms: C_11  and  C_12
REMARK                            x       y       z     vdW  Elec       q    Type
REMARK                         _______ _______ _______ _____ _____    ______ ____
ROOT
ATOM      1  C   UNL     1       5.431   4.189  19.097  0.00  0.00    +0.000 C 
ATOM      2  C   UNL     1       4.381   5.148  19.741  0.00  0.00    +0.000 C 
ATOM      3  C   UNL     1       2.936   4.777  19.326  0.00  0.00    +0.000 C 
ATOM      4  C   UNL     1       2.659   5.268  17.886  0.00  0.00    +0.000 C 
ATOM      5  C   UNL     1       1.865   5.358  20.256  0.00  0.00    +0.000 C 
ATOM      6  C   UNL     1       0.869   4.228  20.407  0.00  0.00    +0.000 C 
ATOM      7  O   UNL     1       1.611   3.020  20.324  0.00  0.00    +0.000 OA
ATOM      8  C   UNL     1       2.759   3.252  19.503  0.00  0.00    +0.000 C 
ATOM      9  O   UNL     1       3.920   2.725  20.163  0.00  0.00    +0.000 OA
ATOM     10  O   UNL     1       5.022   2.819  19.204  0.00  0.00    +0.000 OA
ENDROOT
BRANCH   1  16
ATOM     11  C   UNL     1       6.733   5.542  17.230  0.00  0.00    +0.000 A 
ATOM     12  C   UNL     1       6.977   5.721  15.853  0.00  0.00    +0.000 A 
ATOM     13  C   UNL     1       6.313   4.974  14.885  0.00  0.00    +0.000 A 
ATOM     14  C   UNL     1       5.367   4.041  15.278  0.00  0.00    +0.000 A 
ATOM     15  C   UNL     1       5.104   3.846  16.640  0.00  0.00    +0.000 A 
ATOM     16  C   UNL     1       5.792   4.563  17.648  0.00  0.00    +0.000 A 
BRANCH  11  18
ATOM     17  C   UNL     1       7.633   7.873  17.537  0.00  0.00    +0.000 C 
ATOM     18  C   UNL     1       7.502   6.481  18.139  0.00  0.00    +0.000 C 
ENDBRANCH  11  18
ENDBRANCH   1  16
TORSDOF 2
ENDMDL
MODEL 4
REMARK VINA RESULT:      -7.2      1.906      3.023
REMARK  Name = 
REMARK  4 active torsions:
REMARK  status: ('A' for Active; 'I' for Inactive)
REMARK    1  A    between atoms: C_1  and  C_2
REMARK    2  A    between atoms: C_2  and  C_3
REMARK    3  A    between atoms: C_8  and  C_9
REMARK    4  A    between atoms: C_11  and  C_12
REMARK                            x       y       z     vdW  Elec       q    Type
REMARK                         _______ _______ _______ _____ _____    ______ ____
ROOT
ATOM      1  C   UNL     1       4.927   4.623  19.112  0.00  0.00    +0.000 C 
ATOM      2  C   UNL     1       3.584   5.135  19.720  0.00  0.00    +0.000 C 
ATOM      3  C   UNL     1       2.410   4.175  19.407  0.00  0.00    +0.000 C 
ATOM      4  C   UNL     1       1.946   4.371  17.945  0.00  0.00    +0.000 C 
ATOM      5  C   UNL     1       1.204   4.363  20.333  0.00  0.00    +0.000 C 
ATOM      6  C   UNL     1       0.752   2.947  20.627  0.00  0.00    +0.000 C 
ATOM      7  O   UNL     1       1.920   2.139  20.612  0.00  0.00    +0.000 OA
ATOM      8  C   UNL     1       2.868   2.733  19.721  0.00  0.00    +0.000 C 
ATOM      9  O   UNL     1       4.149   2.785  20.368  0.00  0.00    +0.000 OA
ATOM     10  O   UNL     1       5.110   3.222  19.354  0.00  0.00    +0.000 OA
ENDROOT
BRANCH   1  16
ATOM     11  C   UNL     1       4.958   6.251  17.023  0.00  0.00    +0.000 A 
ATOM     12  C   UNL     1       5.195   6.396  15.641  0.00  0.00    +0.000 A 
ATOM     13  C   UNL     1       5.547   5.317  14.838  0.00  0.00    +0.000 A 
ATOM     14  C   UNL     1       5.648   4.055  15.401  0.00  0.00    +0.000 A 
ATOM     15  C   UNL     1       5.414   3.883  16.771  0.00  0.00    +0.000 A 
ATOM     16  C   UNL     1       5.093   4.969  17.621  0.00  0.00    +0.000 A 
BRANCH  11  18
ATOM     17  C   UNL     1       3.050   7.816  17.519  0.00  0.00    +0.000 C 
ATOM     18  C   UNL     1       4.527   7.521  17.732  0.00  0.00    +0.000 C 
ENDBRANCH  11  18
ENDBRANCH   1  16
TORSDOF 2
ENDMDL
MODEL 5
REMARK VINA RESULT:      -6.8      1.975      2.402
REMARK  Name = 
REMARK  4 active torsions:
REMARK  status: ('A' for Active; 'I' for Inactive)
REMARK    1  A    between atoms: C_1  and  C_2
REMARK    2  A    between atoms: C_2  and  C_3
REMARK    3  A    between atoms: C_8  and  C_9
REMARK    4  A    between atoms: C_11  and  C_12
REMARK                            x       y       z     vdW  Elec       q    Type
REMARK                         _______ _______ _______ _____ _____    ______ ____
ROOT
ATOM      1  C   UNL     1       3.109   3.421  17.285  0.00  0.00    +0.000 C 
ATOM      2  C   UNL     1       3.511   2.708  18.615  0.00  0.00    +0.000 C 
ATOM      3  C   UNL     1       2.834   3.362  19.843  0.00  0.00    +0.000 C 
ATOM      4  C   UNL     1       3.560   4.678  20.206  0.00  0.00    +0.000 C 
ATOM      5  C   UNL     1       2.811   2.459  21.081  0.00  0.00    +0.000 C 
ATOM      6  C   UNL     1       1.431   2.681  21.664  0.00  0.00    +0.000 C 
ATOM      7  O   UNL     1       0.567   2.944  20.568  0.00  0.00    +0.000 OA
ATOM      8  C   UNL     1       1.334   3.552  19.525  0.00  0.00    +0.000 C 
ATOM      9  O   UNL     1       1.038   2.894  18.283  0.00  0.00    +0.000 OA
ATOM     10  O   UNL     1       1.698   3.671  17.233  0.00  0.00    +0.000 OA
ENDROOT
BRANCH   1  16
ATOM     11  C   UNL     1       5.120   4.795  16.247  0.00  0.00    +0.000 A 
ATOM     12  C   UNL     1       5.711   6.060  16.050  0.00  0.00    +0.000 A 
ATOM     13  C   UNL     1       5.164   7.219  16.590  0.00  0.00    +0.000 A 
ATOM     14  C   UNL     1       4.016   7.133  17.362  0.00  0.00    +0.000 A 
ATOM     15  C   UNL     1       3.412   5.888  17.575  0.00  0.00    +0.000 A 
ATOM     16  C   UNL     1       3.924   4.697  17.007  0.00  0.00    +0.000 A 
BRANCH  11  18
ATOM     17  C   UNL     1       6.235   3.890  14.179  0.00  0.00    +0.000 C 
ATOM     18  C   UNL     1       5.884   3.635  15.637  0.00  0.00    +0.000 C 
ENDBRANCH  11  18
ENDBRANCH   1  16
TORSDOF 2
ENDMDL
MODEL 6
REMARK VINA RESULT:      -6.8      2.165      5.383
REMARK  Name = 
REMARK  4 active torsions:
REMARK  status: ('A' for Active; 'I' for Inactive)
REMARK    1  A    between atoms: C_1  and  C_2
REMARK    2  A    between atoms: C_2  and  C_3
REMARK    3  A    between atoms: C_8  and  C_9
REMARK    4  A    between atoms: C_11  and  C_12
REMARK                            x       y       z     vdW  Elec       q    Type
REMARK                         _______ _______ _______ _____ _____    ______ ____
ROOT
ATOM      1  C   UNL     1       4.817   3.703  19.140  0.00  0.00    +0.000 C 
ATOM      2  C   UNL     1       4.797   3.332  17.623  0.00  0.00    +0.000 C 
ATOM      3  C   UNL     1       5.265   4.514  16.739  0.00  0.00    +0.000 C 
ATOM      4  C   UNL     1       4.129   5.555  16.608  0.00  0.00    +0.000 C 
ATOM      5  C   UNL     1       5.703   4.088  15.333  0.00  0.00    +0.000 C 
ATOM      6  C   UNL     1       6.939   4.925  15.073  0.00  0.00    +0.000 C 
ATOM      7  O   UNL     1       7.568   5.118  16.331  0.00  0.00    +0.000 OA
ATOM      8  C   UNL     1       6.563   5.089  17.348  0.00  0.00    +0.000 C 
ATOM      9  O   UNL     1       6.998   4.226  18.410  0.00  0.00    +0.000 OA
ATOM     10  O   UNL     1       6.028   4.382  19.496  0.00  0.00    +0.000 OA
ENDROOT
BRANCH   1  16
ATOM     11  C   UNL     1       2.321   3.940  19.994  0.00  0.00    +0.000 A 
ATOM     12  C   UNL     1       1.298   4.806  20.429  0.00  0.00    +0.000 A 
ATOM     13  C   UNL     1       1.470   6.186  20.467  0.00  0.00    +0.000 A 
ATOM     14  C   UNL     1       2.671   6.733  20.047  0.00  0.00    +0.000 A 
ATOM     15  C   UNL     1       3.703   5.894  19.606  0.00  0.00    +0.000 A 
ATOM     16  C   UNL     1       3.571   4.485  19.593  0.00  0.00    +0.000 A 
BRANCH  11  18
ATOM     17  C   UNL     1       1.102   2.130  18.738  0.00  0.00    +0.000 C 
ATOM     18  C   UNL     1       1.940   2.472  19.961  0.00  0.00    +0.000 C 
ENDBRANCH  11  18
ENDBRANCH   1  16
TORSDOF 2
ENDMDL
MODEL 7
REMARK VINA RESULT:      -6.7      1.961      5.362
REMARK  Name = 
REMARK  4 active torsions:
REMARK  status: ('A' for Active; 'I' for Inactive)
REMARK    1  A    between atoms: C_1  and  C_2
REMARK    2  A    between atoms: C_2  and  C_3
REMARK    3  A    between atoms: C_8  and  C_9
REMARK    4  A    between atoms: C_11  and  C_12
REMARK                            x       y       z     vdW  Elec       q    Type
REMARK                         _______ _______ _______ _____ _____    ______ ____
ROOT
ATOM      1  C   UNL     1       4.912   5.029  19.316  0.00  0.00    +0.000 C 
ATOM      2  C   UNL     1       5.516   4.070  18.243  0.00  0.00    +0.000 C 
ATOM      3  C   UNL     1       4.934   4.346  16.835  0.00  0.00    +0.000 C 
ATOM      4  C   UNL     1       3.513   3.745  16.725  0.00  0.00    +0.000 C 
ATOM      5  C   UNL     1       5.792   3.783  15.697  0.00  0.00    +0.000 C 
ATOM      6  C   UNL     1       5.762   4.875  14.648  0.00  0.00    +0.000 C 
ATOM      7  O   UNL     1       5.665   6.106  15.349  0.00  0.00    +0.000 OA
ATOM      8  C   UNL     1       4.981   5.870  16.583  0.00  0.00    +0.000 C 
ATOM      9  O   UNL     1       5.713   6.493  17.650  0.00  0.00    +0.000 OA
ATOM     10  O   UNL     1       4.877   6.383  18.847  0.00  0.00    +0.000 OA
ENDROOT
BRANCH   1  16
ATOM     11  C   UNL     1       2.365   5.366  19.959  0.00  0.00    +0.000 A 
ATOM     12  C   UNL     1       1.171   4.769  20.411  0.00  0.00    +0.000 A 
ATOM     13  C   UNL     1       1.106   3.424  20.755  0.00  0.00    +0.000 A 
ATOM     14  C   UNL     1       2.249   2.645  20.674  0.00  0.00    +0.000 A 
ATOM     15  C   UNL     1       3.450   3.215  20.231  0.00  0.00    +0.000 A 
ATOM     16  C   UNL     1       3.537   4.572  19.837  0.00  0.00    +0.000 A 
BRANCH  11  18
ATOM     17  C   UNL     1       1.559   7.594  20.812  0.00  0.00    +0.000 C 
ATOM     18  C   UNL     1       2.268   6.855  19.686  0.00  0.00    +0.000 C 
ENDBRANCH  11  18
ENDBRANCH   1  16
TORSDOF 2
ENDMDL
MODEL 8
REMARK VINA RESULT:      -6.7      1.920      5.091
REMARK  Name = 
REMARK  4 active torsions:
REMARK  status: ('A' for Active; 'I' for Inactive)
REMARK    1  A    between atoms: C_1  and  C_2
REMARK    2  A    between atoms: C_2  and  C_3
REMARK    3  A    between atoms: C_8  and  C_9
REMARK    4  A    between atoms: C_11  and  C_12
REMARK                            x       y       z     vdW  Elec       q    Type
REMARK                         _______ _______ _______ _____ _____    ______ ____
ROOT
ATOM      1  C   UNL     1       4.943   5.143  19.212  0.00  0.00    +0.000 C 
ATOM      2  C   UNL     1       5.646   4.255  18.138  0.00  0.00    +0.000 C 
ATOM      3  C   UNL     1       5.033   4.465  16.731  0.00  0.00    +0.000 C 
ATOM      4  C   UNL     1       3.686   3.712  16.627  0.00  0.00    +0.000 C 
ATOM      5  C   UNL     1       5.945   3.997  15.592  0.00  0.00    +0.000 C 
ATOM      6  C   UNL     1       5.792   5.078  14.542  0.00  0.00    +0.000 C 
ATOM      7  O   UNL     1       5.563   6.292  15.242  0.00  0.00    +0.000 OA
ATOM      8  C   UNL     1       4.913   5.984  16.478  0.00  0.00    +0.000 C 
ATOM      9  O   UNL     1       5.575   6.684  17.542  0.00  0.00    +0.000 OA
ATOM     10  O   UNL     1       4.760   6.485  18.742  0.00  0.00    +0.000 OA
ENDROOT
BRANCH   1  16
ATOM     11  C   UNL     1       3.393   3.184  20.089  0.00  0.00    +0.000 A 
ATOM     12  C   UNL     1       2.134   2.813  20.604  0.00  0.00    +0.000 A 
ATOM     13  C   UNL     1       1.106   3.734  20.768  0.00  0.00    +0.000 A 
ATOM     14  C   UNL     1       1.310   5.054  20.398  0.00  0.00    +0.000 A 
ATOM     15  C   UNL     1       2.551   5.448  19.880  0.00  0.00    +0.000 A 
ATOM     16  C   UNL     1       3.628   4.540  19.738  0.00  0.00    +0.000 A 
BRANCH  11  18
ATOM     17  C   UNL     1       3.923   1.056  18.851  0.00  0.00    +0.000 C 
ATOM     18  C   UNL     1       4.374   2.040  19.922  0.00  0.00    +0.000 C 
ENDBRANCH  11  18
ENDBRANCH   1  16
TORSDOF 2
ENDMDL
MODEL 9
REMARK VINA RESULT:      -6.7      1.831      2.201
REMARK  Name = 
REMARK  4 active torsions:
REMARK  status: ('A' for Active; 'I' for Inactive)
REMARK    1  A    between atoms: C_1  and  C_2
REMARK    2  A    between atoms: C_2  and  C_3
REMARK    3  A    between atoms: C_8  and  C_9
REMARK    4  A    between atoms: C_11  and  C_12
REMARK                            x       y       z     vdW  Elec       q    Type
REMARK                         _______ _______ _______ _____ _____    ______ ____
ROOT
ATOM      1  C   UNL     1       5.233   3.555  18.167  0.00  0.00    +0.000 C 
ATOM      2  C   UNL     1       4.524   3.503  19.557  0.00  0.00    +0.000 C 
ATOM      3  C   UNL     1       3.214   4.328  19.564  0.00  0.00    +0.000 C 
ATOM      4  C   UNL     1       3.542   5.836  19.668  0.00  0.00    +0.000 C 
ATOM      5  C   UNL     1       2.262   3.954  20.706  0.00  0.00    +0.000 C 
ATOM      6  C   UNL     1       0.895   3.966  20.053  0.00  0.00    +0.000 C 
ATOM      7  O   UNL     1       1.088   3.568  18.704  0.00  0.00    +0.000 OA
ATOM      8  C   UNL     1       2.404   3.959  18.302  0.00  0.00    +0.000 C 
ATOM      9  O   UNL     1       3.042   2.849  17.651  0.00  0.00    +0.000 OA
ATOM     10  O   UNL     1       4.299   3.359  17.097  0.00  0.00    +0.000 OA
ENDROOT
BRANCH   1  16
ATOM     11  C   UNL     1       6.026   5.710  16.849  0.00  0.00    +0.000 A 
ATOM     12  C   UNL     1       6.840   6.861  16.846  0.00  0.00    +0.000 A 
ATOM     13  C   UNL     1       7.705   7.153  17.895  0.00  0.00    +0.000 A 
ATOM     14  C   UNL     1       7.790   6.281  18.968  0.00  0.00    +0.000 A 
ATOM     15  C   UNL     1       6.994   5.128  18.994  0.00  0.00    +0.000 A 
ATOM     16  C   UNL     1       6.077   4.825  17.959  0.00  0.00    +0.000 A 
BRANCH  11  18
ATOM     17  C   UNL     1       5.960   4.792  14.506  0.00  0.00    +0.000 C 
ATOM     18  C   UNL     1       5.190   5.520  15.598  0.00  0.00    +0.000 C 
ENDBRANCH  11  18
ENDBRANCH   1  16
TORSDOF 2
ENDMDL
