MODEL 1
REMARK VINA RESULT:      -7.0      0.000      0.000
REMARK  Name = 
REMARK  3 active torsions:
REMARK  status: ('A' for Active; 'I' for Inactive)
REMARK    1  A    between atoms: C_1  and  C_2
REMARK    2  A    between atoms: C_2  and  N_3
REMARK    3  A    between atoms: N_12  and  O_13
REMARK                            x       y       z     vdW  Elec       q    Type
REMARK                         _______ _______ _______ _____ _____    ______ ____
ROOT
ATOM      1  N   UNL     1       1.213   4.006  20.272  0.00  0.00    +0.000 NA
ATOM      2  C   UNL     1       1.437   3.097  19.117  0.00  0.00    +0.000 C 
ATOM      3  C   UNL     1       1.481   3.776  17.762  0.00  0.00    +0.000 C 
ATOM      4  C   UNL     1       2.235   5.092  17.737  0.00  0.00    +0.000 C 
ATOM      5  C   UNL     1       3.710   5.221  17.533  0.00  0.00    +0.000 A 
ATOM      6  C   UNL     1       4.070   6.549  17.648  0.00  0.00    +0.000 A 
ATOM      7  N   UNL     1       5.282   6.996  17.222  0.00  0.00    +0.000 N 
ATOM      8  C   UNL     1       6.230   6.093  16.801  0.00  0.00    +0.000 A 
ATOM      9  O   UNL     1       7.308   6.496  16.405  0.00  0.00    +0.000 OA
ATOM     10  N   UNL     1       5.957   4.731  16.854  0.00  0.00    +0.000 N 
ATOM     11  C   UNL     1       4.698   4.283  17.203  0.00  0.00    +0.000 A 
ATOM     12  O   UNL     1       4.438   3.091  17.183  0.00  0.00    +0.000 OA
ATOM     13  S   UNL     1       2.826   7.545  18.486  0.00  0.00    +0.000 S 
ATOM     14  C   UNL     1       1.850   5.999  18.867  0.00  0.00    +0.000 C 
ATOM     15  C   UNL     1       2.083   5.234  20.215  0.00  0.00    +0.000 C 
ATOM     16  H   UNL     1       5.497   8.019  17.230  0.00  0.00    +0.000 HD
ENDROOT
BRANCH   1  18
ATOM     17  C   UNL     1       2.837   2.486  21.524  0.00  0.00    +0.000 C 
ATOM     18  C   UNL     1       1.460   3.210  21.511  0.00  0.00    +0.000 C 
ENDBRANCH   1  18
BRANCH  10  19
ATOM     19  O   UNL     1       6.912   3.837  16.562  0.00  0.00    +0.000 OA
ATOM     20  H   UNL     1       7.372   3.822  15.710  0.00  0.00    +0.000 HD
ENDBRANCH  10  19
TORSDOF 2
ENDMDL
MODEL 2
REMARK VINA RESULT:      -7.0      2.303      5.322
REMARK  Name = 
REMARK  3 active torsions:
REMARK  status: ('A' for Active; 'I' for Inactive)
REMARK    1  A    between atoms: C_1  and  C_2
REMARK    2  A    between atoms: C_2  and  N_3
REMARK    3  A    between atoms: N_12  and  O_13
REMARK                            x       y       z     vdW  Elec       q    Type
REMARK                         _______ _______ _______ _____ _____    ______ ____
ROOT
ATOM      1  N   UNL     1       6.802   5.567  15.816  0.00  0.00    +0.000 NA
ATOM      2  C   UNL     1       7.334   4.888  17.027  0.00  0.00    +0.000 C 
ATOM      3  C   UNL     1       7.005   5.568  18.343  0.00  0.00    +0.000 C 
ATOM      4  C   UNL     1       5.590   6.104  18.441  0.00  0.00    +0.000 C 
ATOM      5  C   UNL     1       4.407   5.305  18.884  0.00  0.00    +0.000 A 
ATOM      6  C   UNL     1       3.270   6.080  18.778  0.00  0.00    +0.000 A 
ATOM      7  N   UNL     1       2.105   5.718  19.383  0.00  0.00    +0.000 N 
ATOM      8  C   UNL     1       2.008   4.490  19.991  0.00  0.00    +0.000 A 
ATOM      9  O   UNL     1       0.971   4.175  20.546  0.00  0.00    +0.000 OA
ATOM     10  N   UNL     1       3.085   3.611  19.947  0.00  0.00    +0.000 N 
ATOM     11  C   UNL     1       4.293   4.011  19.411  0.00  0.00    +0.000 A 
ATOM     12  O   UNL     1       5.258   3.265  19.434  0.00  0.00    +0.000 OA
ATOM     13  S   UNL     1       3.489   7.509  17.705  0.00  0.00    +0.000 S 
ATOM     14  C   UNL     1       5.184   6.886  17.228  0.00  0.00    +0.000 C 
ATOM     15  C   UNL     1       5.358   5.969  15.969  0.00  0.00    +0.000 C 
ATOM     16  H   UNL     1       1.285   6.366  19.371  0.00  0.00    +0.000 HD
ENDROOT
BRANCH   1  18
ATOM     17  C   UNL     1       5.668   4.072  14.085  0.00  0.00    +0.000 C 
ATOM     18  C   UNL     1       6.997   4.631  14.668  0.00  0.00    +0.000 C 
ENDBRANCH   1  18
BRANCH  10  19
ATOM     19  O   UNL     1       2.963   2.367  20.430  0.00  0.00    +0.000 OA
ATOM     20  H   UNL     1       2.686   1.618  19.883  0.00  0.00    +0.000 HD
ENDBRANCH  10  19
TORSDOF 2
ENDMDL
MODEL 3
REMARK VINA RESULT:      -6.7      0.956      1.013
REMARK  Name = 
REMARK  3 active torsions:
REMARK  status: ('A' for Active; 'I' for Inactive)
REMARK    1  A    between atoms: C_1  and  C_2
REMARK    2  A    between atoms: C_2  and  N_3
REMARK    3  A    between atoms: N_12  and  O_13
REMARK                            x       y       z     vdW  Elec       q    Type
REMARK                         _______ _______ _______ _____ _____    ______ ____
ROOT
ATOM      1  N   UNL     1       1.867   3.148  19.466  0.00  0.00    +0.000 NA
ATOM      2  C   UNL     1       2.387   2.436  18.269  0.00  0.00    +0.000 C 
ATOM      3  C   UNL     1       2.454   3.268  17.003  0.00  0.00    +0.000 C 
ATOM      4  C   UNL     1       2.945   4.689  17.205  0.00  0.00    +0.000 C 
ATOM      5  C   UNL     1       4.382   5.098  17.211  0.00  0.00    +0.000 A 
ATOM      6  C   UNL     1       4.470   6.446  17.500  0.00  0.00    +0.000 A 
ATOM      7  N   UNL     1       5.616   7.145  17.283  0.00  0.00    +0.000 N 
ATOM      8  C   UNL     1       6.759   6.480  16.907  0.00  0.00    +0.000 A 
ATOM      9  O   UNL     1       7.779   7.109  16.697  0.00  0.00    +0.000 OA
ATOM     10  N   UNL     1       6.743   5.094  16.792  0.00  0.00    +0.000 N 
ATOM     11  C   UNL     1       5.560   4.394  16.926  0.00  0.00    +0.000 A 
ATOM     12  O   UNL     1       5.533   3.186  16.758  0.00  0.00    +0.000 OA
ATOM     13  S   UNL     1       2.974   7.102  18.258  0.00  0.00    +0.000 S 
ATOM     14  C   UNL     1       2.271   5.374  18.356  0.00  0.00    +0.000 C 
ATOM     15  C   UNL     1       2.491   4.508  19.643  0.00  0.00    +0.000 C 
ATOM     16  H   UNL     1       5.631   8.182  17.417  0.00  0.00    +0.000 HD
ENDROOT
BRANCH   1  18
ATOM     17  C   UNL     1       1.871   2.965  22.012  0.00  0.00    +0.000 C 
ATOM     18  C   UNL     1       2.120   2.266  20.645  0.00  0.00    +0.000 C 
ENDBRANCH   1  18
BRANCH  10  19
ATOM     19  O   UNL     1       7.876   4.423  16.544  0.00  0.00    +0.000 OA
ATOM     20  H   UNL     1       8.647   4.463  17.129  0.00  0.00    +0.000 HD
ENDBRANCH  10  19
TORSDOF 2
ENDMDL
MODEL 4
REMARK VINA RESULT:      -6.5      2.182      5.277
REMARK  Name = 
REMARK  3 active torsions:
REMARK  status: ('A' for Active; 'I' for Inactive)
REMARK    1  A    between atoms: C_1  and  C_2
REMARK    2  A    between atoms: C_2  and  N_3
REMARK    3  A    between atoms: N_12  and  O_13
REMARK                            x       y       z     vdW  Elec       q    Type
REMARK                         _______ _______ _______ _____ _____    ______ ____
ROOT
ATOM      1  N   UNL     1       6.633   5.634  16.499  0.00  0.00    +0.000 NA
ATOM      2  C   UNL     1       6.965   4.674  17.585  0.00  0.00    +0.000 C 
ATOM      3  C   UNL     1       6.267   4.931  18.907  0.00  0.00    +0.000 C 
ATOM      4  C   UNL     1       4.809   5.330  18.786  0.00  0.00    +0.000 C 
ATOM      5  C   UNL     1       3.670   4.367  18.696  0.00  0.00    +0.000 A 
ATOM      6  C   UNL     1       2.495   5.068  18.515  0.00  0.00    +0.000 A 
ATOM      7  N   UNL     1       1.281   4.480  18.695  0.00  0.00    +0.000 N 
ATOM      8  C   UNL     1       1.208   3.125  18.918  0.00  0.00    +0.000 A 
ATOM      9  O   UNL     1       0.123   2.603  19.095  0.00  0.00    +0.000 OA
ATOM     10  N   UNL     1       2.371   2.363  18.917  0.00  0.00    +0.000 N 
ATOM     11  C   UNL     1       3.607   2.972  18.822  0.00  0.00    +0.000 A 
ATOM     12  O   UNL     1       4.630   2.310  18.889  0.00  0.00    +0.000 OA
ATOM     13  S   UNL     1       2.762   6.754  17.941  0.00  0.00    +0.000 S 
ATOM     14  C   UNL     1       4.586   6.397  17.756  0.00  0.00    +0.000 C 
ATOM     15  C   UNL     1       5.152   5.887  16.387  0.00  0.00    +0.000 C 
ATOM     16  H   UNL     1       0.408   5.053  18.647  0.00  0.00    +0.000 HD
ENDROOT
BRANCH   1  18
ATOM     17  C   UNL     1       6.183   4.220  14.422  0.00  0.00    +0.000 C 
ATOM     18  C   UNL     1       7.197   5.076  15.234  0.00  0.00    +0.000 C 
ENDBRANCH   1  18
BRANCH  10  19
ATOM     19  O   UNL     1       2.305   1.028  19.013  0.00  0.00    +0.000 OA
ATOM     20  H   UNL     1       1.627   0.503  18.562  0.00  0.00    +0.000 HD
ENDBRANCH  10  19
TORSDOF 2
ENDMDL
MODEL 5
REMARK VINA RESULT:      -6.1      3.326      5.199
REMARK  Name = 
REMARK  3 active torsions:
REMARK  status: ('A' for Active; 'I' for Inactive)
REMARK    1  A    between atoms: C_1  and  C_2
REMARK    2  A    between atoms: C_2  and  N_3
REMARK    3  A    between atoms: N_12  and  O_13
REMARK                            x       y       z     vdW  Elec       q    Type
REMARK                         _______ _______ _______ _____ _____    ______ ____
ROOT
ATOM      1  N   UNL     1       6.101   4.297  17.809  0.00  0.00    +0.000 NA
ATOM      2  C   UNL     1       5.333   5.012  16.756  0.00  0.00    +0.000 C 
ATOM      3  C   UNL     1       3.834   4.780  16.782  0.00  0.00    +0.000 C 
ATOM      4  C   UNL     1       3.220   4.765  18.169  0.00  0.00    +0.000 C 
ATOM      5  C   UNL     1       2.758   5.980  18.905  0.00  0.00    +0.000 A 
ATOM      6  C   UNL     1       2.329   5.612  20.165  0.00  0.00    +0.000 A 
ATOM      7  N   UNL     1       1.588   6.453  20.937  0.00  0.00    +0.000 N 
ATOM      8  C   UNL     1       1.381   7.748  20.526  0.00  0.00    +0.000 A 
ATOM      9  O   UNL     1       0.704   8.494  21.210  0.00  0.00    +0.000 OA
ATOM     10  N   UNL     1       1.964   8.199  19.347  0.00  0.00    +0.000 N 
ATOM     11  C   UNL     1       2.641   7.323  18.521  0.00  0.00    +0.000 A 
ATOM     12  O   UNL     1       3.093   7.703  17.454  0.00  0.00    +0.000 OA
ATOM     13  S   UNL     1       2.931   3.992  20.669  0.00  0.00    +0.000 S 
ATOM     14  C   UNL     1       3.991   3.913  19.132  0.00  0.00    +0.000 C 
ATOM     15  C   UNL     1       5.471   4.428  19.171  0.00  0.00    +0.000 C 
ATOM     16  H   UNL     1       1.192   6.119  21.846  0.00  0.00    +0.000 HD
ENDROOT
BRANCH   1  18
ATOM     17  C   UNL     1       7.769   5.885  18.911  0.00  0.00    +0.000 C 
ATOM     18  C   UNL     1       7.490   4.846  17.787  0.00  0.00    +0.000 C 
ENDBRANCH   1  18
BRANCH  10  19
ATOM     19  O   UNL     1       1.870   9.489  18.996  0.00  0.00    +0.000 OA
ATOM     20  H   UNL     1       2.274   9.843  18.190  0.00  0.00    +0.000 HD
ENDBRANCH  10  19
TORSDOF 2
ENDMDL
MODEL 6
REMARK VINA RESULT:      -6.1      3.283      5.082
REMARK  Name = 
REMARK  3 active torsions:
REMARK  status: ('A' for Active; 'I' for Inactive)
REMARK    1  A    between atoms: C_1  and  C_2
REMARK    2  A    between atoms: C_2  and  N_3
REMARK    3  A    between atoms: N_12  and  O_13
REMARK                            x       y       z     vdW  Elec       q    Type
REMARK                         _______ _______ _______ _____ _____    ______ ____
ROOT
ATOM      1  N   UNL     1       6.180   4.513  18.133  0.00  0.00    +0.000 NA
ATOM      2  C   UNL     1       5.567   4.979  16.863  0.00  0.00    +0.000 C 
ATOM      3  C   UNL     1       4.060   4.826  16.782  0.00  0.00    +0.000 C 
ATOM      4  C   UNL     1       3.317   5.180  18.056  0.00  0.00    +0.000 C 
ATOM      5  C   UNL     1       2.872   6.558  18.424  0.00  0.00    +0.000 A 
ATOM      6  C   UNL     1       2.301   6.531  19.681  0.00  0.00    +0.000 A 
ATOM      7  N   UNL     1       1.551   7.567  20.143  0.00  0.00    +0.000 N 
ATOM      8  C   UNL     1       1.473   8.729  19.413  0.00  0.00    +0.000 A 
ATOM      9  O   UNL     1       0.787   9.649  19.819  0.00  0.00    +0.000 OA
ATOM     10  N   UNL     1       2.194   8.850  18.230  0.00  0.00    +0.000 N 
ATOM     11  C   UNL     1       2.884   7.769  17.718  0.00  0.00    +0.000 A 
ATOM     12  O   UNL     1       3.460   7.854  16.646  0.00  0.00    +0.000 OA
ATOM     13  S   UNL     1       2.741   5.060  20.622  0.00  0.00    +0.000 S 
ATOM     14  C   UNL     1       3.934   4.559  19.274  0.00  0.00    +0.000 C 
ATOM     15  C   UNL     1       5.435   5.003  19.348  0.00  0.00    +0.000 C 
ATOM     16  H   UNL     1       1.049   7.485  21.057  0.00  0.00    +0.000 HD
ENDROOT
BRANCH   1  18
ATOM     17  C   UNL     1       7.755   6.511  18.351  0.00  0.00    +0.000 C 
ATOM     18  C   UNL     1       7.600   4.979  18.131  0.00  0.00    +0.000 C 
ENDBRANCH   1  18
BRANCH  10  19
ATOM     19  O   UNL     1       2.223  10.016  17.571  0.00  0.00    +0.000 OA
ATOM     20  H   UNL     1       1.450  10.378  17.112  0.00  0.00    +0.000 HD
ENDBRANCH  10  19
TORSDOF 2
ENDMDL
MODEL 7
REMARK VINA RESULT:      -6.0      2.875      5.724
REMARK  Name = 
REMARK  3 active torsions:
REMARK  status: ('A' for Active; 'I' for Inactive)
REMARK    1  A    between atoms: C_1  and  C_2
REMARK    2  A    between atoms: C_2  and  N_3
REMARK    3  A    between atoms: N_12  and  O_13
REMARK                            x       y       z     vdW  Elec       q    Type
REMARK                         _______ _______ _______ _____ _____    ______ ____
ROOT
ATOM      1  N   UNL     1       6.935   6.268  17.364  0.00  0.00    +0.000 NA
ATOM      2  C   UNL     1       5.817   7.236  17.211  0.00  0.00    +0.000 C 
ATOM      3  C   UNL     1       4.551   6.665  16.601  0.00  0.00    +0.000 C 
ATOM      4  C   UNL     1       4.177   5.281  17.095  0.00  0.00    +0.000 C 
ATOM      5  C   UNL     1       3.370   5.006  18.322  0.00  0.00    +0.000 A 
ATOM      6  C   UNL     1       3.290   3.642  18.517  0.00  0.00    +0.000 A 
ATOM      7  N   UNL     1       2.383   3.099  19.374  0.00  0.00    +0.000 N 
ATOM      8  C   UNL     1       1.628   3.922  20.176  0.00  0.00    +0.000 A 
ATOM      9  O   UNL     1       0.805   3.436  20.930  0.00  0.00    +0.000 OA
ATOM     10  N   UNL     1       1.826   5.298  20.133  0.00  0.00    +0.000 N 
ATOM     11  C   UNL     1       2.682   5.853  19.202  0.00  0.00    +0.000 A 
ATOM     12  O   UNL     1       2.804   7.064  19.118  0.00  0.00    +0.000 OA
ATOM     13  S   UNL     1       4.545   2.725  17.608  0.00  0.00    +0.000 S 
ATOM     14  C   UNL     1       5.341   4.335  17.093  0.00  0.00    +0.000 C 
ATOM     15  C   UNL     1       6.486   4.959  17.961  0.00  0.00    +0.000 C 
ATOM     16  H   UNL     1       2.273   2.061  19.434  0.00  0.00    +0.000 HD
ENDROOT
BRANCH   1  18
ATOM     17  C   UNL     1       8.129   8.453  17.925  0.00  0.00    +0.000 C 
ATOM     18  C   UNL     1       7.977   6.931  18.204  0.00  0.00    +0.000 C 
ENDBRANCH   1  18
BRANCH  10  19
ATOM     19  O   UNL     1       1.184   6.101  20.992  0.00  0.00    +0.000 OA
ATOM     20  H   UNL     1       1.289   7.064  20.986  0.00  0.00    +0.000 HD
ENDBRANCH  10  19
TORSDOF 2
ENDMDL
MODEL 8
REMARK VINA RESULT:      -5.9      2.925      5.663
REMARK  Name = 
REMARK  3 active torsions:
REMARK  status: ('A' for Active; 'I' for Inactive)
REMARK    1  A    between atoms: C_1  and  C_2
REMARK    2  A    between atoms: C_2  and  N_3
REMARK    3  A    between atoms: N_12  and  O_13
REMARK                            x       y       z     vdW  Elec       q    Type
REMARK                         _______ _______ _______ _____ _____    ______ ____
ROOT
ATOM      1  N   UNL     1       7.195   7.424  17.109  0.00  0.00    +0.000 NA
ATOM      2  C   UNL     1       5.872   7.929  17.558  0.00  0.00    +0.000 C 
ATOM      3  C   UNL     1       4.678   7.347  16.826  0.00  0.00    +0.000 C 
ATOM      4  C   UNL     1       4.769   5.859  16.547  0.00  0.00    +0.000 C 
ATOM      5  C   UNL     1       4.346   4.789  17.501  0.00  0.00    +0.000 A 
ATOM      6  C   UNL     1       4.642   3.554  16.959  0.00  0.00    +0.000 A 
ATOM      7  N   UNL     1       4.107   2.410  17.465  0.00  0.00    +0.000 N 
ATOM      8  C   UNL     1       3.372   2.458  18.626  0.00  0.00    +0.000 A 
ATOM      9  O   UNL     1       2.880   1.436  19.068  0.00  0.00    +0.000 OA
ATOM     10  N   UNL     1       3.218   3.667  19.295  0.00  0.00    +0.000 N 
ATOM     11  C   UNL     1       3.686   4.841  18.737  0.00  0.00    +0.000 A 
ATOM     12  O   UNL     1       3.490   5.910  19.290  0.00  0.00    +0.000 OA
ATOM     13  S   UNL     1       5.848   3.642  15.625  0.00  0.00    +0.000 S 
ATOM     14  C   UNL     1       6.096   5.460  15.974  0.00  0.00    +0.000 C 
ATOM     15  C   UNL     1       7.220   5.924  16.962  0.00  0.00    +0.000 C 
ATOM     16  H   UNL     1       4.267   1.497  16.981  0.00  0.00    +0.000 HD
ENDROOT
BRANCH   1  18
ATOM     17  C   UNL     1       8.389   9.444  18.114  0.00  0.00    +0.000 C 
ATOM     18  C   UNL     1       8.206   7.899  18.100  0.00  0.00    +0.000 C 
ENDBRANCH   1  18
BRANCH  10  19
ATOM     19  O   UNL     1       2.608   3.708  20.488  0.00  0.00    +0.000 OA
ATOM     20  H   UNL     1       2.087   2.969  20.835  0.00  0.00    +0.000 HD
ENDBRANCH  10  19
TORSDOF 2
ENDMDL
MODEL 9
REMARK VINA RESULT:      -5.9      2.439      2.948
REMARK  Name = 
REMARK  3 active torsions:
REMARK  status: ('A' for Active; 'I' for Inactive)
REMARK    1  A    between atoms: C_1  and  C_2
REMARK    2  A    between atoms: C_2  and  N_3
REMARK    3  A    between atoms: N_12  and  O_13
REMARK                            x       y       z     vdW  Elec       q    Type
REMARK                         _______ _______ _______ _____ _____    ______ ____
ROOT
ATOM      1  N   UNL     1       3.920   3.726  19.586  0.00  0.00    +0.000 NA
ATOM      2  C   UNL     1       3.016   3.899  18.420  0.00  0.00    +0.000 C 
ATOM      3  C   UNL     1       3.160   5.218  17.683  0.00  0.00    +0.000 C 
ATOM      4  C   UNL     1       4.591   5.687  17.499  0.00  0.00    +0.000 C 
ATOM      5  C   UNL     1       5.478   5.282  16.367  0.00  0.00    +0.000 A 
ATOM      6  C   UNL     1       6.733   5.828  16.556  0.00  0.00    +0.000 A 
ATOM      7  N   UNL     1       7.646   5.873  15.548  0.00  0.00    +0.000 N 
ATOM      8  C   UNL     1       7.379   5.237  14.359  0.00  0.00    +0.000 A 
ATOM      9  O   UNL     1       8.190   5.293  13.453  0.00  0.00    +0.000 OA
ATOM     10  N   UNL     1       6.198   4.519  14.211  0.00  0.00    +0.000 N 
ATOM     11  C   UNL     1       5.234   4.545  15.200  0.00  0.00    +0.000 A 
ATOM     12  O   UNL     1       4.169   3.971  15.042  0.00  0.00    +0.000 OA
ATOM     13  S   UNL     1       7.023   6.355  18.253  0.00  0.00    +0.000 S 
ATOM     14  C   UNL     1       5.394   5.597  18.763  0.00  0.00    +0.000 C 
ATOM     15  C   UNL     1       5.342   4.118  19.277  0.00  0.00    +0.000 C 
ATOM     16  H   UNL     1       8.553   6.376  15.684  0.00  0.00    +0.000 HD
ENDROOT
BRANCH   1  18
ATOM     17  C   UNL     1       3.612   1.308  18.828  0.00  0.00    +0.000 C 
ATOM     18  C   UNL     1       3.820   2.298  20.010  0.00  0.00    +0.000 C 
ENDBRANCH   1  18
BRANCH  10  19
ATOM     19  O   UNL     1       5.980   3.795  13.104  0.00  0.00    +0.000 OA
ATOM     20  H   UNL     1       6.659   3.654  12.429  0.00  0.00    +0.000 HD
ENDBRANCH  10  19
TORSDOF 2
ENDMDL
