MODEL 1
REMARK VINA RESULT:      -7.8      0.000      0.000
REMARK  Name = 
REMARK  5 active torsions:
REMARK  status: ('A' for Active; 'I' for Inactive)
REMARK    1  A    between atoms: C_2  and  C_3
REMARK    2  A    between atoms: C_2  and  C_10
REMARK    3  A    between atoms: C_7  and  O_8
REMARK    4  A    between atoms: C_13  and  C_14
REMARK    5  A    between atoms: C_17  and  O_18
REMARK                            x       y       z     vdW  Elec       q    Type
REMARK                         _______ _______ _______ _____ _____    ______ ____
ROOT
ATOM      1  C   UNL     1       2.917   7.023  18.193  0.00  0.00    +0.000 A 
ATOM      2  C   UNL     1       2.606   8.170  17.491  0.00  0.00    +0.000 A 
ATOM      3  C   UNL     1       1.779   9.052  18.236  0.00  0.00    +0.000 A 
ATOM      4  C   UNL     1       1.505   8.591  19.511  0.00  0.00    +0.000 A 
ATOM      5  S   UNL     1       2.265   7.074  19.776  0.00  0.00    +0.000 S 
ENDROOT
BRANCH   4   6
ATOM      6  C   UNL     1       0.702   9.267  20.548  0.00  0.00    +0.000 A 
ATOM      7  C   UNL     1      -0.028  10.421  20.205  0.00  0.00    +0.000 A 
ATOM      8  C   UNL     1      -0.691  11.177  21.174  0.00  0.00    +0.000 A 
ATOM      9  C   UNL     1      -0.641  10.773  22.501  0.00  0.00    +0.000 A 
ATOM     10  C   UNL     1       0.036   9.616  22.864  0.00  0.00    +0.000 A 
ATOM     11  C   UNL     1       0.704   8.862  21.891  0.00  0.00    +0.000 A 
BRANCH   9  12
ATOM     12  O   UNL     1      -1.240  11.501  23.485  0.00  0.00    +0.000 OA
ATOM     13  H   UNL     1      -0.580  11.696  24.171  0.00  0.00    +0.000 HD
ENDBRANCH   9  12
ENDBRANCH   4   6
BRANCH   1  15
ATOM     14  O   UNL     1       4.710   6.147  16.945  0.00  0.00    +0.000 OA
ATOM     15  C   UNL     1       3.769   5.943  17.714  0.00  0.00    +0.000 C 
BRANCH  15  16
ATOM     16  C   UNL     1       3.503   4.527  18.088  0.00  0.00    +0.000 A 
ATOM     17  C   UNL     1       2.295   3.937  17.686  0.00  0.00    +0.000 A 
ATOM     18  C   UNL     1       2.012   2.612  18.029  0.00  0.00    +0.000 A 
ATOM     19  C   UNL     1       2.925   1.876  18.781  0.00  0.00    +0.000 A 
ATOM     20  C   UNL     1       4.104   2.478  19.209  0.00  0.00    +0.000 A 
ATOM     21  C   UNL     1       4.395   3.798  18.883  0.00  0.00    +0.000 A 
BRANCH  20  22
ATOM     22  O   UNL     1       5.017   1.805  19.964  0.00  0.00    +0.000 OA
ATOM     23  H   UNL     1       4.905   2.065  20.894  0.00  0.00    +0.000 HD
ENDBRANCH  20  22
ENDBRANCH  15  16
ENDBRANCH   1  15
TORSDOF 5
ENDMDL
MODEL 2
REMARK VINA RESULT:      -7.7      3.876      5.188
REMARK  Name = 
REMARK  5 active torsions:
REMARK  status: ('A' for Active; 'I' for Inactive)
REMARK    1  A    between atoms: C_2  and  C_3
REMARK    2  A    between atoms: C_2  and  C_10
REMARK    3  A    between atoms: C_7  and  O_8
REMARK    4  A    between atoms: C_13  and  C_14
REMARK    5  A    between atoms: C_17  and  O_18
REMARK                            x       y       z     vdW  Elec       q    Type
REMARK                         _______ _______ _______ _____ _____    ______ ____
ROOT
ATOM      1  C   UNL     1       5.592   5.015  16.778  0.00  0.00    +0.000 A 
ATOM      2  C   UNL     1       4.551   4.167  17.096  0.00  0.00    +0.000 A 
ATOM      3  C   UNL     1       3.471   4.847  17.718  0.00  0.00    +0.000 A 
ATOM      4  C   UNL     1       3.678   6.209  17.828  0.00  0.00    +0.000 A 
ATOM      5  S   UNL     1       5.204   6.638  17.168  0.00  0.00    +0.000 S 
ENDROOT
BRANCH   4   6
ATOM      6  C   UNL     1       2.754   7.208  18.399  0.00  0.00    +0.000 A 
ATOM      7  C   UNL     1       2.400   8.331  17.628  0.00  0.00    +0.000 A 
ATOM      8  C   UNL     1       1.642   9.373  18.167  0.00  0.00    +0.000 A 
ATOM      9  C   UNL     1       1.217   9.291  19.486  0.00  0.00    +0.000 A 
ATOM     10  C   UNL     1       1.516   8.176  20.258  0.00  0.00    +0.000 A 
ATOM     11  C   UNL     1       2.280   7.135  19.717  0.00  0.00    +0.000 A 
BRANCH   9  12
ATOM     12  O   UNL     1       0.509  10.301  20.066  0.00  0.00    +0.000 OA
ATOM     13  H   UNL     1       0.548  10.191  21.030  0.00  0.00    +0.000 HD
ENDBRANCH   9  12
ENDBRANCH   4   6
BRANCH   1  15
ATOM     14  O   UNL     1       7.869   4.424  16.728  0.00  0.00    +0.000 OA
ATOM     15  C   UNL     1       6.825   4.627  16.107  0.00  0.00    +0.000 C 
BRANCH  15  16
ATOM     16  C   UNL     1       6.895   4.514  14.625  0.00  0.00    +0.000 A 
ATOM     17  C   UNL     1       7.746   5.378  13.919  0.00  0.00    +0.000 A 
ATOM     18  C   UNL     1       7.827   5.302  12.526  0.00  0.00    +0.000 A 
ATOM     19  C   UNL     1       7.053   4.374  11.832  0.00  0.00    +0.000 A 
ATOM     20  C   UNL     1       6.183   3.546  12.533  0.00  0.00    +0.000 A 
ATOM     21  C   UNL     1       6.085   3.616  13.918  0.00  0.00    +0.000 A 
BRANCH  20  22
ATOM     22  O   UNL     1       5.391   2.639  11.896  0.00  0.00    +0.000 OA
ATOM     23  H   UNL     1       5.862   1.790  11.851  0.00  0.00    +0.000 HD
ENDBRANCH  20  22
ENDBRANCH  15  16
ENDBRANCH   1  15
TORSDOF 5
ENDMDL
MODEL 3
REMARK VINA RESULT:      -7.7      0.309      1.086
REMARK  Name = 
REMARK  5 active torsions:
REMARK  status: ('A' for Active; 'I' for Inactive)
REMARK    1  A    between atoms: C_2  and  C_3
REMARK    2  A    between atoms: C_2  and  C_10
REMARK    3  A    between atoms: C_7  and  O_8
REMARK    4  A    between atoms: C_13  and  C_14
REMARK    5  A    between atoms: C_17  and  O_18
REMARK                            x       y       z     vdW  Elec       q    Type
REMARK                         _______ _______ _______ _____ _____    ______ ____
ROOT
ATOM      1  C   UNL     1       2.795   7.203  18.268  0.00  0.00    +0.000 A 
ATOM      2  C   UNL     1       2.448   8.318  17.534  0.00  0.00    +0.000 A 
ATOM      3  C   UNL     1       1.648   9.227  18.277  0.00  0.00    +0.000 A 
ATOM      4  C   UNL     1       1.431   8.817  19.580  0.00  0.00    +0.000 A 
ATOM      5  S   UNL     1       2.210   7.316  19.874  0.00  0.00    +0.000 S 
ENDROOT
BRANCH   4   6
ATOM      6  C   UNL     1       0.668   9.532  20.622  0.00  0.00    +0.000 A 
ATOM      7  C   UNL     1       0.460   8.907  21.866  0.00  0.00    +0.000 A 
ATOM      8  C   UNL     1      -0.369   9.476  22.836  0.00  0.00    +0.000 A 
ATOM      9  C   UNL     1      -0.987  10.690  22.572  0.00  0.00    +0.000 A 
ATOM     10  C   UNL     1      -0.768  11.350  21.369  0.00  0.00    +0.000 A 
ATOM     11  C   UNL     1       0.060  10.775  20.397  0.00  0.00    +0.000 A 
BRANCH   9  12
ATOM     12  O   UNL     1      -1.835  11.263  23.472  0.00  0.00    +0.000 OA
ATOM     13  H   UNL     1      -1.310  11.608  24.213  0.00  0.00    +0.000 HD
ENDBRANCH   9  12
ENDBRANCH   4   6
BRANCH   1  15
ATOM     14  O   UNL     1       4.576   6.293  17.028  0.00  0.00    +0.000 OA
ATOM     15  C   UNL     1       3.632   6.107  17.797  0.00  0.00    +0.000 C 
BRANCH  15  16
ATOM     16  C   UNL     1       3.347   4.698  18.181  0.00  0.00    +0.000 A 
ATOM     17  C   UNL     1       2.086   4.157  17.882  0.00  0.00    +0.000 A 
ATOM     18  C   UNL     1       1.785   2.840  18.237  0.00  0.00    +0.000 A 
ATOM     19  C   UNL     1       2.732   2.062  18.901  0.00  0.00    +0.000 A 
ATOM     20  C   UNL     1       3.965   2.615  19.229  0.00  0.00    +0.000 A 
ATOM     21  C   UNL     1       4.277   3.928  18.889  0.00  0.00    +0.000 A 
BRANCH  20  22
ATOM     22  O   UNL     1       4.914   1.901  19.895  0.00  0.00    +0.000 OA
ATOM     23  H   UNL     1       5.460   1.425  19.247  0.00  0.00    +0.000 HD
ENDBRANCH  20  22
ENDBRANCH  15  16
ENDBRANCH   1  15
TORSDOF 5
ENDMDL
MODEL 4
REMARK VINA RESULT:      -7.7      1.896      2.693
REMARK  Name = 
REMARK  5 active torsions:
REMARK  status: ('A' for Active; 'I' for Inactive)
REMARK    1  A    between atoms: C_2  and  C_3
REMARK    2  A    between atoms: C_2  and  C_10
REMARK    3  A    between atoms: C_7  and  O_8
REMARK    4  A    between atoms: C_13  and  C_14
REMARK    5  A    between atoms: C_17  and  O_18
REMARK                            x       y       z     vdW  Elec       q    Type
REMARK                         _______ _______ _______ _____ _____    ______ ____
ROOT
ATOM      1  C   UNL     1       2.811   6.569  18.327  0.00  0.00    +0.000 A 
ATOM      2  C   UNL     1       2.707   7.730  17.588  0.00  0.00    +0.000 A 
ATOM      3  C   UNL     1       2.043   8.765  18.299  0.00  0.00    +0.000 A 
ATOM      4  C   UNL     1       1.689   8.399  19.585  0.00  0.00    +0.000 A 
ATOM      5  S   UNL     1       2.173   6.783  19.902  0.00  0.00    +0.000 S 
ENDROOT
BRANCH   4   6
ATOM      6  C   UNL     1       1.013   9.237  20.594  0.00  0.00    +0.000 A 
ATOM      7  C   UNL     1       0.909   8.765  21.916  0.00  0.00    +0.000 A 
ATOM      8  C   UNL     1       0.161   9.450  22.876  0.00  0.00    +0.000 A 
ATOM      9  C   UNL     1      -0.481  10.628  22.522  0.00  0.00    +0.000 A 
ATOM     10  C   UNL     1      -0.363  11.140  21.235  0.00  0.00    +0.000 A 
ATOM     11  C   UNL     1       0.383  10.448  20.273  0.00  0.00    +0.000 A 
BRANCH   9  12
ATOM     12  O   UNL     1      -1.254  11.309  23.414  0.00  0.00    +0.000 OA
ATOM     13  H   UNL     1      -0.925  11.126  24.310  0.00  0.00    +0.000 HD
ENDBRANCH   9  12
ENDBRANCH   4   6
BRANCH   1  15
ATOM     14  O   UNL     1       2.820   4.362  17.509  0.00  0.00    +0.000 OA
ATOM     15  C   UNL     1       3.463   5.342  17.888  0.00  0.00    +0.000 C 
BRANCH  15  16
ATOM     16  C   UNL     1       4.943   5.197  17.933  0.00  0.00    +0.000 A 
ATOM     17  C   UNL     1       5.615   4.754  16.783  0.00  0.00    +0.000 A 
ATOM     18  C   UNL     1       7.003   4.599  16.796  0.00  0.00    +0.000 A 
ATOM     19  C   UNL     1       7.725   4.872  17.956  0.00  0.00    +0.000 A 
ATOM     20  C   UNL     1       7.051   5.274  19.104  0.00  0.00    +0.000 A 
ATOM     21  C   UNL     1       5.668   5.424  19.109  0.00  0.00    +0.000 A 
BRANCH  20  22
ATOM     22  O   UNL     1       7.711   5.532  20.267  0.00  0.00    +0.000 OA
ATOM     23  H   UNL     1       7.526   6.448  20.535  0.00  0.00    +0.000 HD
ENDBRANCH  20  22
ENDBRANCH  15  16
ENDBRANCH   1  15
TORSDOF 5
ENDMDL
MODEL 5
REMARK VINA RESULT:      -7.6      3.897      5.276
REMARK  Name = 
REMARK  5 active torsions:
REMARK  status: ('A' for Active; 'I' for Inactive)
REMARK    1  A    between atoms: C_2  and  C_3
REMARK    2  A    between atoms: C_2  and  C_10
REMARK    3  A    between atoms: C_7  and  O_8
REMARK    4  A    between atoms: C_13  and  C_14
REMARK    5  A    between atoms: C_17  and  O_18
REMARK                            x       y       z     vdW  Elec       q    Type
REMARK                         _______ _______ _______ _____ _____    ______ ____
ROOT
ATOM      1  C   UNL     1       5.579   5.074  16.729  0.00  0.00    +0.000 A 
ATOM      2  C   UNL     1       4.467   4.298  16.980  0.00  0.00    +0.000 A 
ATOM      3  C   UNL     1       3.424   5.034  17.604  0.00  0.00    +0.000 A 
ATOM      4  C   UNL     1       3.734   6.370  17.780  0.00  0.00    +0.000 A 
ATOM      5  S   UNL     1       5.309   6.703  17.180  0.00  0.00    +0.000 S 
ENDROOT
BRANCH   4   6
ATOM      6  C   UNL     1       2.874   7.414  18.370  0.00  0.00    +0.000 A 
ATOM      7  C   UNL     1       2.390   7.241  19.680  0.00  0.00    +0.000 A 
ATOM      8  C   UNL     1       1.463   8.126  20.235  0.00  0.00    +0.000 A 
ATOM      9  C   UNL     1       1.022   9.206  19.484  0.00  0.00    +0.000 A 
ATOM     10  C   UNL     1       1.513   9.425  18.203  0.00  0.00    +0.000 A 
ATOM     11  C   UNL     1       2.438   8.534  17.647  0.00  0.00    +0.000 A 
BRANCH   9  12
ATOM     12  O   UNL     1       0.089  10.073  19.970  0.00  0.00    +0.000 OA
ATOM     13  H   UNL     1      -0.366  10.489  19.220  0.00  0.00    +0.000 HD
ENDBRANCH   9  12
ENDBRANCH   4   6
BRANCH   1  15
ATOM     14  O   UNL     1       7.820   4.353  16.710  0.00  0.00    +0.000 OA
ATOM     15  C   UNL     1       6.798   4.617  16.074  0.00  0.00    +0.000 C 
BRANCH  15  16
ATOM     16  C   UNL     1       6.883   4.505  14.593  0.00  0.00    +0.000 A 
ATOM     17  C   UNL     1       7.727   5.383  13.895  0.00  0.00    +0.000 A 
ATOM     18  C   UNL     1       7.822   5.308  12.503  0.00  0.00    +0.000 A 
ATOM     19  C   UNL     1       7.070   4.369  11.802  0.00  0.00    +0.000 A 
ATOM     20  C   UNL     1       6.206   3.527  12.494  0.00  0.00    +0.000 A 
ATOM     21  C   UNL     1       6.094   3.595  13.879  0.00  0.00    +0.000 A 
BRANCH  20  22
ATOM     22  O   UNL     1       5.435   2.607  11.850  0.00  0.00    +0.000 OA
ATOM     23  H   UNL     1       4.608   2.489  12.348  0.00  0.00    +0.000 HD
ENDBRANCH  20  22
ENDBRANCH  15  16
ENDBRANCH   1  15
TORSDOF 5
ENDMDL
MODEL 6
REMARK VINA RESULT:      -7.6      4.580      6.356
REMARK  Name = 
REMARK  5 active torsions:
REMARK  status: ('A' for Active; 'I' for Inactive)
REMARK    1  A    between atoms: C_2  and  C_3
REMARK    2  A    between atoms: C_2  and  C_10
REMARK    3  A    between atoms: C_7  and  O_8
REMARK    4  A    between atoms: C_13  and  C_14
REMARK    5  A    between atoms: C_17  and  O_18
REMARK                            x       y       z     vdW  Elec       q    Type
REMARK                         _______ _______ _______ _____ _____    ______ ____
ROOT
ATOM      1  C   UNL     1       5.615   5.389  16.639  0.00  0.00    +0.000 A 
ATOM      2  C   UNL     1       4.552   6.267  16.689  0.00  0.00    +0.000 A 
ATOM      3  C   UNL     1       3.547   5.846  17.600  0.00  0.00    +0.000 A 
ATOM      4  C   UNL     1       3.872   4.679  18.266  0.00  0.00    +0.000 A 
ATOM      5  S   UNL     1       5.411   4.109  17.759  0.00  0.00    +0.000 S 
ENDROOT
BRANCH   4   6
ATOM      6  C   UNL     1       3.068   3.984  19.289  0.00  0.00    +0.000 A 
ATOM      7  C   UNL     1       1.723   4.358  19.473  0.00  0.00    +0.000 A 
ATOM      8  C   UNL     1       0.959   3.833  20.517  0.00  0.00    +0.000 A 
ATOM      9  C   UNL     1       1.533   2.913  21.382  0.00  0.00    +0.000 A 
ATOM     10  C   UNL     1       2.845   2.494  21.201  0.00  0.00    +0.000 A 
ATOM     11  C   UNL     1       3.611   3.025  20.157  0.00  0.00    +0.000 A 
BRANCH   9  12
ATOM     12  O   UNL     1       0.838   2.403  22.438  0.00  0.00    +0.000 OA
ATOM     13  H   UNL     1       0.935   1.437  22.435  0.00  0.00    +0.000 HD
ENDBRANCH   9  12
ENDBRANCH   4   6
BRANCH   1  15
ATOM     14  O   UNL     1       7.785   6.200  16.223  0.00  0.00    +0.000 OA
ATOM     15  C   UNL     1       6.813   5.556  15.826  0.00  0.00    +0.000 C 
BRANCH  15  16
ATOM     16  C   UNL     1       6.893   5.001  14.448  0.00  0.00    +0.000 A 
ATOM     17  C   UNL     1       7.761   5.605  13.525  0.00  0.00    +0.000 A 
ATOM     18  C   UNL     1       7.852   5.112  12.220  0.00  0.00    +0.000 A 
ATOM     19  C   UNL     1       7.073   4.026  11.828  0.00  0.00    +0.000 A 
ATOM     20  C   UNL     1       6.187   3.455  12.735  0.00  0.00    +0.000 A 
ATOM     21  C   UNL     1       6.078   3.940  14.035  0.00  0.00    +0.000 A 
BRANCH  20  22
ATOM     22  O   UNL     1       5.389   2.406  12.392  0.00  0.00    +0.000 OA
ATOM     23  H   UNL     1       5.886   1.815  11.802  0.00  0.00    +0.000 HD
ENDBRANCH  20  22
ENDBRANCH  15  16
ENDBRANCH   1  15
TORSDOF 5
ENDMDL
MODEL 7
REMARK VINA RESULT:      -7.6      1.942      2.523
REMARK  Name = 
REMARK  5 active torsions:
REMARK  status: ('A' for Active; 'I' for Inactive)
REMARK    1  A    between atoms: C_2  and  C_3
REMARK    2  A    between atoms: C_2  and  C_10
REMARK    3  A    between atoms: C_7  and  O_8
REMARK    4  A    between atoms: C_13  and  C_14
REMARK    5  A    between atoms: C_17  and  O_18
REMARK                            x       y       z     vdW  Elec       q    Type
REMARK                         _______ _______ _______ _____ _____    ______ ____
ROOT
ATOM      1  C   UNL     1       2.876   6.499  18.355  0.00  0.00    +0.000 A 
ATOM      2  C   UNL     1       2.882   7.697  17.670  0.00  0.00    +0.000 A 
ATOM      3  C   UNL     1       2.157   8.712  18.351  0.00  0.00    +0.000 A 
ATOM      4  C   UNL     1       1.646   8.292  19.565  0.00  0.00    +0.000 A 
ATOM      5  S   UNL     1       2.059   6.650  19.853  0.00  0.00    +0.000 S 
ENDROOT
BRANCH   4   6
ATOM      6  C   UNL     1       0.870   9.095  20.529  0.00  0.00    +0.000 A 
ATOM      7  C   UNL     1       0.419  10.373  20.149  0.00  0.00    +0.000 A 
ATOM      8  C   UNL     1      -0.197  11.228  21.065  0.00  0.00    +0.000 A 
ATOM      9  C   UNL     1      -0.382  10.803  22.373  0.00  0.00    +0.000 A 
ATOM     10  C   UNL     1       0.016   9.531  22.767  0.00  0.00    +0.000 A 
ATOM     11  C   UNL     1       0.638   8.677  21.848  0.00  0.00    +0.000 A 
BRANCH   9  12
ATOM     12  O   UNL     1      -0.943  11.618  23.310  0.00  0.00    +0.000 OA
ATOM     13  H   UNL     1      -1.895  11.429  23.354  0.00  0.00    +0.000 HD
ENDBRANCH   9  12
ENDBRANCH   4   6
BRANCH   1  15
ATOM     14  O   UNL     1       2.931   4.286  17.557  0.00  0.00    +0.000 OA
ATOM     15  C   UNL     1       3.553   5.280  17.933  0.00  0.00    +0.000 C 
BRANCH  15  16
ATOM     16  C   UNL     1       5.035   5.161  17.992  0.00  0.00    +0.000 A 
ATOM     17  C   UNL     1       5.725   4.726  16.849  0.00  0.00    +0.000 A 
ATOM     18  C   UNL     1       7.116   4.595  16.876  0.00  0.00    +0.000 A 
ATOM     19  C   UNL     1       7.822   4.886  18.041  0.00  0.00    +0.000 A 
ATOM     20  C   UNL     1       7.130   5.280  19.181  0.00  0.00    +0.000 A 
ATOM     21  C   UNL     1       5.745   5.406  19.173  0.00  0.00    +0.000 A 
BRANCH  20  22
ATOM     22  O   UNL     1       7.775   5.554  20.349  0.00  0.00    +0.000 OA
ATOM     23  H   UNL     1       8.371   6.309  20.208  0.00  0.00    +0.000 HD
ENDBRANCH  20  22
ENDBRANCH  15  16
ENDBRANCH   1  15
TORSDOF 5
ENDMDL
MODEL 8
REMARK VINA RESULT:      -7.4      4.546      6.561
REMARK  Name = 
REMARK  5 active torsions:
REMARK  status: ('A' for Active; 'I' for Inactive)
REMARK    1  A    between atoms: C_2  and  C_3
REMARK    2  A    between atoms: C_2  and  C_10
REMARK    3  A    between atoms: C_7  and  O_8
REMARK    4  A    between atoms: C_13  and  C_14
REMARK    5  A    between atoms: C_17  and  O_18
REMARK                            x       y       z     vdW  Elec       q    Type
REMARK                         _______ _______ _______ _____ _____    ______ ____
ROOT
ATOM      1  C   UNL     1       5.666   5.106  15.547  0.00  0.00    +0.000 A 
ATOM      2  C   UNL     1       5.167   6.317  15.978  0.00  0.00    +0.000 A 
ATOM      3  C   UNL     1       4.396   6.192  17.165  0.00  0.00    +0.000 A 
ATOM      4  C   UNL     1       4.353   4.898  17.649  0.00  0.00    +0.000 A 
ATOM      5  S   UNL     1       5.257   3.848  16.636  0.00  0.00    +0.000 S 
ENDROOT
BRANCH   4   6
ATOM      6  C   UNL     1       3.665   4.426  18.867  0.00  0.00    +0.000 A 
ATOM      7  C   UNL     1       4.089   3.226  19.470  0.00  0.00    +0.000 A 
ATOM      8  C   UNL     1       3.388   2.663  20.538  0.00  0.00    +0.000 A 
ATOM      9  C   UNL     1       2.259   3.307  21.024  0.00  0.00    +0.000 A 
ATOM     10  C   UNL     1       1.841   4.513  20.476  0.00  0.00    +0.000 A 
ATOM     11  C   UNL     1       2.543   5.074  19.402  0.00  0.00    +0.000 A 
BRANCH   9  12
ATOM     12  O   UNL     1       1.522   2.774  22.039  0.00  0.00    +0.000 OA
ATOM     13  H   UNL     1       0.583   2.815  21.793  0.00  0.00    +0.000 HD
ENDBRANCH   9  12
ENDBRANCH   4   6
BRANCH   1  15
ATOM     14  O   UNL     1       7.591   5.496  14.250  0.00  0.00    +0.000 OA
ATOM     15  C   UNL     1       6.516   4.908  14.380  0.00  0.00    +0.000 C 
BRANCH  15  16
ATOM     16  C   UNL     1       6.094   4.025  13.259  0.00  0.00    +0.000 A 
ATOM     17  C   UNL     1       4.761   4.075  12.824  0.00  0.00    +0.000 A 
ATOM     18  C   UNL     1       4.332   3.252  11.779  0.00  0.00    +0.000 A 
ATOM     19  C   UNL     1       5.225   2.371  11.173  0.00  0.00    +0.000 A 
ATOM     20  C   UNL     1       6.535   2.299  11.633  0.00  0.00    +0.000 A 
ATOM     21  C   UNL     1       6.975   3.105  12.678  0.00  0.00    +0.000 A 
BRANCH  20  22
ATOM     22  O   UNL     1       7.439   1.438  11.086  0.00  0.00    +0.000 OA
ATOM     23  H   UNL     1       7.068   0.540  11.109  0.00  0.00    +0.000 HD
ENDBRANCH  20  22
ENDBRANCH  15  16
ENDBRANCH   1  15
TORSDOF 5
ENDMDL
MODEL 9
REMARK VINA RESULT:      -7.4      1.408      1.810
REMARK  Name = 
REMARK  5 active torsions:
REMARK  status: ('A' for Active; 'I' for Inactive)
REMARK    1  A    between atoms: C_2  and  C_3
REMARK    2  A    between atoms: C_2  and  C_10
REMARK    3  A    between atoms: C_7  and  O_8
REMARK    4  A    between atoms: C_13  and  C_14
REMARK    5  A    between atoms: C_17  and  O_18
REMARK                            x       y       z     vdW  Elec       q    Type
REMARK                         _______ _______ _______ _____ _____    ______ ____
ROOT
ATOM      1  C   UNL     1       2.249   7.415  18.959  0.00  0.00    +0.000 A 
ATOM      2  C   UNL     1       2.039   8.462  18.085  0.00  0.00    +0.000 A 
ATOM      3  C   UNL     1       1.299   9.519  18.677  0.00  0.00    +0.000 A 
ATOM      4  C   UNL     1       0.991   9.288  20.006  0.00  0.00    +0.000 A 
ATOM      5  S   UNL     1       1.613   7.769  20.509  0.00  0.00    +0.000 S 
ENDROOT
BRANCH   4   6
ATOM      6  C   UNL     1       0.257  10.186  20.918  0.00  0.00    +0.000 A 
ATOM      7  C   UNL     1      -0.085   9.724  22.203  0.00  0.00    +0.000 A 
ATOM      8  C   UNL     1      -0.897  10.478  23.054  0.00  0.00    +0.000 A 
ATOM      9  C   UNL     1      -1.363  11.714  22.629  0.00  0.00    +0.000 A 
ATOM     10  C   UNL     1      -1.008  12.214  21.382  0.00  0.00    +0.000 A 
ATOM     11  C   UNL     1      -0.198  11.454  20.529  0.00  0.00    +0.000 A 
BRANCH   9  12
ATOM     12  O   UNL     1      -2.188  12.466  23.410  0.00  0.00    +0.000 OA
ATOM     13  H   UNL     1      -1.804  13.354  23.500  0.00  0.00    +0.000 HD
ENDBRANCH   9  12
ENDBRANCH   4   6
BRANCH   1  15
ATOM     14  O   UNL     1       4.035   6.222  17.997  0.00  0.00    +0.000 OA
ATOM     15  C   UNL     1       2.998   6.201  18.661  0.00  0.00    +0.000 C 
BRANCH  15  16
ATOM     16  C   UNL     1       2.509   4.866  19.099  0.00  0.00    +0.000 A 
ATOM     17  C   UNL     1       1.660   4.143  18.246  0.00  0.00    +0.000 A 
ATOM     18  C   UNL     1       1.177   2.890  18.632  0.00  0.00    +0.000 A 
ATOM     19  C   UNL     1       1.528   2.358  19.871  0.00  0.00    +0.000 A 
ATOM     20  C   UNL     1       2.338   3.095  20.728  0.00  0.00    +0.000 A 
ATOM     21  C   UNL     1       2.820   4.348  20.362  0.00  0.00    +0.000 A 
BRANCH  20  22
ATOM     22  O   UNL     1       2.690   2.627  21.958  0.00  0.00    +0.000 OA
ATOM     23  H   UNL     1       2.823   3.383  22.554  0.00  0.00    +0.000 HD
ENDBRANCH  20  22
ENDBRANCH  15  16
ENDBRANCH   1  15
TORSDOF 5
ENDMDL
