MODEL 1
REMARK VINA RESULT:      -6.8      0.000      0.000
REMARK  Name = 
REMARK  12 active torsions:
REMARK  status: ('A' for Active; 'I' for Inactive)
REMARK    1  A    between atoms: C_1  and  C_2
REMARK    2  A    between atoms: C_2  and  C_3
REMARK    3  A    between atoms: C_3  and  C_4
REMARK    4  A    between atoms: C_3  and  N_5
REMARK    5  A    between atoms: N_5  and  C_6
REMARK    6  A    between atoms: C_6  and  C_7
REMARK    7  A    between atoms: C_7  and  O_8
REMARK    8  A    between atoms: O_8  and  C_9
REMARK    9  A    between atoms: C_9  and  C_10
REMARK   10  A    between atoms: C_10  and  O_11
REMARK   11  A    between atoms: O_11  and  C_12
REMARK   12  A    between atoms: C_17  and  C_18
REMARK                            x       y       z     vdW  Elec       q    Type
REMARK                         _______ _______ _______ _____ _____    ______ ____
ROOT
ATOM      1  O   UNL     1       3.072   6.353  19.790  0.00  0.00    +0.000 OA
ENDROOT
BRANCH   1   2
ATOM      2  C   UNL     1       2.939   5.293  18.926  0.00  0.00    +0.000 A 
ATOM      3  C   UNL     1       1.719   4.604  18.809  0.00  0.00    +0.000 A 
ATOM      4  C   UNL     1       1.595   3.496  17.977  0.00  0.00    +0.000 A 
ATOM      5  C   UNL     1       2.679   3.093  17.215  0.00  0.00    +0.000 A 
ATOM      6  C   UNL     1       3.873   3.818  17.267  0.00  0.00    +0.000 A 
ATOM      7  C   UNL     1       4.047   4.934  18.119  0.00  0.00    +0.000 A 
BRANCH   7   8
ATOM      8  C   UNL     1       5.365   5.638  18.132  0.00  0.00    +0.000 A 
ATOM      9  C   UNL     1       5.696   6.648  17.211  0.00  0.00    +0.000 A 
ATOM     10  C   UNL     1       6.941   7.291  17.241  0.00  0.00    +0.000 A 
ATOM     11  C   UNL     1       7.899   6.927  18.183  0.00  0.00    +0.000 A 
ATOM     12  C   UNL     1       7.611   5.917  19.093  0.00  0.00    +0.000 A 
ATOM     13  C   UNL     1       6.361   5.290  19.070  0.00  0.00    +0.000 A 
ENDBRANCH   7   8
ENDBRANCH   1   2
BRANCH   1  14
ATOM     14  C   UNL     1       2.151   7.435  19.602  0.00  0.00    +0.000 C 
BRANCH  14  15
ATOM     15  C   UNL     1       2.509   8.178  18.314  0.00  0.00    +0.000 C 
BRANCH  15  16
ATOM     16  O   UNL     1       1.384   8.801  17.691  0.00  0.00    +0.000 OA
BRANCH  16  17
ATOM     17  C   UNL     1       1.172  10.161  18.068  0.00  0.00    +0.000 C 
BRANCH  17  18
ATOM     18  C   UNL     1      -0.304  10.308  18.435  0.00  0.00    +0.000 C 
BRANCH  18  19
ATOM     19  N   UNL     1      -0.876  11.547  17.904  0.00  0.00    +0.000 NA
ATOM     20  H   UNL     1      -0.913  12.246  18.648  0.00  0.00    +0.000 HD
BRANCH  19  21
ATOM     21  C   UNL     1      -2.231  11.358  17.362  0.00  0.00    +0.000 C 
ATOM     22  C   UNL     1      -3.314  11.490  18.437  0.00  0.00    +0.000 C 
BRANCH  21  24
ATOM     23  C   UNL     1      -2.836  10.050  15.216  0.00  0.00    +0.000 C 
ATOM     24  C   UNL     1      -2.306   9.995  16.644  0.00  0.00    +0.000 C 
ENDBRANCH  21  24
ENDBRANCH  19  21
ENDBRANCH  18  19
ENDBRANCH  17  18
ENDBRANCH  16  17
ENDBRANCH  15  16
ENDBRANCH  14  15
ENDBRANCH   1  14
TORSDOF 10
ENDMDL
MODEL 2
REMARK VINA RESULT:      -6.7      3.856      7.251
REMARK  Name = 
REMARK  12 active torsions:
REMARK  status: ('A' for Active; 'I' for Inactive)
REMARK    1  A    between atoms: C_1  and  C_2
REMARK    2  A    between atoms: C_2  and  C_3
REMARK    3  A    between atoms: C_3  and  C_4
REMARK    4  A    between atoms: C_3  and  N_5
REMARK    5  A    between atoms: N_5  and  C_6
REMARK    6  A    between atoms: C_6  and  C_7
REMARK    7  A    between atoms: C_7  and  O_8
REMARK    8  A    between atoms: O_8  and  C_9
REMARK    9  A    between atoms: C_9  and  C_10
REMARK   10  A    between atoms: C_10  and  O_11
REMARK   11  A    between atoms: O_11  and  C_12
REMARK   12  A    between atoms: C_17  and  C_18
REMARK                            x       y       z     vdW  Elec       q    Type
REMARK                         _______ _______ _______ _____ _____    ______ ____
ROOT
ATOM      1  O   UNL     1       5.076   5.268  19.251  0.00  0.00    +0.000 OA
ENDROOT
BRANCH   1   2
ATOM      2  C   UNL     1       4.086   4.423  18.814  0.00  0.00    +0.000 A 
ATOM      3  C   UNL     1       4.344   3.057  18.599  0.00  0.00    +0.000 A 
ATOM      4  C   UNL     1       3.359   2.209  18.105  0.00  0.00    +0.000 A 
ATOM      5  C   UNL     1       2.089   2.706  17.864  0.00  0.00    +0.000 A 
ATOM      6  C   UNL     1       1.804   4.045  18.146  0.00  0.00    +0.000 A 
ATOM      7  C   UNL     1       2.783   4.947  18.625  0.00  0.00    +0.000 A 
BRANCH   7   8
ATOM      8  C   UNL     1       2.399   6.368  18.878  0.00  0.00    +0.000 A 
ATOM      9  C   UNL     1       2.430   7.354  17.876  0.00  0.00    +0.000 A 
ATOM     10  C   UNL     1       2.068   8.682  18.138  0.00  0.00    +0.000 A 
ATOM     11  C   UNL     1       1.683   9.066  19.419  0.00  0.00    +0.000 A 
ATOM     12  C   UNL     1       1.662   8.121  20.438  0.00  0.00    +0.000 A 
ATOM     13  C   UNL     1       2.008   6.793  20.166  0.00  0.00    +0.000 A 
ENDBRANCH   7   8
ENDBRANCH   1   2
BRANCH   1  14
ATOM     14  C   UNL     1       6.208   5.411  18.385  0.00  0.00    +0.000 C 
BRANCH  14  15
ATOM     15  C   UNL     1       5.795   6.213  17.151  0.00  0.00    +0.000 C 
BRANCH  15  16
ATOM     16  O   UNL     1       6.458   5.793  15.956  0.00  0.00    +0.000 OA
BRANCH  16  17
ATOM     17  C   UNL     1       6.534   4.379  15.782  0.00  0.00    +0.000 C 
BRANCH  17  18
ATOM     18  C   UNL     1       6.725   4.113  14.290  0.00  0.00    +0.000 C 
BRANCH  18  19
ATOM     19  N   UNL     1       5.466   3.745  13.638  0.00  0.00    +0.000 NA
ATOM     20  H   UNL     1       5.165   2.831  13.980  0.00  0.00    +0.000 HD
BRANCH  19  21
ATOM     21  C   UNL     1       5.583   3.690  12.172  0.00  0.00    +0.000 C 
ATOM     22  C   UNL     1       4.291   3.211  11.501  0.00  0.00    +0.000 C 
BRANCH  21  24
ATOM     23  C   UNL     1       6.416   1.469  11.145  0.00  0.00    +0.000 C 
ATOM     24  C   UNL     1       6.783   2.800  11.791  0.00  0.00    +0.000 C 
ENDBRANCH  21  24
ENDBRANCH  19  21
ENDBRANCH  18  19
ENDBRANCH  17  18
ENDBRANCH  16  17
ENDBRANCH  15  16
ENDBRANCH  14  15
ENDBRANCH   1  14
TORSDOF 10
ENDMDL
MODEL 3
REMARK VINA RESULT:      -6.7      1.552      2.274
REMARK  Name = 
REMARK  12 active torsions:
REMARK  status: ('A' for Active; 'I' for Inactive)
REMARK    1  A    between atoms: C_1  and  C_2
REMARK    2  A    between atoms: C_2  and  C_3
REMARK    3  A    between atoms: C_3  and  C_4
REMARK    4  A    between atoms: C_3  and  N_5
REMARK    5  A    between atoms: N_5  and  C_6
REMARK    6  A    between atoms: C_6  and  C_7
REMARK    7  A    between atoms: C_7  and  O_8
REMARK    8  A    between atoms: O_8  and  C_9
REMARK    9  A    between atoms: C_9  and  C_10
REMARK   10  A    between atoms: C_10  and  O_11
REMARK   11  A    between atoms: O_11  and  C_12
REMARK   12  A    between atoms: C_17  and  C_18
REMARK                            x       y       z     vdW  Elec       q    Type
REMARK                         _______ _______ _______ _____ _____    ______ ____
ROOT
ATOM      1  O   UNL     1       2.726   6.123  18.456  0.00  0.00    +0.000 OA
ENDROOT
BRANCH   1   2
ATOM      2  C   UNL     1       2.724   5.012  19.264  0.00  0.00    +0.000 A 
ATOM      3  C   UNL     1       1.687   4.791  20.188  0.00  0.00    +0.000 A 
ATOM      4  C   UNL     1       1.710   3.697  21.046  0.00  0.00    +0.000 A 
ATOM      5  C   UNL     1       2.746   2.782  20.957  0.00  0.00    +0.000 A 
ATOM      6  C   UNL     1       3.741   2.953  19.990  0.00  0.00    +0.000 A 
ATOM      7  C   UNL     1       3.769   4.066  19.116  0.00  0.00    +0.000 A 
BRANCH   7   8
ATOM      8  C   UNL     1       4.882   4.184  18.128  0.00  0.00    +0.000 A 
ATOM      9  C   UNL     1       6.149   4.694  18.466  0.00  0.00    +0.000 A 
ATOM     10  C   UNL     1       7.177   4.798  17.520  0.00  0.00    +0.000 A 
ATOM     11  C   UNL     1       6.960   4.413  16.200  0.00  0.00    +0.000 A 
ATOM     12  C   UNL     1       5.714   3.924  15.828  0.00  0.00    +0.000 A 
ATOM     13  C   UNL     1       4.696   3.807  16.781  0.00  0.00    +0.000 A 
ENDBRANCH   7   8
ENDBRANCH   1   2
BRANCH   1  14
ATOM     14  C   UNL     1       2.384   7.361  19.090  0.00  0.00    +0.000 C 
BRANCH  14  15
ATOM     15  C   UNL     1       2.442   8.485  18.055  0.00  0.00    +0.000 C 
BRANCH  15  16
ATOM     16  O   UNL     1       1.168   9.073  17.787  0.00  0.00    +0.000 OA
BRANCH  16  17
ATOM     17  C   UNL     1       0.830  10.175  18.628  0.00  0.00    +0.000 C 
BRANCH  17  18
ATOM     18  C   UNL     1      -0.692  10.316  18.606  0.00  0.00    +0.000 C 
BRANCH  18  19
ATOM     19  N   UNL     1      -1.177  10.764  17.299  0.00  0.00    +0.000 NA
ATOM     20  H   UNL     1      -1.144  11.784  17.260  0.00  0.00    +0.000 HD
BRANCH  19  21
ATOM     21  C   UNL     1      -2.553  10.322  17.024  0.00  0.00    +0.000 C 
ATOM     22  C   UNL     1      -2.830  10.173  15.525  0.00  0.00    +0.000 C 
BRANCH  21  24
ATOM     23  C   UNL     1      -4.814  11.568  16.891  0.00  0.00    +0.000 C 
ATOM     24  C   UNL     1      -3.543  11.300  17.689  0.00  0.00    +0.000 C 
ENDBRANCH  21  24
ENDBRANCH  19  21
ENDBRANCH  18  19
ENDBRANCH  17  18
ENDBRANCH  16  17
ENDBRANCH  15  16
ENDBRANCH  14  15
ENDBRANCH   1  14
TORSDOF 10
ENDMDL
MODEL 4
REMARK VINA RESULT:      -6.6      1.470      2.093
REMARK  Name = 
REMARK  12 active torsions:
REMARK  status: ('A' for Active; 'I' for Inactive)
REMARK    1  A    between atoms: C_1  and  C_2
REMARK    2  A    between atoms: C_2  and  C_3
REMARK    3  A    between atoms: C_3  and  C_4
REMARK    4  A    between atoms: C_3  and  N_5
REMARK    5  A    between atoms: N_5  and  C_6
REMARK    6  A    between atoms: C_6  and  C_7
REMARK    7  A    between atoms: C_7  and  O_8
REMARK    8  A    between atoms: O_8  and  C_9
REMARK    9  A    between atoms: C_9  and  C_10
REMARK   10  A    between atoms: C_10  and  O_11
REMARK   11  A    between atoms: O_11  and  C_12
REMARK   12  A    between atoms: C_17  and  C_18
REMARK                            x       y       z     vdW  Elec       q    Type
REMARK                         _______ _______ _______ _____ _____    ______ ____
ROOT
ATOM      1  O   UNL     1       3.043   6.415  19.194  0.00  0.00    +0.000 OA
ENDROOT
BRANCH   1   2
ATOM      2  C   UNL     1       2.717   5.144  19.600  0.00  0.00    +0.000 A 
ATOM      3  C   UNL     1       1.611   4.915  20.439  0.00  0.00    +0.000 A 
ATOM      4  C   UNL     1       1.309   3.637  20.897  0.00  0.00    +0.000 A 
ATOM      5  C   UNL     1       2.082   2.564  20.482  0.00  0.00    +0.000 A 
ATOM      6  C   UNL     1       3.136   2.773  19.589  0.00  0.00    +0.000 A 
ATOM      7  C   UNL     1       3.492   4.060  19.120  0.00  0.00    +0.000 A 
BRANCH   7   8
ATOM      8  C   UNL     1       4.649   4.197  18.185  0.00  0.00    +0.000 A 
ATOM      9  C   UNL     1       5.918   4.634  18.605  0.00  0.00    +0.000 A 
ATOM     10  C   UNL     1       6.987   4.758  17.708  0.00  0.00    +0.000 A 
ATOM     11  C   UNL     1       6.811   4.466  16.358  0.00  0.00    +0.000 A 
ATOM     12  C   UNL     1       5.564   4.051  15.907  0.00  0.00    +0.000 A 
ATOM     13  C   UNL     1       4.504   3.913  16.810  0.00  0.00    +0.000 A 
ENDBRANCH   7   8
ENDBRANCH   1   2
BRANCH   1  14
ATOM     14  C   UNL     1       2.211   6.982  18.176  0.00  0.00    +0.000 C 
BRANCH  14  15
ATOM     15  C   UNL     1       2.422   8.496  18.143  0.00  0.00    +0.000 C 
BRANCH  15  16
ATOM     16  O   UNL     1       1.230   9.227  17.853  0.00  0.00    +0.000 OA
BRANCH  16  17
ATOM     17  C   UNL     1       0.821  10.133  18.877  0.00  0.00    +0.000 C 
BRANCH  17  18
ATOM     18  C   UNL     1      -0.605  10.575  18.551  0.00  0.00    +0.000 C 
BRANCH  18  19
ATOM     19  N   UNL     1      -1.034  10.103  17.233  0.00  0.00    +0.000 NA
ATOM     20  H   UNL     1      -0.376  10.436  16.527  0.00  0.00    +0.000 HD
BRANCH  19  21
ATOM     21  C   UNL     1      -2.386  10.563  16.879  0.00  0.00    +0.000 C 
ATOM     22  C   UNL     1      -3.480   9.790  17.623  0.00  0.00    +0.000 C 
BRANCH  21  24
ATOM     23  C   UNL     1      -3.974  10.103  14.892  0.00  0.00    +0.000 C 
ATOM     24  C   UNL     1      -2.568  10.474  15.350  0.00  0.00    +0.000 C 
ENDBRANCH  21  24
ENDBRANCH  19  21
ENDBRANCH  18  19
ENDBRANCH  17  18
ENDBRANCH  16  17
ENDBRANCH  15  16
ENDBRANCH  14  15
ENDBRANCH   1  14
TORSDOF 10
ENDMDL
MODEL 5
REMARK VINA RESULT:      -6.6      1.734      3.705
REMARK  Name = 
REMARK  12 active torsions:
REMARK  status: ('A' for Active; 'I' for Inactive)
REMARK    1  A    between atoms: C_1  and  C_2
REMARK    2  A    between atoms: C_2  and  C_3
REMARK    3  A    between atoms: C_3  and  C_4
REMARK    4  A    between atoms: C_3  and  N_5
REMARK    5  A    between atoms: N_5  and  C_6
REMARK    6  A    between atoms: C_6  and  C_7
REMARK    7  A    between atoms: C_7  and  O_8
REMARK    8  A    between atoms: O_8  and  C_9
REMARK    9  A    between atoms: C_9  and  C_10
REMARK   10  A    between atoms: C_10  and  O_11
REMARK   11  A    between atoms: O_11  and  C_12
REMARK   12  A    between atoms: C_17  and  C_18
REMARK                            x       y       z     vdW  Elec       q    Type
REMARK                         _______ _______ _______ _____ _____    ______ ____
ROOT
ATOM      1  O   UNL     1       3.281   7.211  18.261  0.00  0.00    +0.000 OA
ENDROOT
BRANCH   1   2
ATOM      2  C   UNL     1       3.924   6.307  17.451  0.00  0.00    +0.000 A 
ATOM      3  C   UNL     1       4.829   6.736  16.464  0.00  0.00    +0.000 A 
ATOM      4  C   UNL     1       5.440   5.828  15.605  0.00  0.00    +0.000 A 
ATOM      5  C   UNL     1       5.189   4.474  15.755  0.00  0.00    +0.000 A 
ATOM      6  C   UNL     1       4.350   4.033  16.782  0.00  0.00    +0.000 A 
ATOM      7  C   UNL     1       3.689   4.925  17.659  0.00  0.00    +0.000 A 
BRANCH   7   8
ATOM      8  C   UNL     1       2.789   4.370  18.715  0.00  0.00    +0.000 A 
ATOM      9  C   UNL     1       1.535   3.804  18.425  0.00  0.00    +0.000 A 
ATOM     10  C   UNL     1       0.707   3.293  19.433  0.00  0.00    +0.000 A 
ATOM     11  C   UNL     1       1.103   3.353  20.766  0.00  0.00    +0.000 A 
ATOM     12  C   UNL     1       2.327   3.926  21.089  0.00  0.00    +0.000 A 
ATOM     13  C   UNL     1       3.158   4.419  20.076  0.00  0.00    +0.000 A 
ENDBRANCH   7   8
ENDBRANCH   1   2
BRANCH   1  14
ATOM     14  C   UNL     1       2.093   7.804  17.723  0.00  0.00    +0.000 C 
BRANCH  14  15
ATOM     15  C   UNL     1       1.702   9.008  18.581  0.00  0.00    +0.000 C 
BRANCH  15  16
ATOM     16  O   UNL     1       0.875   9.947  17.892  0.00  0.00    +0.000 OA
BRANCH  16  17
ATOM     17  C   UNL     1      -0.398  10.175  18.495  0.00  0.00    +0.000 C 
BRANCH  17  18
ATOM     18  C   UNL     1      -0.773  11.633  18.232  0.00  0.00    +0.000 C 
BRANCH  18  19
ATOM     19  N   UNL     1      -1.637  11.769  17.058  0.00  0.00    +0.000 NA
ATOM     20  H   UNL     1      -2.023  12.715  17.033  0.00  0.00    +0.000 HD
BRANCH  19  21
ATOM     21  C   UNL     1      -2.746  10.803  17.055  0.00  0.00    +0.000 C 
ATOM     22  C   UNL     1      -2.762   9.937  15.791  0.00  0.00    +0.000 C 
BRANCH  21  24
ATOM     23  C   UNL     1      -5.120  10.818  18.076  0.00  0.00    +0.000 C 
ATOM     24  C   UNL     1      -4.077  11.556  17.244  0.00  0.00    +0.000 C 
ENDBRANCH  21  24
ENDBRANCH  19  21
ENDBRANCH  18  19
ENDBRANCH  17  18
ENDBRANCH  16  17
ENDBRANCH  15  16
ENDBRANCH  14  15
ENDBRANCH   1  14
TORSDOF 10
ENDMDL
MODEL 6
REMARK VINA RESULT:      -6.5      2.699      4.676
REMARK  Name = 
REMARK  12 active torsions:
REMARK  status: ('A' for Active; 'I' for Inactive)
REMARK    1  A    between atoms: C_1  and  C_2
REMARK    2  A    between atoms: C_2  and  C_3
REMARK    3  A    between atoms: C_3  and  C_4
REMARK    4  A    between atoms: C_3  and  N_5
REMARK    5  A    between atoms: N_5  and  C_6
REMARK    6  A    between atoms: C_6  and  C_7
REMARK    7  A    between atoms: C_7  and  O_8
REMARK    8  A    between atoms: O_8  and  C_9
REMARK    9  A    between atoms: C_9  and  C_10
REMARK   10  A    between atoms: C_10  and  O_11
REMARK   11  A    between atoms: O_11  and  C_12
REMARK   12  A    between atoms: C_17  and  C_18
REMARK                            x       y       z     vdW  Elec       q    Type
REMARK                         _______ _______ _______ _____ _____    ______ ____
ROOT
ATOM      1  O   UNL     1       2.961   7.196  18.548  0.00  0.00    +0.000 OA
ENDROOT
BRANCH   1   2
ATOM      2  C   UNL     1       3.695   6.377  17.725  0.00  0.00    +0.000 A 
ATOM      3  C   UNL     1       4.587   6.914  16.780  0.00  0.00    +0.000 A 
ATOM      4  C   UNL     1       5.291   6.091  15.907  0.00  0.00    +0.000 A 
ATOM      5  C   UNL     1       5.148   4.717  16.003  0.00  0.00    +0.000 A 
ATOM      6  C   UNL     1       4.323   4.172  16.990  0.00  0.00    +0.000 A 
ATOM      7  C   UNL     1       3.570   4.974  17.879  0.00  0.00    +0.000 A 
BRANCH   7   8
ATOM      8  C   UNL     1       2.692   4.310  18.889  0.00  0.00    +0.000 A 
ATOM      9  C   UNL     1       2.856   4.489  20.274  0.00  0.00    +0.000 A 
ATOM     10  C   UNL     1       2.022   3.852  21.203  0.00  0.00    +0.000 A 
ATOM     11  C   UNL     1       1.010   2.999  20.771  0.00  0.00    +0.000 A 
ATOM     12  C   UNL     1       0.835   2.783  19.409  0.00  0.00    +0.000 A 
ATOM     13  C   UNL     1       1.660   3.435  18.486  0.00  0.00    +0.000 A 
ENDBRANCH   7   8
ENDBRANCH   1   2
BRANCH   1  14
ATOM     14  C   UNL     1       2.259   8.266  17.906  0.00  0.00    +0.000 C 
BRANCH  14  15
ATOM     15  C   UNL     1       1.465   9.045  18.955  0.00  0.00    +0.000 C 
BRANCH  15  16
ATOM     16  O   UNL     1       1.816   8.703  20.298  0.00  0.00    +0.000 OA
BRANCH  16  17
ATOM     17  C   UNL     1       0.708   8.399  21.145  0.00  0.00    +0.000 C 
BRANCH  17  18
ATOM     18  C   UNL     1       0.845   9.261  22.399  0.00  0.00    +0.000 C 
BRANCH  18  19
ATOM     19  N   UNL     1       0.665  10.684  22.105  0.00  0.00    +0.000 NA
ATOM     20  H   UNL     1       1.021  11.236  22.887  0.00  0.00    +0.000 HD
BRANCH  19  21
ATOM     21  C   UNL     1      -0.743  11.041  21.872  0.00  0.00    +0.000 C 
ATOM     22  C   UNL     1      -0.973  11.634  20.479  0.00  0.00    +0.000 C 
BRANCH  21  24
ATOM     23  C   UNL     1      -2.725  12.090  23.158  0.00  0.00    +0.000 C 
ATOM     24  C   UNL     1      -1.213  12.002  22.983  0.00  0.00    +0.000 C 
ENDBRANCH  21  24
ENDBRANCH  19  21
ENDBRANCH  18  19
ENDBRANCH  17  18
ENDBRANCH  16  17
ENDBRANCH  15  16
ENDBRANCH  14  15
ENDBRANCH   1  14
TORSDOF 10
ENDMDL
MODEL 7
REMARK VINA RESULT:      -6.5      4.121      7.748
REMARK  Name = 
REMARK  12 active torsions:
REMARK  status: ('A' for Active; 'I' for Inactive)
REMARK    1  A    between atoms: C_1  and  C_2
REMARK    2  A    between atoms: C_2  and  C_3
REMARK    3  A    between atoms: C_3  and  C_4
REMARK    4  A    between atoms: C_3  and  N_5
REMARK    5  A    between atoms: N_5  and  C_6
REMARK    6  A    between atoms: C_6  and  C_7
REMARK    7  A    between atoms: C_7  and  O_8
REMARK    8  A    between atoms: O_8  and  C_9
REMARK    9  A    between atoms: C_9  and  C_10
REMARK   10  A    between atoms: C_10  and  O_11
REMARK   11  A    between atoms: O_11  and  C_12
REMARK   12  A    between atoms: C_17  and  C_18
REMARK                            x       y       z     vdW  Elec       q    Type
REMARK                         _______ _______ _______ _____ _____    ______ ____
ROOT
ATOM      1  O   UNL     1       4.899   5.342  18.388  0.00  0.00    +0.000 OA
ENDROOT
BRANCH   1   2
ATOM      2  C   UNL     1       3.930   6.302  18.230  0.00  0.00    +0.000 A 
ATOM      3  C   UNL     1       4.192   7.483  17.512  0.00  0.00    +0.000 A 
ATOM      4  C   UNL     1       3.232   8.482  17.396  0.00  0.00    +0.000 A 
ATOM      5  C   UNL     1       1.980   8.292  17.956  0.00  0.00    +0.000 A 
ATOM      6  C   UNL     1       1.686   7.090  18.606  0.00  0.00    +0.000 A 
ATOM      7  C   UNL     1       2.642   6.060  18.768  0.00  0.00    +0.000 A 
BRANCH   7   8
ATOM      8  C   UNL     1       2.251   4.816  19.497  0.00  0.00    +0.000 A 
ATOM      9  C   UNL     1       2.440   4.655  20.882  0.00  0.00    +0.000 A 
ATOM     10  C   UNL     1       2.069   3.477  21.543  0.00  0.00    +0.000 A 
ATOM     11  C   UNL     1       1.514   2.416  20.833  0.00  0.00    +0.000 A 
ATOM     12  C   UNL     1       1.333   2.535  19.460  0.00  0.00    +0.000 A 
ATOM     13  C   UNL     1       1.691   3.720  18.807  0.00  0.00    +0.000 A 
ENDBRANCH   7   8
ENDBRANCH   1   2
BRANCH   1  14
ATOM     14  C   UNL     1       6.216   5.701  17.955  0.00  0.00    +0.000 C 
BRANCH  14  15
ATOM     15  C   UNL     1       6.977   4.434  17.564  0.00  0.00    +0.000 C 
BRANCH  15  16
ATOM     16  O   UNL     1       7.493   4.473  16.232  0.00  0.00    +0.000 OA
BRANCH  16  17
ATOM     17  C   UNL     1       6.600   5.018  15.262  0.00  0.00    +0.000 C 
BRANCH  17  18
ATOM     18  C   UNL     1       5.959   3.844  14.522  0.00  0.00    +0.000 C 
BRANCH  18  19
ATOM     19  N   UNL     1       6.587   3.615  13.219  0.00  0.00    +0.000 NA
ATOM     20  H   UNL     1       6.782   4.515  12.777  0.00  0.00    +0.000 HD
BRANCH  19  21
ATOM     21  C   UNL     1       5.743   2.815  12.317  0.00  0.00    +0.000 C 
ATOM     22  C   UNL     1       6.559   2.091  11.242  0.00  0.00    +0.000 C 
BRANCH  21  24
ATOM     23  C   UNL     1       3.633   2.998  10.835  0.00  0.00    +0.000 C 
ATOM     24  C   UNL     1       4.663   3.723  11.694  0.00  0.00    +0.000 C 
ENDBRANCH  21  24
ENDBRANCH  19  21
ENDBRANCH  18  19
ENDBRANCH  17  18
ENDBRANCH  16  17
ENDBRANCH  15  16
ENDBRANCH  14  15
ENDBRANCH   1  14
TORSDOF 10
ENDMDL
MODEL 8
REMARK VINA RESULT:      -6.5      1.597      2.179
REMARK  Name = 
REMARK  12 active torsions:
REMARK  status: ('A' for Active; 'I' for Inactive)
REMARK    1  A    between atoms: C_1  and  C_2
REMARK    2  A    between atoms: C_2  and  C_3
REMARK    3  A    between atoms: C_3  and  C_4
REMARK    4  A    between atoms: C_3  and  N_5
REMARK    5  A    between atoms: N_5  and  C_6
REMARK    6  A    between atoms: C_6  and  C_7
REMARK    7  A    between atoms: C_7  and  O_8
REMARK    8  A    between atoms: O_8  and  C_9
REMARK    9  A    between atoms: C_9  and  C_10
REMARK   10  A    between atoms: C_10  and  O_11
REMARK   11  A    between atoms: O_11  and  C_12
REMARK   12  A    between atoms: C_17  and  C_18
REMARK                            x       y       z     vdW  Elec       q    Type
REMARK                         _______ _______ _______ _____ _____    ______ ____
ROOT
ATOM      1  O   UNL     1       2.136   5.677  18.521  0.00  0.00    +0.000 OA
ENDROOT
BRANCH   1   2
ATOM      2  C   UNL     1       2.257   4.620  19.391  0.00  0.00    +0.000 A 
ATOM      3  C   UNL     1       1.217   4.291  20.278  0.00  0.00    +0.000 A 
ATOM      4  C   UNL     1       1.357   3.257  21.198  0.00  0.00    +0.000 A 
ATOM      5  C   UNL     1       2.522   2.508  21.209  0.00  0.00    +0.000 A 
ATOM      6  C   UNL     1       3.530   2.780  20.280  0.00  0.00    +0.000 A 
ATOM      7  C   UNL     1       3.438   3.838  19.345  0.00  0.00    +0.000 A 
BRANCH   7   8
ATOM      8  C   UNL     1       4.573   4.075  18.403  0.00  0.00    +0.000 A 
ATOM      9  C   UNL     1       5.776   4.684  18.800  0.00  0.00    +0.000 A 
ATOM     10  C   UNL     1       6.826   4.899  17.897  0.00  0.00    +0.000 A 
ATOM     11  C   UNL     1       6.692   4.527  16.562  0.00  0.00    +0.000 A 
ATOM     12  C   UNL     1       5.507   3.941  16.132  0.00  0.00    +0.000 A 
ATOM     13  C   UNL     1       4.469   3.714  17.043  0.00  0.00    +0.000 A 
ENDBRANCH   7   8
ENDBRANCH   1   2
BRANCH   1  14
ATOM     14  C   UNL     1       2.498   6.962  19.039  0.00  0.00    +0.000 C 
BRANCH  14  15
ATOM     15  C   UNL     1       2.953   7.856  17.885  0.00  0.00    +0.000 C 
BRANCH  15  16
ATOM     16  O   UNL     1       2.341   9.147  17.896  0.00  0.00    +0.000 OA
BRANCH  16  17
ATOM     17  C   UNL     1       1.326   9.319  18.884  0.00  0.00    +0.000 C 
BRANCH  17  18
ATOM     18  C   UNL     1       0.365  10.389  18.370  0.00  0.00    +0.000 C 
BRANCH  18  19
ATOM     19  N   UNL     1      -0.981  10.222  18.920  0.00  0.00    +0.000 NA
ATOM     20  H   UNL     1      -1.197   9.225  18.983  0.00  0.00    +0.000 HD
BRANCH  19  21
ATOM     21  C   UNL     1      -2.013  10.880  18.104  0.00  0.00    +0.000 C 
ATOM     22  C   UNL     1      -2.882  11.839  18.923  0.00  0.00    +0.000 C 
BRANCH  21  24
ATOM     23  C   UNL     1      -2.855   9.877  15.875  0.00  0.00    +0.000 C 
ATOM     24  C   UNL     1      -2.864   9.805  17.398  0.00  0.00    +0.000 C 
ENDBRANCH  21  24
ENDBRANCH  19  21
ENDBRANCH  18  19
ENDBRANCH  17  18
ENDBRANCH  16  17
ENDBRANCH  15  16
ENDBRANCH  14  15
ENDBRANCH   1  14
TORSDOF 10
ENDMDL
MODEL 9
REMARK VINA RESULT:      -6.5      1.752      3.670
REMARK  Name = 
REMARK  12 active torsions:
REMARK  status: ('A' for Active; 'I' for Inactive)
REMARK    1  A    between atoms: C_1  and  C_2
REMARK    2  A    between atoms: C_2  and  C_3
REMARK    3  A    between atoms: C_3  and  C_4
REMARK    4  A    between atoms: C_3  and  N_5
REMARK    5  A    between atoms: N_5  and  C_6
REMARK    6  A    between atoms: C_6  and  C_7
REMARK    7  A    between atoms: C_7  and  O_8
REMARK    8  A    between atoms: O_8  and  C_9
REMARK    9  A    between atoms: C_9  and  C_10
REMARK   10  A    between atoms: C_10  and  O_11
REMARK   11  A    between atoms: O_11  and  C_12
REMARK   12  A    between atoms: C_17  and  C_18
REMARK                            x       y       z     vdW  Elec       q    Type
REMARK                         _______ _______ _______ _____ _____    ______ ____
ROOT
ATOM      1  O   UNL     1       2.852   6.840  18.203  0.00  0.00    +0.000 OA
ENDROOT
BRANCH   1   2
ATOM      2  C   UNL     1       3.735   6.069  17.487  0.00  0.00    +0.000 A 
ATOM      3  C   UNL     1       4.616   6.652  16.559  0.00  0.00    +0.000 A 
ATOM      4  C   UNL     1       5.474   5.869  15.793  0.00  0.00    +0.000 A 
ATOM      5  C   UNL     1       5.495   4.497  15.981  0.00  0.00    +0.000 A 
ATOM      6  C   UNL     1       4.678   3.918  16.956  0.00  0.00    +0.000 A 
ATOM      7  C   UNL     1       3.773   4.675  17.737  0.00  0.00    +0.000 A 
BRANCH   7   8
ATOM      8  C   UNL     1       2.917   3.972  18.740  0.00  0.00    +0.000 A 
ATOM      9  C   UNL     1       3.317   3.772  20.073  0.00  0.00    +0.000 A 
ATOM     10  C   UNL     1       2.498   3.107  20.995  0.00  0.00    +0.000 A 
ATOM     11  C   UNL     1       1.260   2.604  20.602  0.00  0.00    +0.000 A 
ATOM     12  C   UNL     1       0.845   2.766  19.286  0.00  0.00    +0.000 A 
ATOM     13  C   UNL     1       1.660   3.446  18.374  0.00  0.00    +0.000 A 
ENDBRANCH   7   8
ENDBRANCH   1   2
BRANCH   1  14
ATOM     14  C   UNL     1       2.776   8.220  17.827  0.00  0.00    +0.000 C 
BRANCH  14  15
ATOM     15  C   UNL     1       1.711   8.913  18.679  0.00  0.00    +0.000 C 
BRANCH  15  16
ATOM     16  O   UNL     1       0.696   9.553  17.903  0.00  0.00    +0.000 OA
BRANCH  16  17
ATOM     17  C   UNL     1       0.307  10.842  18.377  0.00  0.00    +0.000 C 
BRANCH  17  18
ATOM     18  C   UNL     1      -0.911  10.648  19.278  0.00  0.00    +0.000 C 
BRANCH  18  19
ATOM     19  N   UNL     1      -2.015   9.999  18.569  0.00  0.00    +0.000 NA
ATOM     20  H   UNL     1      -1.712   9.077  18.248  0.00  0.00    +0.000 HD
BRANCH  19  21
ATOM     21  C   UNL     1      -2.479  10.776  17.409  0.00  0.00    +0.000 C 
ATOM     22  C   UNL     1      -3.776  11.538  17.698  0.00  0.00    +0.000 C 
BRANCH  21  24
ATOM     23  C   UNL     1      -3.095  10.517  14.912  0.00  0.00    +0.000 C 
ATOM     24  C   UNL     1      -2.631   9.837  16.196  0.00  0.00    +0.000 C 
ENDBRANCH  21  24
ENDBRANCH  19  21
ENDBRANCH  18  19
ENDBRANCH  17  18
ENDBRANCH  16  17
ENDBRANCH  15  16
ENDBRANCH  14  15
ENDBRANCH   1  14
TORSDOF 10
ENDMDL
