MODEL 1
REMARK VINA RESULT:      -8.0      0.000      0.000
REMARK  Name = 
REMARK  8 active torsions:
REMARK  status: ('A' for Active; 'I' for Inactive)
REMARK    1  A    between atoms: C_2  and  C_3
REMARK    2  A    between atoms: C_6  and  C_7
REMARK    3  A    between atoms: C_7  and  C_15
REMARK    4  A    between atoms: C_8  and  C_9
REMARK    5  A    between atoms: C_9  and  CA_10
REMARK    6  A    between atoms: CA_10  and  N_11
REMARK    7  A    between atoms: CA_10  and  C_12
REMARK    8  A    between atoms: C_12  and  OXT_14
REMARK                            x       y       z     vdW  Elec       q    Type
REMARK                         _______ _______ _______ _____ _____    ______ ____
ROOT
ATOM      1  C   UNL     1       2.645   5.980  18.392  0.00  0.00    +0.000 C 
ATOM      2  C   UNL     1       1.926   7.123  18.377  0.00  0.00    +0.000 C 
ENDROOT
BRANCH   1   3
ATOM      3  C   UNL     1       2.210   4.953  19.368  0.00  0.00    +0.000 A 
ATOM      4  C   UNL     1       2.658   5.016  20.697  0.00  0.00    +0.000 A 
ATOM      5  C   UNL     1       2.239   4.060  21.627  0.00  0.00    +0.000 A 
ATOM      6  C   UNL     1       1.371   3.047  21.229  0.00  0.00    +0.000 A 
ATOM      7  F   UNL     1       0.968   2.137  22.124  0.00  0.00    +0.000 F 
ATOM      8  C   UNL     1       0.911   2.970  19.921  0.00  0.00    +0.000 A 
ATOM      9  C   UNL     1       1.333   3.923  19.000  0.00  0.00    +0.000 A 
ATOM     10  F   UNL     1       0.869   3.850  17.742  0.00  0.00    +0.000 F 
ENDBRANCH   1   3
BRANCH   1  14
ATOM     11  C   UNL     1       5.923   5.429  15.665  0.00  0.00    +0.000 A 
ATOM     12  C   UNL     1       5.072   4.359  15.964  0.00  0.00    +0.000 A 
ATOM     13  C   UNL     1       4.014   4.525  16.868  0.00  0.00    +0.000 A 
ATOM     14  C   UNL     1       3.794   5.763  17.485  0.00  0.00    +0.000 A 
ATOM     15  C   UNL     1       4.655   6.833  17.188  0.00  0.00    +0.000 A 
ATOM     16  C   UNL     1       5.712   6.665  16.285  0.00  0.00    +0.000 A 
BRANCH  11  18
ATOM     17  N   UNL     1       7.846   5.142  13.942  0.00  0.00    +0.000 NA
ATOM     18  C   UNL     1       6.989   5.268  14.718  0.00  0.00    +0.000 C 
ENDBRANCH  11  18
ENDBRANCH   1  14
BRANCH   2  19
ATOM     19  C   UNL     1       2.215   8.388  17.606  0.00  0.00    +0.000 C 
BRANCH  19  20
ATOM     20  CA  UNL     1       1.935   9.706  18.346  0.00  0.00    +0.000 C 
BRANCH  20  21
ATOM     21  N   UNL     1       2.285  10.934  17.566  0.00  0.00    +0.000 NA
ATOM     22  H1  UNL     1       1.770  10.910  16.679  0.00  0.00    +0.000 HD
ATOM     23  H2  UNL     1       3.268  10.854  17.288  0.00  0.00    +0.000 HD
ENDBRANCH  20  21
BRANCH  20  24
ATOM     24  C   UNL     1       0.436   9.783  18.698  0.00  0.00    +0.000 C 
ATOM     25  O   UNL     1      -0.038   9.706  19.820  0.00  0.00    +0.000 OA
BRANCH  24  26
ATOM     26  OXT UNL     1      -0.320   9.966  17.582  0.00  0.00    +0.000 OA
ATOM     27  HXT UNL     1       0.300   9.890  16.814  0.00  0.00    +0.000 HD
ENDBRANCH  24  26
ENDBRANCH  20  24
ENDBRANCH  19  20
ENDBRANCH   2  19
TORSDOF 8
ENDMDL
MODEL 2
REMARK VINA RESULT:      -7.9      4.012      5.657
REMARK  Name = 
REMARK  8 active torsions:
REMARK  status: ('A' for Active; 'I' for Inactive)
REMARK    1  A    between atoms: C_2  and  C_3
REMARK    2  A    between atoms: C_6  and  C_7
REMARK    3  A    between atoms: C_7  and  C_15
REMARK    4  A    between atoms: C_8  and  C_9
REMARK    5  A    between atoms: C_9  and  CA_10
REMARK    6  A    between atoms: CA_10  and  N_11
REMARK    7  A    between atoms: CA_10  and  C_12
REMARK    8  A    between atoms: C_12  and  OXT_14
REMARK                            x       y       z     vdW  Elec       q    Type
REMARK                         _______ _______ _______ _____ _____    ______ ____
ROOT
ATOM      1  C   UNL     1       5.074   4.311  17.181  0.00  0.00    +0.000 C 
ATOM      2  C   UNL     1       5.403   3.444  16.199  0.00  0.00    +0.000 C 
ENDROOT
BRANCH   1   3
ATOM      3  C   UNL     1       3.846   3.991  17.946  0.00  0.00    +0.000 A 
ATOM      4  C   UNL     1       2.587   4.308  17.411  0.00  0.00    +0.000 A 
ATOM      5  C   UNL     1       1.423   3.995  18.119  0.00  0.00    +0.000 A 
ATOM      6  C   UNL     1       1.519   3.363  19.355  0.00  0.00    +0.000 A 
ATOM      7  F   UNL     1       0.401   3.060  20.027  0.00  0.00    +0.000 F 
ATOM      8  C   UNL     1       2.753   3.035  19.899  0.00  0.00    +0.000 A 
ATOM      9  C   UNL     1       3.908   3.350  19.191  0.00  0.00    +0.000 A 
ATOM     10  F   UNL     1       5.096   3.014  19.717  0.00  0.00    +0.000 F 
ENDBRANCH   1   3
BRANCH   1  14
ATOM     11  C   UNL     1       7.506   7.778  17.924  0.00  0.00    +0.000 A 
ATOM     12  C   UNL     1       7.832   6.554  18.517  0.00  0.00    +0.000 A 
ATOM     13  C   UNL     1       7.032   5.424  18.296  0.00  0.00    +0.000 A 
ATOM     14  C   UNL     1       5.897   5.505  17.480  0.00  0.00    +0.000 A 
ATOM     15  C   UNL     1       5.569   6.738  16.894  0.00  0.00    +0.000 A 
ATOM     16  C   UNL     1       6.368   7.867  17.116  0.00  0.00    +0.000 A 
BRANCH  11  18
ATOM     17  N   UNL     1       9.009   9.864  18.300  0.00  0.00    +0.000 NA
ATOM     18  C   UNL     1       8.339   8.929  18.126  0.00  0.00    +0.000 C 
ENDBRANCH  11  18
ENDBRANCH   1  14
BRANCH   2  19
ATOM     19  C   UNL     1       6.501   3.580  15.172  0.00  0.00    +0.000 C 
BRANCH  19  20
ATOM     20  CA  UNL     1       6.181   4.470  13.961  0.00  0.00    +0.000 C 
BRANCH  20  21
ATOM     21  N   UNL     1       7.320   5.334  13.518  0.00  0.00    +0.000 NA
ATOM     22  H1  UNL     1       7.281   5.420  12.497  0.00  0.00    +0.000 HD
ATOM     23  H2  UNL     1       8.187   4.817  13.694  0.00  0.00    +0.000 HD
ENDBRANCH  20  21
BRANCH  20  24
ATOM     24  C   UNL     1       5.774   3.581  12.770  0.00  0.00    +0.000 C 
ATOM     25  O   UNL     1       4.667   3.536  12.258  0.00  0.00    +0.000 OA
BRANCH  24  26
ATOM     26  OXT UNL     1       6.826   2.837  12.332  0.00  0.00    +0.000 OA
ATOM     27  HXT UNL     1       6.539   2.432  11.476  0.00  0.00    +0.000 HD
ENDBRANCH  24  26
ENDBRANCH  20  24
ENDBRANCH  19  20
ENDBRANCH   2  19
TORSDOF 8
ENDMDL
MODEL 3
REMARK VINA RESULT:      -7.8      3.587      5.075
REMARK  Name = 
REMARK  8 active torsions:
REMARK  status: ('A' for Active; 'I' for Inactive)
REMARK    1  A    between atoms: C_2  and  C_3
REMARK    2  A    between atoms: C_6  and  C_7
REMARK    3  A    between atoms: C_7  and  C_15
REMARK    4  A    between atoms: C_8  and  C_9
REMARK    5  A    between atoms: C_9  and  CA_10
REMARK    6  A    between atoms: CA_10  and  N_11
REMARK    7  A    between atoms: CA_10  and  C_12
REMARK    8  A    between atoms: C_12  and  OXT_14
REMARK                            x       y       z     vdW  Elec       q    Type
REMARK                         _______ _______ _______ _____ _____    ______ ____
ROOT
ATOM      1  C   UNL     1       3.019   5.899  19.243  0.00  0.00    +0.000 C 
ATOM      2  C   UNL     1       2.680   4.942  20.135  0.00  0.00    +0.000 C 
ENDROOT
BRANCH   1   3
ATOM      3  C   UNL     1       2.306   7.191  19.376  0.00  0.00    +0.000 A 
ATOM      4  C   UNL     1       1.734   7.552  20.607  0.00  0.00    +0.000 A 
ATOM      5  C   UNL     1       1.074   8.776  20.744  0.00  0.00    +0.000 A 
ATOM      6  C   UNL     1       0.989   9.638  19.655  0.00  0.00    +0.000 A 
ATOM      7  F   UNL     1       0.360  10.812  19.792  0.00  0.00    +0.000 F 
ATOM      8  C   UNL     1       1.552   9.304  18.431  0.00  0.00    +0.000 A 
ATOM      9  C   UNL     1       2.207   8.083  18.299  0.00  0.00    +0.000 A 
ATOM     10  F   UNL     1       2.763   7.777  17.117  0.00  0.00    +0.000 F 
ENDBRANCH   1   3
BRANCH   1  14
ATOM     11  C   UNL     1       5.984   5.365  16.175  0.00  0.00    +0.000 A 
ATOM     12  C   UNL     1       4.773   4.668  16.108  0.00  0.00    +0.000 A 
ATOM     13  C   UNL     1       3.810   4.821  17.116  0.00  0.00    +0.000 A 
ATOM     14  C   UNL     1       4.047   5.673  18.202  0.00  0.00    +0.000 A 
ATOM     15  C   UNL     1       5.268   6.364  18.270  0.00  0.00    +0.000 A 
ATOM     16  C   UNL     1       6.229   6.209  17.263  0.00  0.00    +0.000 A 
BRANCH  11  18
ATOM     17  N   UNL     1       7.741   5.121  14.277  0.00  0.00    +0.000 NA
ATOM     18  C   UNL     1       6.959   5.231  15.131  0.00  0.00    +0.000 C 
ENDBRANCH  11  18
ENDBRANCH   1  14
BRANCH   2  19
ATOM     19  C   UNL     1       3.124   3.500  20.158  0.00  0.00    +0.000 C 
BRANCH  19  20
ATOM     20  CA  UNL     1       2.003   2.454  20.272  0.00  0.00    +0.000 C 
BRANCH  20  21
ATOM     21  N   UNL     1       0.856   2.875  21.135  0.00  0.00    +0.000 NA
ATOM     22  H1  UNL     1       1.234   3.330  21.973  0.00  0.00    +0.000 HD
ATOM     23  H2  UNL     1       0.408   2.025  21.490  0.00  0.00    +0.000 HD
ENDBRANCH  20  21
BRANCH  20  24
ATOM     24  C   UNL     1       1.448   2.149  18.867  0.00  0.00    +0.000 C 
ATOM     25  O   UNL     1       0.293   2.307  18.506  0.00  0.00    +0.000 OA
BRANCH  24  26
ATOM     26  OXT UNL     1       2.427   1.683  18.044  0.00  0.00    +0.000 OA
ATOM     27  HXT UNL     1       3.049   1.173  18.619  0.00  0.00    +0.000 HD
ENDBRANCH  24  26
ENDBRANCH  20  24
ENDBRANCH  19  20
ENDBRANCH   2  19
TORSDOF 8
ENDMDL
MODEL 4
REMARK VINA RESULT:      -7.8      4.022      5.684
REMARK  Name = 
REMARK  8 active torsions:
REMARK  status: ('A' for Active; 'I' for Inactive)
REMARK    1  A    between atoms: C_2  and  C_3
REMARK    2  A    between atoms: C_6  and  C_7
REMARK    3  A    between atoms: C_7  and  C_15
REMARK    4  A    between atoms: C_8  and  C_9
REMARK    5  A    between atoms: C_9  and  CA_10
REMARK    6  A    between atoms: CA_10  and  N_11
REMARK    7  A    between atoms: CA_10  and  C_12
REMARK    8  A    between atoms: C_12  and  OXT_14
REMARK                            x       y       z     vdW  Elec       q    Type
REMARK                         _______ _______ _______ _____ _____    ______ ____
ROOT
ATOM      1  C   UNL     1       5.034   4.559  17.226  0.00  0.00    +0.000 C 
ATOM      2  C   UNL     1       5.310   3.578  16.338  0.00  0.00    +0.000 C 
ENDROOT
BRANCH   1   3
ATOM      3  C   UNL     1       3.782   4.397  18.003  0.00  0.00    +0.000 A 
ATOM      4  C   UNL     1       2.699   3.698  17.446  0.00  0.00    +0.000 A 
ATOM      5  C   UNL     1       1.521   3.527  18.179  0.00  0.00    +0.000 A 
ATOM      6  C   UNL     1       1.429   4.051  19.465  0.00  0.00    +0.000 A 
ATOM      7  F   UNL     1       0.301   3.880  20.165  0.00  0.00    +0.000 F 
ATOM      8  C   UNL     1       2.490   4.739  20.036  0.00  0.00    +0.000 A 
ATOM      9  C   UNL     1       3.660   4.908  19.302  0.00  0.00    +0.000 A 
ATOM     10  F   UNL     1       4.686   5.560  19.869  0.00  0.00    +0.000 F 
ENDBRANCH   1   3
BRANCH   1  14
ATOM     11  C   UNL     1       7.608   7.935  17.905  0.00  0.00    +0.000 A 
ATOM     12  C   UNL     1       6.438   8.086  17.153  0.00  0.00    +0.000 A 
ATOM     13  C   UNL     1       5.605   6.985  16.910  0.00  0.00    +0.000 A 
ATOM     14  C   UNL     1       5.931   5.721  17.415  0.00  0.00    +0.000 A 
ATOM     15  C   UNL     1       7.110   5.572  18.163  0.00  0.00    +0.000 A 
ATOM     16  C   UNL     1       7.943   6.672  18.405  0.00  0.00    +0.000 A 
BRANCH  11  18
ATOM     17  N   UNL     1       9.137   9.975  18.403  0.00  0.00    +0.000 NA
ATOM     18  C   UNL     1       8.448   9.066  18.179  0.00  0.00    +0.000 C 
ENDBRANCH  11  18
ENDBRANCH   1  14
BRANCH   2  19
ATOM     19  C   UNL     1       6.421   3.540  15.317  0.00  0.00    +0.000 C 
BRANCH  19  20
ATOM     20  CA  UNL     1       6.344   4.594  14.201  0.00  0.00    +0.000 C 
BRANCH  20  21
ATOM     21  N   UNL     1       7.541   5.487  14.118  0.00  0.00    +0.000 NA
ATOM     22  H1  UNL     1       7.921   5.606  15.063  0.00  0.00    +0.000 HD
ATOM     23  H2  UNL     1       7.212   6.423  13.859  0.00  0.00    +0.000 HD
ENDBRANCH  20  21
BRANCH  20  24
ATOM     24  C   UNL     1       6.192   3.884  12.841  0.00  0.00    +0.000 C 
ATOM     25  O   UNL     1       5.231   3.219  12.486  0.00  0.00    +0.000 OA
BRANCH  24  26
ATOM     26  OXT UNL     1       7.278   4.101  12.051  0.00  0.00    +0.000 OA
ATOM     27  HXT UNL     1       7.109   4.954  11.579  0.00  0.00    +0.000 HD
ENDBRANCH  24  26
ENDBRANCH  20  24
ENDBRANCH  19  20
ENDBRANCH   2  19
TORSDOF 8
ENDMDL
MODEL 5
REMARK VINA RESULT:      -7.7      3.641      6.525
REMARK  Name = 
REMARK  8 active torsions:
REMARK  status: ('A' for Active; 'I' for Inactive)
REMARK    1  A    between atoms: C_2  and  C_3
REMARK    2  A    between atoms: C_6  and  C_7
REMARK    3  A    between atoms: C_7  and  C_15
REMARK    4  A    between atoms: C_8  and  C_9
REMARK    5  A    between atoms: C_9  and  CA_10
REMARK    6  A    between atoms: CA_10  and  N_11
REMARK    7  A    between atoms: CA_10  and  C_12
REMARK    8  A    between atoms: C_12  and  OXT_14
REMARK                            x       y       z     vdW  Elec       q    Type
REMARK                         _______ _______ _______ _____ _____    ______ ____
ROOT
ATOM      1  C   UNL     1       3.354   5.914  18.278  0.00  0.00    +0.000 C 
ATOM      2  C   UNL     1       2.849   4.747  17.822  0.00  0.00    +0.000 C 
ENDROOT
BRANCH   1   3
ATOM      3  C   UNL     1       4.832   5.998  18.348  0.00  0.00    +0.000 A 
ATOM      4  C   UNL     1       5.516   5.414  19.426  0.00  0.00    +0.000 A 
ATOM      5  C   UNL     1       6.910   5.475  19.491  0.00  0.00    +0.000 A 
ATOM      6  C   UNL     1       7.619   6.115  18.478  0.00  0.00    +0.000 A 
ATOM      7  F   UNL     1       8.955   6.167  18.542  0.00  0.00    +0.000 F 
ATOM      8  C   UNL     1       6.963   6.694  17.401  0.00  0.00    +0.000 A 
ATOM      9  C   UNL     1       5.574   6.632  17.342  0.00  0.00    +0.000 A 
ATOM     10  F   UNL     1       4.950   7.180  16.288  0.00  0.00    +0.000 F 
ENDBRANCH   1   3
BRANCH   1  14
ATOM     11  C   UNL     1       0.928   9.276  19.418  0.00  0.00    +0.000 A 
ATOM     12  C   UNL     1       1.299   8.324  20.373  0.00  0.00    +0.000 A 
ATOM     13  C   UNL     1       2.073   7.215  20.005  0.00  0.00    +0.000 A 
ATOM     14  C   UNL     1       2.484   7.043  18.677  0.00  0.00    +0.000 A 
ATOM     15  C   UNL     1       2.101   7.997  17.720  0.00  0.00    +0.000 A 
ATOM     16  C   UNL     1       1.328   9.105  18.088  0.00  0.00    +0.000 A 
BRANCH  11  18
ATOM     17  N   UNL     1      -0.452  11.366  20.108  0.00  0.00    +0.000 NA
ATOM     18  C   UNL     1       0.160  10.427  19.798  0.00  0.00    +0.000 C 
ENDBRANCH  11  18
ENDBRANCH   1  14
BRANCH   2  19
ATOM     19  C   UNL     1       1.402   4.320  17.777  0.00  0.00    +0.000 C 
BRANCH  19  20
ATOM     20  CA  UNL     1       1.078   2.973  18.443  0.00  0.00    +0.000 C 
BRANCH  20  21
ATOM     21  N   UNL     1       1.954   1.844  18.002  0.00  0.00    +0.000 NA
ATOM     22  H1  UNL     1       1.762   1.034  18.601  0.00  0.00    +0.000 HD
ATOM     23  H2  UNL     1       2.922   2.098  18.225  0.00  0.00    +0.000 HD
ENDBRANCH  20  21
BRANCH  20  24
ATOM     24  C   UNL     1       1.224   3.114  19.971  0.00  0.00    +0.000 C 
ATOM     25  O   UNL     1       1.939   2.430  20.686  0.00  0.00    +0.000 OA
BRANCH  24  26
ATOM     26  OXT UNL     1       0.452   4.129  20.445  0.00  0.00    +0.000 OA
ATOM     27  HXT UNL     1       0.955   4.530  21.197  0.00  0.00    +0.000 HD
ENDBRANCH  24  26
ENDBRANCH  20  24
ENDBRANCH  19  20
ENDBRANCH   2  19
TORSDOF 8
ENDMDL
MODEL 6
REMARK VINA RESULT:      -7.7      4.028      5.497
REMARK  Name = 
REMARK  8 active torsions:
REMARK  status: ('A' for Active; 'I' for Inactive)
REMARK    1  A    between atoms: C_2  and  C_3
REMARK    2  A    between atoms: C_6  and  C_7
REMARK    3  A    between atoms: C_7  and  C_15
REMARK    4  A    between atoms: C_8  and  C_9
REMARK    5  A    between atoms: C_9  and  CA_10
REMARK    6  A    between atoms: CA_10  and  N_11
REMARK    7  A    between atoms: CA_10  and  C_12
REMARK    8  A    between atoms: C_12  and  OXT_14
REMARK                            x       y       z     vdW  Elec       q    Type
REMARK                         _______ _______ _______ _____ _____    ______ ____
ROOT
ATOM      1  C   UNL     1       2.232   6.061  19.692  0.00  0.00    +0.000 C 
ATOM      2  C   UNL     1       1.500   5.156  20.378  0.00  0.00    +0.000 C 
ENDROOT
BRANCH   1   3
ATOM      3  C   UNL     1       1.796   7.472  19.812  0.00  0.00    +0.000 A 
ATOM      4  C   UNL     1       1.343   7.963  21.047  0.00  0.00    +0.000 A 
ATOM      5  C   UNL     1       0.946   9.297  21.172  0.00  0.00    +0.000 A 
ATOM      6  C   UNL     1       1.005  10.138  20.065  0.00  0.00    +0.000 A 
ATOM      7  F   UNL     1       0.629  11.417  20.190  0.00  0.00    +0.000 F 
ATOM      8  C   UNL     1       1.456   9.676  18.836  0.00  0.00    +0.000 A 
ATOM      9  C   UNL     1       1.849   8.347  18.718  0.00  0.00    +0.000 A 
ATOM     10  F   UNL     1       2.299   7.913  17.530  0.00  0.00    +0.000 F 
ENDBRANCH   1   3
BRANCH   1  14
ATOM     11  C   UNL     1       5.662   5.044  17.307  0.00  0.00    +0.000 A 
ATOM     12  C   UNL     1       4.373   4.819  16.813  0.00  0.00    +0.000 A 
ATOM     13  C   UNL     1       3.250   5.128  17.593  0.00  0.00    +0.000 A 
ATOM     14  C   UNL     1       3.402   5.667  18.877  0.00  0.00    +0.000 A 
ATOM     15  C   UNL     1       4.698   5.884  19.372  0.00  0.00    +0.000 A 
ATOM     16  C   UNL     1       5.820   5.574  18.592  0.00  0.00    +0.000 A 
BRANCH  11  18
ATOM     17  N   UNL     1       7.744   4.531  15.841  0.00  0.00    +0.000 NA
ATOM     18  C   UNL     1       6.812   4.754  16.499  0.00  0.00    +0.000 C 
ENDBRANCH  11  18
ENDBRANCH   1  14
BRANCH   2  19
ATOM     19  C   UNL     1       1.611   3.651  20.336  0.00  0.00    +0.000 C 
BRANCH  19  20
ATOM     20  CA  UNL     1       2.928   3.059  20.863  0.00  0.00    +0.000 C 
BRANCH  20  21
ATOM     21  N   UNL     1       2.764   2.156  22.044  0.00  0.00    +0.000 NA
ATOM     22  H1  UNL     1       2.625   2.737  22.878  0.00  0.00    +0.000 HD
ATOM     23  H2  UNL     1       3.664   1.694  22.207  0.00  0.00    +0.000 HD
ENDBRANCH  20  21
BRANCH  20  24
ATOM     24  C   UNL     1       3.606   2.249  19.741  0.00  0.00    +0.000 C 
ATOM     25  O   UNL     1       3.035   1.690  18.818  0.00  0.00    +0.000 OA
BRANCH  24  26
ATOM     26  OXT UNL     1       4.958   2.241  19.893  0.00  0.00    +0.000 OA
ATOM     27  HXT UNL     1       5.234   3.188  19.957  0.00  0.00    +0.000 HD
ENDBRANCH  24  26
ENDBRANCH  20  24
ENDBRANCH  19  20
ENDBRANCH   2  19
TORSDOF 8
ENDMDL
MODEL 7
REMARK VINA RESULT:      -7.7      3.182      5.649
REMARK  Name = 
REMARK  8 active torsions:
REMARK  status: ('A' for Active; 'I' for Inactive)
REMARK    1  A    between atoms: C_2  and  C_3
REMARK    2  A    between atoms: C_6  and  C_7
REMARK    3  A    between atoms: C_7  and  C_15
REMARK    4  A    between atoms: C_8  and  C_9
REMARK    5  A    between atoms: C_9  and  CA_10
REMARK    6  A    between atoms: CA_10  and  N_11
REMARK    7  A    between atoms: CA_10  and  C_12
REMARK    8  A    between atoms: C_12  and  OXT_14
REMARK                            x       y       z     vdW  Elec       q    Type
REMARK                         _______ _______ _______ _____ _____    ______ ____
ROOT
ATOM      1  C   UNL     1       3.467   5.909  18.380  0.00  0.00    +0.000 C 
ATOM      2  C   UNL     1       4.710   5.879  17.851  0.00  0.00    +0.000 C 
ENDROOT
BRANCH   1   3
ATOM      3  C   UNL     1       2.874   4.594  18.718  0.00  0.00    +0.000 A 
ATOM      4  C   UNL     1       3.488   3.777  19.682  0.00  0.00    +0.000 A 
ATOM      5  C   UNL     1       2.926   2.542  20.018  0.00  0.00    +0.000 A 
ATOM      6  C   UNL     1       1.753   2.128  19.396  0.00  0.00    +0.000 A 
ATOM      7  F   UNL     1       1.215   0.947  19.725  0.00  0.00    +0.000 F 
ATOM      8  C   UNL     1       1.127   2.922  18.445  0.00  0.00    +0.000 A 
ATOM      9  C   UNL     1       1.691   4.150  18.113  0.00  0.00    +0.000 A 
ATOM     10  F   UNL     1       1.069   4.918  17.205  0.00  0.00    +0.000 F 
ENDBRANCH   1   3
BRANCH   1  14
ATOM     11  C   UNL     1       1.254   9.531  19.066  0.00  0.00    +0.000 A 
ATOM     12  C   UNL     1       1.828   9.287  17.814  0.00  0.00    +0.000 A 
ATOM     13  C   UNL     1       2.569   8.118  17.589  0.00  0.00    +0.000 A 
ATOM     14  C   UNL     1       2.744   7.179  18.613  0.00  0.00    +0.000 A 
ATOM     15  C   UNL     1       2.173   7.432  19.871  0.00  0.00    +0.000 A 
ATOM     16  C   UNL     1       1.434   8.600  20.095  0.00  0.00    +0.000 A 
BRANCH  11  18
ATOM     17  N   UNL     1      -0.158  11.675  19.462  0.00  0.00    +0.000 NA
ATOM     18  C   UNL     1       0.472  10.713  19.290  0.00  0.00    +0.000 C 
ENDBRANCH  11  18
ENDBRANCH   1  14
BRANCH   2  19
ATOM     19  C   UNL     1       5.502   7.031  17.282  0.00  0.00    +0.000 C 
BRANCH  19  20
ATOM     20  CA  UNL     1       7.014   6.801  17.137  0.00  0.00    +0.000 C 
BRANCH  20  21
ATOM     21  N   UNL     1       7.743   6.677  18.438  0.00  0.00    +0.000 NA
ATOM     22  H1  UNL     1       7.802   5.682  18.681  0.00  0.00    +0.000 HD
ATOM     23  H2  UNL     1       7.144   7.079  19.167  0.00  0.00    +0.000 HD
ENDBRANCH  20  21
BRANCH  20  24
ATOM     24  C   UNL     1       7.257   5.506  16.336  0.00  0.00    +0.000 C 
ATOM     25  O   UNL     1       7.808   4.501  16.754  0.00  0.00    +0.000 OA
BRANCH  24  26
ATOM     26  OXT UNL     1       6.758   5.611  15.075  0.00  0.00    +0.000 OA
ATOM     27  HXT UNL     1       5.809   5.336  15.130  0.00  0.00    +0.000 HD
ENDBRANCH  24  26
ENDBRANCH  20  24
ENDBRANCH  19  20
ENDBRANCH   2  19
TORSDOF 8
ENDMDL
MODEL 8
REMARK VINA RESULT:      -7.7      3.604      5.147
REMARK  Name = 
REMARK  8 active torsions:
REMARK  status: ('A' for Active; 'I' for Inactive)
REMARK    1  A    between atoms: C_2  and  C_3
REMARK    2  A    between atoms: C_6  and  C_7
REMARK    3  A    between atoms: C_7  and  C_15
REMARK    4  A    between atoms: C_8  and  C_9
REMARK    5  A    between atoms: C_9  and  CA_10
REMARK    6  A    between atoms: CA_10  and  N_11
REMARK    7  A    between atoms: CA_10  and  C_12
REMARK    8  A    between atoms: C_12  and  OXT_14
REMARK                            x       y       z     vdW  Elec       q    Type
REMARK                         _______ _______ _______ _____ _____    ______ ____
ROOT
ATOM      1  C   UNL     1       2.941   6.028  19.259  0.00  0.00    +0.000 C 
ATOM      2  C   UNL     1       2.645   5.024  20.112  0.00  0.00    +0.000 C 
ENDROOT
BRANCH   1   3
ATOM      3  C   UNL     1       2.206   7.297  19.470  0.00  0.00    +0.000 A 
ATOM      4  C   UNL     1       1.687   7.602  20.739  0.00  0.00    +0.000 A 
ATOM      5  C   UNL     1       1.006   8.804  20.950  0.00  0.00    +0.000 A 
ATOM      6  C   UNL     1       0.848   9.700  19.897  0.00  0.00    +0.000 A 
ATOM      7  F   UNL     1       0.200  10.852  20.105  0.00  0.00    +0.000 F 
ATOM      8  C   UNL     1       1.359   9.421  18.637  0.00  0.00    +0.000 A 
ATOM      9  C   UNL     1       2.035   8.222  18.432  0.00  0.00    +0.000 A 
ATOM     10  F   UNL     1       2.539   7.969  17.214  0.00  0.00    +0.000 F 
ENDBRANCH   1   3
BRANCH   1  14
ATOM     11  C   UNL     1       5.887   5.455  16.180  0.00  0.00    +0.000 A 
ATOM     12  C   UNL     1       6.097   6.408  17.182  0.00  0.00    +0.000 A 
ATOM     13  C   UNL     1       5.132   6.616  18.177  0.00  0.00    +0.000 A 
ATOM     14  C   UNL     1       3.945   5.872  18.182  0.00  0.00    +0.000 A 
ATOM     15  C   UNL     1       3.735   4.922  17.170  0.00  0.00    +0.000 A 
ATOM     16  C   UNL     1       4.699   4.716  16.175  0.00  0.00    +0.000 A 
BRANCH  11  18
ATOM     17  N   UNL     1       7.692   5.040  14.357  0.00  0.00    +0.000 NA
ATOM     18  C   UNL     1       6.886   5.221  15.177  0.00  0.00    +0.000 C 
ENDBRANCH  11  18
ENDBRANCH   1  14
BRANCH   2  19
ATOM     19  C   UNL     1       3.118   3.591  20.057  0.00  0.00    +0.000 C 
BRANCH  19  20
ATOM     20  CA  UNL     1       2.031   2.518  20.220  0.00  0.00    +0.000 C 
BRANCH  20  21
ATOM     21  N   UNL     1       0.897   2.923  21.108  0.00  0.00    +0.000 NA
ATOM     22  H1  UNL     1       0.234   2.143  21.160  0.00  0.00    +0.000 HD
ATOM     23  H2  UNL     1       0.377   3.664  20.626  0.00  0.00    +0.000 HD
ENDBRANCH  20  21
BRANCH  20  24
ATOM     24  C   UNL     1       1.446   2.172  18.836  0.00  0.00    +0.000 C 
ATOM     25  O   UNL     1       0.279   2.296  18.503  0.00  0.00    +0.000 OA
BRANCH  24  26
ATOM     26  OXT UNL     1       2.413   1.712  17.997  0.00  0.00    +0.000 OA
ATOM     27  HXT UNL     1       3.043   1.195  18.560  0.00  0.00    +0.000 HD
ENDBRANCH  24  26
ENDBRANCH  20  24
ENDBRANCH  19  20
ENDBRANCH   2  19
TORSDOF 8
ENDMDL
MODEL 9
REMARK VINA RESULT:      -7.7      3.540      5.142
REMARK  Name = 
REMARK  8 active torsions:
REMARK  status: ('A' for Active; 'I' for Inactive)
REMARK    1  A    between atoms: C_2  and  C_3
REMARK    2  A    between atoms: C_6  and  C_7
REMARK    3  A    between atoms: C_7  and  C_15
REMARK    4  A    between atoms: C_8  and  C_9
REMARK    5  A    between atoms: C_9  and  CA_10
REMARK    6  A    between atoms: CA_10  and  N_11
REMARK    7  A    between atoms: CA_10  and  C_12
REMARK    8  A    between atoms: C_12  and  OXT_14
REMARK                            x       y       z     vdW  Elec       q    Type
REMARK                         _______ _______ _______ _____ _____    ______ ____
ROOT
ATOM      1  C   UNL     1       3.037   6.000  18.964  0.00  0.00    +0.000 C 
ATOM      2  C   UNL     1       2.694   5.071  19.883  0.00  0.00    +0.000 C 
ENDROOT
BRANCH   1   3
ATOM      3  C   UNL     1       2.318   7.292  19.048  0.00  0.00    +0.000 A 
ATOM      4  C   UNL     1       2.199   8.103  17.907  0.00  0.00    +0.000 A 
ATOM      5  C   UNL     1       1.509   9.316  17.975  0.00  0.00    +0.000 A 
ATOM      6  C   UNL     1       0.936   9.715  19.179  0.00  0.00    +0.000 A 
ATOM      7  F   UNL     1       0.271  10.876  19.237  0.00  0.00    +0.000 F 
ATOM      8  C   UNL     1       1.036   8.927  20.317  0.00  0.00    +0.000 A 
ATOM      9  C   UNL     1       1.726   7.721  20.244  0.00  0.00    +0.000 A 
ATOM     10  F   UNL     1       1.803   6.958  21.346  0.00  0.00    +0.000 F 
ENDBRANCH   1   3
BRANCH   1  14
ATOM     11  C   UNL     1       6.017   5.369  15.930  0.00  0.00    +0.000 A 
ATOM     12  C   UNL     1       4.885   4.549  15.981  0.00  0.00    +0.000 A 
ATOM     13  C   UNL     1       3.920   4.735  16.980  0.00  0.00    +0.000 A 
ATOM     14  C   UNL     1       4.075   5.743  17.940  0.00  0.00    +0.000 A 
ATOM     15  C   UNL     1       5.217   6.559  17.890  0.00  0.00    +0.000 A 
ATOM     16  C   UNL     1       6.182   6.371  16.892  0.00  0.00    +0.000 A 
BRANCH  11  18
ATOM     17  N   UNL     1       7.786   5.050  14.053  0.00  0.00    +0.000 NA
ATOM     18  C   UNL     1       6.993   5.199  14.891  0.00  0.00    +0.000 C 
ENDBRANCH  11  18
ENDBRANCH   1  14
BRANCH   2  19
ATOM     19  C   UNL     1       3.143   3.632  19.957  0.00  0.00    +0.000 C 
BRANCH  19  20
ATOM     20  CA  UNL     1       2.033   2.592  20.178  0.00  0.00    +0.000 C 
BRANCH  20  21
ATOM     21  N   UNL     1       0.902   3.074  21.031  0.00  0.00    +0.000 NA
ATOM     22  H1  UNL     1       0.067   3.157  20.443  0.00  0.00    +0.000 HD
ATOM     23  H2  UNL     1       1.113   4.038  21.308  0.00  0.00    +0.000 HD
ENDBRANCH  20  21
BRANCH  20  24
ATOM     24  C   UNL     1       1.449   2.175  18.813  0.00  0.00    +0.000 C 
ATOM     25  O   UNL     1       0.279   2.271  18.478  0.00  0.00    +0.000 OA
BRANCH  24  26
ATOM     26  OXT UNL     1       2.419   1.685  17.995  0.00  0.00    +0.000 OA
ATOM     27  HXT UNL     1       2.743   0.853  18.420  0.00  0.00    +0.000 HD
ENDBRANCH  24  26
ENDBRANCH  20  24
ENDBRANCH  19  20
ENDBRANCH   2  19
TORSDOF 8
ENDMDL
