MODEL 1
REMARK VINA RESULT:      -8.0      0.000      0.000
REMARK  Name = 
REMARK  4 active torsions:
REMARK  status: ('A' for Active; 'I' for Inactive)
REMARK    1  A    between atoms: C_2  and  C_3
REMARK    2  A    between atoms: C_3  and  N_4
REMARK    3  A    between atoms: N_18  and  C_19
REMARK    4  A    between atoms: C_19  and  C_20
REMARK                            x       y       z     vdW  Elec       q    Type
REMARK                         _______ _______ _______ _____ _____    ______ ____
ROOT
ATOM      1  O   UNL     1      -1.040  12.015  23.230  0.00  0.00    +0.000 OA
ATOM      2  C   UNL     1      -1.012  11.636  22.056  0.00  0.00    +0.000 C 
ATOM      3  N   UNL     1      -0.529  10.389  21.702  0.00  0.00    +0.000 N 
ATOM      4  C   UNL     1      -0.451   9.860  20.335  0.00  0.00    +0.000 C 
ATOM      5  C   UNL     1       1.000   9.456  19.989  0.00  0.00    +0.000 C 
ATOM      6  N   UNL     1       1.619   8.539  20.974  0.00  0.00    +0.000 NA
ATOM      7  C   UNL     1       1.514   9.162  22.320  0.00  0.00    +0.000 C 
ATOM      8  C   UNL     1       0.080   9.541  22.729  0.00  0.00    +0.000 C 
ENDROOT
BRANCH   2   9
ATOM      9  C   UNL     1      -1.562  12.540  20.955  0.00  0.00    +0.000 C 
BRANCH   9  10
ATOM     10  N   UNL     1      -3.003  12.424  20.717  0.00  0.00    +0.000 N 
ATOM     11  C   UNL     1      -3.896  12.719  21.732  0.00  0.00    +0.000 A 
ATOM     12  C   UNL     1      -5.216  12.784  21.530  0.00  0.00    +0.000 A 
ATOM     13  C   UNL     1      -5.749  12.598  20.185  0.00  0.00    +0.000 A 
ATOM     14  C   UNL     1      -7.108  12.781  19.918  0.00  0.00    +0.000 A 
ATOM     15  C   UNL     1      -7.591  12.639  18.616  0.00  0.00    +0.000 A 
ATOM     16  C   UNL     1      -6.724  12.292  17.577  0.00  0.00    +0.000 A 
ATOM     17  C   UNL     1      -5.369  12.105  17.832  0.00  0.00    +0.000 A 
ATOM     18  C   UNL     1      -4.882  12.267  19.136  0.00  0.00    +0.000 A 
ATOM     19  C   UNL     1      -3.425  12.154  19.410  0.00  0.00    +0.000 A 
ATOM     20  O   UNL     1      -2.659  11.852  18.499  0.00  0.00    +0.000 OA
ENDBRANCH   9  10
ENDBRANCH   2   9
BRANCH   6  21
ATOM     21  C   UNL     1       0.996   7.203  20.885  0.00  0.00    +0.000 C 
BRANCH  21  22
ATOM     22  C   UNL     1       1.933   6.140  20.362  0.00  0.00    +0.000 A 
ATOM     23  C   UNL     1       1.917   4.837  20.913  0.00  0.00    +0.000 A 
ATOM     24  C   UNL     1       2.624   3.797  20.307  0.00  0.00    +0.000 A 
ATOM     25  C   UNL     1       3.302   4.085  19.144  0.00  0.00    +0.000 A 
ATOM     26  C   UNL     1       3.360   5.360  18.631  0.00  0.00    +0.000 A 
ATOM     27  C   UNL     1       2.721   6.416  19.232  0.00  0.00    +0.000 A 
ATOM     28  O   UNL     1       4.031   5.415  17.448  0.00  0.00    +0.000 OA
ATOM     29  C   UNL     1       4.127   4.005  17.164  0.00  0.00    +0.000 C 
ATOM     30  O   UNL     1       3.922   3.184  18.332  0.00  0.00    +0.000 OA
ENDBRANCH  21  22
ENDBRANCH   6  21
TORSDOF 4
ENDMDL
MODEL 2
REMARK VINA RESULT:      -8.0      2.962      9.841
REMARK  Name = 
REMARK  4 active torsions:
REMARK  status: ('A' for Active; 'I' for Inactive)
REMARK    1  A    between atoms: C_2  and  C_3
REMARK    2  A    between atoms: C_3  and  N_4
REMARK    3  A    between atoms: N_18  and  C_19
REMARK    4  A    between atoms: C_19  and  C_20
REMARK                            x       y       z     vdW  Elec       q    Type
REMARK                         _______ _______ _______ _____ _____    ______ ____
ROOT
ATOM      1  O   UNL     1       1.102   8.883  17.384  0.00  0.00    +0.000 OA
ATOM      2  C   UNL     1       1.368   8.960  18.586  0.00  0.00    +0.000 C 
ATOM      3  N   UNL     1       0.558   9.648  19.471  0.00  0.00    +0.000 N 
ATOM      4  C   UNL     1       0.800   9.798  20.911  0.00  0.00    +0.000 C 
ATOM      5  C   UNL     1       0.856  11.292  21.302  0.00  0.00    +0.000 C 
ATOM      6  N   UNL     1      -0.320  12.074  20.853  0.00  0.00    +0.000 NA
ATOM      7  C   UNL     1      -0.476  11.881  19.387  0.00  0.00    +0.000 C 
ATOM      8  C   UNL     1      -0.581  10.409  18.953  0.00  0.00    +0.000 C 
ENDROOT
BRANCH   2   9
ATOM      9  C   UNL     1       2.602   8.247  19.136  0.00  0.00    +0.000 C 
BRANCH   9  10
ATOM     10  N   UNL     1       2.433   6.812  19.377  0.00  0.00    +0.000 N 
ATOM     11  C   UNL     1       1.717   6.376  20.478  0.00  0.00    +0.000 A 
ATOM     12  C   UNL     1       1.398   5.092  20.664  0.00  0.00    +0.000 A 
ATOM     13  C   UNL     1       1.756   4.107  19.650  0.00  0.00    +0.000 A 
ATOM     14  C   UNL     1       1.331   2.780  19.754  0.00  0.00    +0.000 A 
ATOM     15  C   UNL     1       1.649   1.862  18.751  0.00  0.00    +0.000 A 
ATOM     16  C   UNL     1       2.414   2.258  17.651  0.00  0.00    +0.000 A 
ATOM     17  C   UNL     1       2.845   3.576  17.539  0.00  0.00    +0.000 A 
ATOM     18  C   UNL     1       2.508   4.501  18.536  0.00  0.00    +0.000 A 
ATOM     19  C   UNL     1       2.889   5.930  18.390  0.00  0.00    +0.000 A 
ATOM     20  O   UNL     1       3.558   6.283  17.422  0.00  0.00    +0.000 OA
ENDBRANCH   9  10
ENDBRANCH   2   9
BRANCH   6  21
ATOM     21  C   UNL     1      -1.513  11.691  21.635  0.00  0.00    +0.000 C 
BRANCH  21  22
ATOM     22  C   UNL     1      -1.988  12.776  22.572  0.00  0.00    +0.000 A 
ATOM     23  C   UNL     1      -3.320  12.780  23.047  0.00  0.00    +0.000 A 
ATOM     24  C   UNL     1      -3.713  13.650  24.066  0.00  0.00    +0.000 A 
ATOM     25  C   UNL     1      -2.747  14.471  24.606  0.00  0.00    +0.000 A 
ATOM     26  C   UNL     1      -1.462  14.504  24.115  0.00  0.00    +0.000 A 
ATOM     27  C   UNL     1      -1.058  13.701  23.077  0.00  0.00    +0.000 A 
ATOM     28  O   UNL     1      -0.656  15.338  24.826  0.00  0.00    +0.000 OA
ATOM     29  C   UNL     1      -1.511  15.586  25.960  0.00  0.00    +0.000 C 
ATOM     30  O   UNL     1      -2.894  15.274  25.695  0.00  0.00    +0.000 OA
ENDBRANCH  21  22
ENDBRANCH   6  21
TORSDOF 4
ENDMDL
MODEL 3
REMARK VINA RESULT:      -7.6      1.830      2.565
REMARK  Name = 
REMARK  4 active torsions:
REMARK  status: ('A' for Active; 'I' for Inactive)
REMARK    1  A    between atoms: C_2  and  C_3
REMARK    2  A    between atoms: C_3  and  N_4
REMARK    3  A    between atoms: N_18  and  C_19
REMARK    4  A    between atoms: C_19  and  C_20
REMARK                            x       y       z     vdW  Elec       q    Type
REMARK                         _______ _______ _______ _____ _____    ______ ____
ROOT
ATOM      1  O   UNL     1      -0.831  10.778  21.667  0.00  0.00    +0.000 OA
ATOM      2  C   UNL     1      -0.569  10.846  20.463  0.00  0.00    +0.000 C 
ATOM      3  N   UNL     1       0.050   9.809  19.790  0.00  0.00    +0.000 N 
ATOM      4  C   UNL     1       0.405   9.806  18.366  0.00  0.00    +0.000 C 
ATOM      5  C   UNL     1       1.917   9.548  18.182  0.00  0.00    +0.000 C 
ATOM      6  N   UNL     1       2.408   8.336  18.877  0.00  0.00    +0.000 NA
ATOM      7  C   UNL     1       2.025   8.434  20.311  0.00  0.00    +0.000 C 
ATOM      8  C   UNL     1       0.520   8.647  20.547  0.00  0.00    +0.000 C 
ENDROOT
BRANCH   2   9
ATOM      9  C   UNL     1      -0.972  12.088  19.670  0.00  0.00    +0.000 C 
BRANCH   9  10
ATOM     10  N   UNL     1      -2.363  12.108  19.211  0.00  0.00    +0.000 N 
ATOM     11  C   UNL     1      -2.707  11.490  18.023  0.00  0.00    +0.000 A 
ATOM     12  C   UNL     1      -3.977  11.340  17.634  0.00  0.00    +0.000 A 
ATOM     13  C   UNL     1      -5.056  11.783  18.509  0.00  0.00    +0.000 A 
ATOM     14  C   UNL     1      -6.392  11.531  18.188  0.00  0.00    +0.000 A 
ATOM     15  C   UNL     1      -7.408  11.927  19.060  0.00  0.00    +0.000 A 
ATOM     16  C   UNL     1      -7.097  12.598  20.245  0.00  0.00    +0.000 A 
ATOM     17  C   UNL     1      -5.770  12.858  20.572  0.00  0.00    +0.000 A 
ATOM     18  C   UNL     1      -4.750  12.442  19.706  0.00  0.00    +0.000 A 
ATOM     19  C   UNL     1      -3.325  12.636  20.081  0.00  0.00    +0.000 A 
ATOM     20  O   UNL     1      -3.047  13.222  21.124  0.00  0.00    +0.000 OA
ENDBRANCH   9  10
ENDBRANCH   2   9
BRANCH   6  21
ATOM     21  C   UNL     1       1.900   7.123  18.206  0.00  0.00    +0.000 C 
BRANCH  21  22
ATOM     22  C   UNL     1       2.993   6.169  17.787  0.00  0.00    +0.000 A 
ATOM     23  C   UNL     1       2.757   4.774  17.768  0.00  0.00    +0.000 A 
ATOM     24  C   UNL     1       3.681   3.901  17.191  0.00  0.00    +0.000 A 
ATOM     25  C   UNL     1       4.804   4.455  16.618  0.00  0.00    +0.000 A 
ATOM     26  C   UNL     1       5.061   5.806  16.676  0.00  0.00    +0.000 A 
ATOM     27  C   UNL     1       4.199   6.685  17.284  0.00  0.00    +0.000 A 
ATOM     28  O   UNL     1       6.190   6.150  16.000  0.00  0.00    +0.000 OA
ATOM     29  C   UNL     1       6.432   4.915  15.296  0.00  0.00    +0.000 C 
ATOM     30  O   UNL     1       5.740   3.794  15.883  0.00  0.00    +0.000 OA
ENDBRANCH  21  22
ENDBRANCH   6  21
TORSDOF 4
ENDMDL
MODEL 4
REMARK VINA RESULT:      -7.6      1.717      2.527
REMARK  Name = 
REMARK  4 active torsions:
REMARK  status: ('A' for Active; 'I' for Inactive)
REMARK    1  A    between atoms: C_2  and  C_3
REMARK    2  A    between atoms: C_3  and  N_4
REMARK    3  A    between atoms: N_18  and  C_19
REMARK    4  A    between atoms: C_19  and  C_20
REMARK                            x       y       z     vdW  Elec       q    Type
REMARK                         _______ _______ _______ _____ _____    ______ ____
ROOT
ATOM      1  O   UNL     1      -0.955  10.764  21.560  0.00  0.00    +0.000 OA
ATOM      2  C   UNL     1      -0.700  10.886  20.360  0.00  0.00    +0.000 C 
ATOM      3  N   UNL     1      -0.052   9.895  19.645  0.00  0.00    +0.000 N 
ATOM      4  C   UNL     1       0.296   9.958  18.220  0.00  0.00    +0.000 C 
ATOM      5  C   UNL     1       1.815   9.753  18.022  0.00  0.00    +0.000 C 
ATOM      6  N   UNL     1       2.345   8.530  18.669  0.00  0.00    +0.000 NA
ATOM      7  C   UNL     1       1.965   8.561  20.106  0.00  0.00    +0.000 C 
ATOM      8  C   UNL     1       0.455   8.719  20.354  0.00  0.00    +0.000 C 
ENDROOT
BRANCH   2   9
ATOM      9  C   UNL     1      -1.142  12.145  19.616  0.00  0.00    +0.000 C 
BRANCH   9  10
ATOM     10  N   UNL     1      -2.551  12.167  19.215  0.00  0.00    +0.000 N 
ATOM     11  C   UNL     1      -2.941  11.571  18.029  0.00  0.00    +0.000 A 
ATOM     12  C   UNL     1      -4.224  11.422  17.689  0.00  0.00    +0.000 A 
ATOM     13  C   UNL     1      -5.269  11.841  18.616  0.00  0.00    +0.000 A 
ATOM     14  C   UNL     1      -6.616  11.587  18.345  0.00  0.00    +0.000 A 
ATOM     15  C   UNL     1      -7.598  11.960  19.265  0.00  0.00    +0.000 A 
ATOM     16  C   UNL     1      -7.241  12.608  20.450  0.00  0.00    +0.000 A 
ATOM     17  C   UNL     1      -5.904  12.869  20.729  0.00  0.00    +0.000 A 
ATOM     18  C   UNL     1      -4.918  12.476  19.814  0.00  0.00    +0.000 A 
ATOM     19  C   UNL     1      -3.480  12.671  20.134  0.00  0.00    +0.000 A 
ATOM     20  O   UNL     1      -3.162  13.237  21.176  0.00  0.00    +0.000 OA
ENDBRANCH   9  10
ENDBRANCH   2   9
BRANCH   6  21
ATOM     21  C   UNL     1       1.870   7.330  17.952  0.00  0.00    +0.000 C 
BRANCH  21  22
ATOM     22  C   UNL     1       2.755   6.122  18.156  0.00  0.00    +0.000 A 
ATOM     23  C   UNL     1       4.154   6.222  17.981  0.00  0.00    +0.000 A 
ATOM     24  C   UNL     1       4.999   5.178  18.364  0.00  0.00    +0.000 A 
ATOM     25  C   UNL     1       4.417   4.073  18.944  0.00  0.00    +0.000 A 
ATOM     26  C   UNL     1       3.052   3.951  19.073  0.00  0.00    +0.000 A 
ATOM     27  C   UNL     1       2.191   4.936  18.657  0.00  0.00    +0.000 A 
ATOM     28  O   UNL     1       2.692   2.812  19.724  0.00  0.00    +0.000 OA
ATOM     29  C   UNL     1       3.982   2.402  20.219  0.00  0.00    +0.000 C 
ATOM     30  O   UNL     1       5.075   3.026  19.514  0.00  0.00    +0.000 OA
ENDBRANCH  21  22
ENDBRANCH   6  21
TORSDOF 4
ENDMDL
MODEL 5
REMARK VINA RESULT:      -7.5      2.763      4.952
REMARK  Name = 
REMARK  4 active torsions:
REMARK  status: ('A' for Active; 'I' for Inactive)
REMARK    1  A    between atoms: C_2  and  C_3
REMARK    2  A    between atoms: C_3  and  N_4
REMARK    3  A    between atoms: N_18  and  C_19
REMARK    4  A    between atoms: C_19  and  C_20
REMARK                            x       y       z     vdW  Elec       q    Type
REMARK                         _______ _______ _______ _____ _____    ______ ____
ROOT
ATOM      1  O   UNL     1       1.864   8.964  19.047  0.00  0.00    +0.000 OA
ATOM      2  C   UNL     1       1.651   8.102  19.903  0.00  0.00    +0.000 C 
ATOM      3  N   UNL     1       2.178   6.827  19.804  0.00  0.00    +0.000 N 
ATOM      4  C   UNL     1       1.972   5.740  20.769  0.00  0.00    +0.000 C 
ATOM      5  C   UNL     1       1.365   4.502  20.072  0.00  0.00    +0.000 C 
ATOM      6  N   UNL     1       2.124   4.050  18.883  0.00  0.00    +0.000 NA
ATOM      7  C   UNL     1       2.266   5.204  17.955  0.00  0.00    +0.000 C 
ATOM      8  C   UNL     1       2.908   6.448  18.593  0.00  0.00    +0.000 C 
ENDROOT
BRANCH   2   9
ATOM      9  C   UNL     1       0.818   8.449  21.136  0.00  0.00    +0.000 C 
BRANCH   9  10
ATOM     10  N   UNL     1       0.072   9.706  21.048  0.00  0.00    +0.000 N 
ATOM     11  C   UNL     1      -0.435  10.125  19.831  0.00  0.00    +0.000 A 
ATOM     12  C   UNL     1      -1.252  11.176  19.717  0.00  0.00    +0.000 A 
ATOM     13  C   UNL     1      -1.687  11.884  20.916  0.00  0.00    +0.000 A 
ATOM     14  C   UNL     1      -2.636  12.906  20.844  0.00  0.00    +0.000 A 
ATOM     15  C   UNL     1      -3.069  13.543  22.008  0.00  0.00    +0.000 A 
ATOM     16  C   UNL     1      -2.540  13.178  23.249  0.00  0.00    +0.000 A 
ATOM     17  C   UNL     1      -1.593  12.163  23.332  0.00  0.00    +0.000 A 
ATOM     18  C   UNL     1      -1.173  11.511  22.165  0.00  0.00    +0.000 A 
ATOM     19  C   UNL     1      -0.226  10.369  22.245  0.00  0.00    +0.000 A 
ATOM     20  O   UNL     1       0.239  10.042  23.334  0.00  0.00    +0.000 OA
ENDBRANCH   9  10
ENDBRANCH   2   9
BRANCH   6  21
ATOM     21  C   UNL     1       3.411   3.456  19.297  0.00  0.00    +0.000 C 
BRANCH  21  22
ATOM     22  C   UNL     1       4.583   3.936  18.474  0.00  0.00    +0.000 A 
ATOM     23  C   UNL     1       4.658   3.641  17.093  0.00  0.00    +0.000 A 
ATOM     24  C   UNL     1       5.621   4.247  16.284  0.00  0.00    +0.000 A 
ATOM     25  C   UNL     1       6.463   5.160  16.878  0.00  0.00    +0.000 A 
ATOM     26  C   UNL     1       6.426   5.414  18.230  0.00  0.00    +0.000 A 
ATOM     27  C   UNL     1       5.528   4.794  19.062  0.00  0.00    +0.000 A 
ATOM     28  O   UNL     1       7.301   6.389  18.599  0.00  0.00    +0.000 OA
ATOM     29  C   UNL     1       7.665   6.889  17.297  0.00  0.00    +0.000 C 
ATOM     30  O   UNL     1       7.361   5.959  16.237  0.00  0.00    +0.000 OA
ENDBRANCH  21  22
ENDBRANCH   6  21
TORSDOF 4
ENDMDL
MODEL 6
REMARK VINA RESULT:      -7.5      3.054     10.162
REMARK  Name = 
REMARK  4 active torsions:
REMARK  status: ('A' for Active; 'I' for Inactive)
REMARK    1  A    between atoms: C_2  and  C_3
REMARK    2  A    between atoms: C_3  and  N_4
REMARK    3  A    between atoms: N_18  and  C_19
REMARK    4  A    between atoms: C_19  and  C_20
REMARK                            x       y       z     vdW  Elec       q    Type
REMARK                         _______ _______ _______ _____ _____    ______ ____
ROOT
ATOM      1  O   UNL     1       1.703   8.997  17.623  0.00  0.00    +0.000 OA
ATOM      2  C   UNL     1       1.469   8.931  18.832  0.00  0.00    +0.000 C 
ATOM      3  N   UNL     1       0.536   9.751  19.442  0.00  0.00    +0.000 N 
ATOM      4  C   UNL     1       0.199   9.748  20.870  0.00  0.00    +0.000 C 
ATOM      5  C   UNL     1       0.408  11.150  21.482  0.00  0.00    +0.000 C 
ATOM      6  N   UNL     1      -0.289  12.234  20.752  0.00  0.00    +0.000 NA
ATOM      7  C   UNL     1       0.126  12.176  19.325  0.00  0.00    +0.000 C 
ATOM      8  C   UNL     1      -0.105  10.809  18.658  0.00  0.00    +0.000 C 
ENDROOT
BRANCH   2   9
ATOM      9  C   UNL     1       2.191   7.893  19.688  0.00  0.00    +0.000 C 
BRANCH   9  10
ATOM     10  N   UNL     1       2.490   6.629  19.011  0.00  0.00    +0.000 N 
ATOM     11  C   UNL     1       3.401   6.603  17.970  0.00  0.00    +0.000 A 
ATOM     12  C   UNL     1       3.831   5.463  17.421  0.00  0.00    +0.000 A 
ATOM     13  C   UNL     1       3.381   4.186  17.966  0.00  0.00    +0.000 A 
ATOM     14  C   UNL     1       3.905   2.980  17.496  0.00  0.00    +0.000 A 
ATOM     15  C   UNL     1       3.492   1.771  18.060  0.00  0.00    +0.000 A 
ATOM     16  C   UNL     1       2.536   1.760  19.079  0.00  0.00    +0.000 A 
ATOM     17  C   UNL     1       2.005   2.956  19.551  0.00  0.00    +0.000 A 
ATOM     18  C   UNL     1       2.436   4.169  18.999  0.00  0.00    +0.000 A 
ATOM     19  C   UNL     1       1.942   5.458  19.550  0.00  0.00    +0.000 A 
ATOM     20  O   UNL     1       1.105   5.453  20.448  0.00  0.00    +0.000 OA
ENDBRANCH   9  10
ENDBRANCH   2   9
BRANCH   6  21
ATOM     21  C   UNL     1      -1.748  12.126  20.954  0.00  0.00    +0.000 C 
BRANCH  21  22
ATOM     22  C   UNL     1      -2.250  12.931  22.130  0.00  0.00    +0.000 A 
ATOM     23  C   UNL     1      -3.303  12.440  22.935  0.00  0.00    +0.000 A 
ATOM     24  C   UNL     1      -3.637  13.068  24.137  0.00  0.00    +0.000 A 
ATOM     25  C   UNL     1      -2.880  14.155  24.514  0.00  0.00    +0.000 A 
ATOM     26  C   UNL     1      -1.886  14.665  23.711  0.00  0.00    +0.000 A 
ATOM     27  C   UNL     1      -1.570  14.104  22.499  0.00  0.00    +0.000 A 
ATOM     28  O   UNL     1      -1.225  15.701  24.296  0.00  0.00    +0.000 OA
ATOM     29  C   UNL     1      -1.735  15.580  25.639  0.00  0.00    +0.000 C 
ATOM     30  O   UNL     1      -2.950  14.807  25.708  0.00  0.00    +0.000 OA
ENDBRANCH  21  22
ENDBRANCH   6  21
TORSDOF 4
ENDMDL
MODEL 7
REMARK VINA RESULT:      -7.4      1.415      1.882
REMARK  Name = 
REMARK  4 active torsions:
REMARK  status: ('A' for Active; 'I' for Inactive)
REMARK    1  A    between atoms: C_2  and  C_3
REMARK    2  A    between atoms: C_3  and  N_4
REMARK    3  A    between atoms: N_18  and  C_19
REMARK    4  A    between atoms: C_19  and  C_20
REMARK                            x       y       z     vdW  Elec       q    Type
REMARK                         _______ _______ _______ _____ _____    ______ ____
ROOT
ATOM      1  O   UNL     1      -0.933  10.787  22.016  0.00  0.00    +0.000 OA
ATOM      2  C   UNL     1      -0.806  10.945  20.800  0.00  0.00    +0.000 C 
ATOM      3  N   UNL     1      -0.184  10.002  20.001  0.00  0.00    +0.000 N 
ATOM      4  C   UNL     1       0.018  10.110  18.551  0.00  0.00    +0.000 C 
ATOM      5  C   UNL     1       1.517   9.988  18.200  0.00  0.00    +0.000 C 
ATOM      6  N   UNL     1       2.169   8.782  18.761  0.00  0.00    +0.000 NA
ATOM      7  C   UNL     1       1.932   8.766  20.230  0.00  0.00    +0.000 C 
ATOM      8  C   UNL     1       0.449   8.840  20.629  0.00  0.00    +0.000 C 
ENDROOT
BRANCH   2   9
ATOM      9  C   UNL     1      -1.382  12.193  20.134  0.00  0.00    +0.000 C 
BRANCH   9  10
ATOM     10  N   UNL     1      -2.844  12.271  20.120  0.00  0.00    +0.000 N 
ATOM     11  C   UNL     1      -3.518  12.792  21.211  0.00  0.00    +0.000 A 
ATOM     12  C   UNL     1      -4.832  13.033  21.194  0.00  0.00    +0.000 A 
ATOM     13  C   UNL     1      -5.592  12.803  19.970  0.00  0.00    +0.000 A 
ATOM     14  C   UNL     1      -6.939  13.160  19.882  0.00  0.00    +0.000 A 
ATOM     15  C   UNL     1      -7.637  12.970  18.688  0.00  0.00    +0.000 A 
ATOM     16  C   UNL     1      -6.999  12.400  17.583  0.00  0.00    +0.000 A 
ATOM     17  C   UNL     1      -5.659  12.038  17.661  0.00  0.00    +0.000 A 
ATOM     18  C   UNL     1      -4.954  12.248  18.854  0.00  0.00    +0.000 A 
ATOM     19  C   UNL     1      -3.501  11.945  18.927  0.00  0.00    +0.000 A 
ATOM     20  O   UNL     1      -2.935  11.448  17.957  0.00  0.00    +0.000 OA
ENDBRANCH   9  10
ENDBRANCH   2   9
BRANCH   6  21
ATOM     21  C   UNL     1       1.685   7.572  18.066  0.00  0.00    +0.000 C 
BRANCH  21  22
ATOM     22  C   UNL     1       2.637   6.404  18.165  0.00  0.00    +0.000 A 
ATOM     23  C   UNL     1       4.019   6.584  17.922  0.00  0.00    +0.000 A 
ATOM     24  C   UNL     1       4.933   5.569  18.210  0.00  0.00    +0.000 A 
ATOM     25  C   UNL     1       4.439   4.410  18.765  0.00  0.00    +0.000 A 
ATOM     26  C   UNL     1       3.091   4.211  18.958  0.00  0.00    +0.000 A 
ATOM     27  C   UNL     1       2.161   5.169  18.635  0.00  0.00    +0.000 A 
ATOM     28  O   UNL     1       2.822   3.026  19.570  0.00  0.00    +0.000 OA
ATOM     29  C   UNL     1       4.156   2.661  19.977  0.00  0.00    +0.000 C 
ATOM     30  O   UNL     1       5.177   3.372  19.248  0.00  0.00    +0.000 OA
ENDBRANCH  21  22
ENDBRANCH   6  21
TORSDOF 4
ENDMDL
MODEL 8
REMARK VINA RESULT:      -7.3      2.902      9.744
REMARK  Name = 
REMARK  4 active torsions:
REMARK  status: ('A' for Active; 'I' for Inactive)
REMARK    1  A    between atoms: C_2  and  C_3
REMARK    2  A    between atoms: C_3  and  N_4
REMARK    3  A    between atoms: N_18  and  C_19
REMARK    4  A    between atoms: C_19  and  C_20
REMARK                            x       y       z     vdW  Elec       q    Type
REMARK                         _______ _______ _______ _____ _____    ______ ____
ROOT
ATOM      1  O   UNL     1      -1.538  11.400  18.652  0.00  0.00    +0.000 OA
ATOM      2  C   UNL     1      -0.727  11.766  19.506  0.00  0.00    +0.000 C 
ATOM      3  N   UNL     1      -1.127  12.369  20.685  0.00  0.00    +0.000 N 
ATOM      4  C   UNL     1      -0.234  12.841  21.750  0.00  0.00    +0.000 C 
ATOM      5  C   UNL     1      -0.466  14.342  22.029  0.00  0.00    +0.000 C 
ATOM      6  N   UNL     1      -1.880  14.692  22.297  0.00  0.00    +0.000 NA
ATOM      7  C   UNL     1      -2.705  14.197  21.163  0.00  0.00    +0.000 C 
ATOM      8  C   UNL     1      -2.542  12.695  20.875  0.00  0.00    +0.000 C 
ENDROOT
BRANCH   2   9
ATOM      9  C   UNL     1       0.764  11.515  19.290  0.00  0.00    +0.000 C 
BRANCH   9  10
ATOM     10  N   UNL     1       1.228  10.173  19.651  0.00  0.00    +0.000 N 
ATOM     11  C   UNL     1       1.006   9.686  20.926  0.00  0.00    +0.000 A 
ATOM     12  C   UNL     1       1.263   8.419  21.265  0.00  0.00    +0.000 A 
ATOM     13  C   UNL     1       1.738   7.484  20.251  0.00  0.00    +0.000 A 
ATOM     14  C   UNL     1       1.898   6.127  20.542  0.00  0.00    +0.000 A 
ATOM     15  C   UNL     1       2.313   5.241  19.546  0.00  0.00    +0.000 A 
ATOM     16  C   UNL     1       2.594   5.710  18.260  0.00  0.00    +0.000 A 
ATOM     17  C   UNL     1       2.440   7.060  17.960  0.00  0.00    +0.000 A 
ATOM     18  C   UNL     1       2.004   7.944  18.955  0.00  0.00    +0.000 A 
ATOM     19  C   UNL     1       1.754   9.372  18.629  0.00  0.00    +0.000 A 
ATOM     20  O   UNL     1       1.995   9.788  17.499  0.00  0.00    +0.000 OA
ENDBRANCH   9  10
ENDBRANCH   2   9
BRANCH   6  21
ATOM     21  C   UNL     1      -2.294  14.161  23.612  0.00  0.00    +0.000 C 
BRANCH  21  22
ATOM     22  C   UNL     1      -3.786  14.220  23.838  0.00  0.00    +0.000 A 
ATOM     23  C   UNL     1      -4.479  15.447  23.724  0.00  0.00    +0.000 A 
ATOM     24  C   UNL     1      -5.876  15.482  23.726  0.00  0.00    +0.000 A 
ATOM     25  C   UNL     1      -6.539  14.279  23.808  0.00  0.00    +0.000 A 
ATOM     26  C   UNL     1      -5.870  13.087  23.967  0.00  0.00    +0.000 A 
ATOM     27  C   UNL     1      -4.499  13.024  24.024  0.00  0.00    +0.000 A 
ATOM     28  O   UNL     1      -6.709  12.015  23.968  0.00  0.00    +0.000 OA
ATOM     29  C   UNL     1      -7.916  12.659  23.514  0.00  0.00    +0.000 C 
ATOM     30  O   UNL     1      -7.882  14.091  23.677  0.00  0.00    +0.000 OA
ENDBRANCH  21  22
ENDBRANCH   6  21
TORSDOF 4
ENDMDL
MODEL 9
REMARK VINA RESULT:      -7.3      2.987      9.965
REMARK  Name = 
REMARK  4 active torsions:
REMARK  status: ('A' for Active; 'I' for Inactive)
REMARK    1  A    between atoms: C_2  and  C_3
REMARK    2  A    between atoms: C_3  and  N_4
REMARK    3  A    between atoms: N_18  and  C_19
REMARK    4  A    between atoms: C_19  and  C_20
REMARK                            x       y       z     vdW  Elec       q    Type
REMARK                         _______ _______ _______ _____ _____    ______ ____
ROOT
ATOM      1  O   UNL     1       0.776   9.065  17.515  0.00  0.00    +0.000 OA
ATOM      2  C   UNL     1       1.176   9.094  18.681  0.00  0.00    +0.000 C 
ATOM      3  N   UNL     1       0.454   9.711  19.687  0.00  0.00    +0.000 N 
ATOM      4  C   UNL     1       0.857   9.800  21.096  0.00  0.00    +0.000 C 
ATOM      5  C   UNL     1       0.914  11.275  21.553  0.00  0.00    +0.000 C 
ATOM      6  N   UNL     1      -0.328  12.036  21.282  0.00  0.00    +0.000 NA
ATOM      7  C   UNL     1      -0.646  11.908  19.835  0.00  0.00    +0.000 C 
ATOM      8  C   UNL     1      -0.758  10.455  19.342  0.00  0.00    +0.000 C 
ENDROOT
BRANCH   2   9
ATOM      9  C   UNL     1       2.485   8.398  19.050  0.00  0.00    +0.000 C 
BRANCH   9  10
ATOM     10  N   UNL     1       2.370   6.965  19.329  0.00  0.00    +0.000 N 
ATOM     11  C   UNL     1       1.737   6.534  20.481  0.00  0.00    +0.000 A 
ATOM     12  C   UNL     1       1.463   5.247  20.711  0.00  0.00    +0.000 A 
ATOM     13  C   UNL     1       1.782   4.250  19.695  0.00  0.00    +0.000 A 
ATOM     14  C   UNL     1       1.398   2.916  19.851  0.00  0.00    +0.000 A 
ATOM     15  C   UNL     1       1.676   1.985  18.848  0.00  0.00    +0.000 A 
ATOM     16  C   UNL     1       2.358   2.378  17.693  0.00  0.00    +0.000 A 
ATOM     17  C   UNL     1       2.747   3.703  17.529  0.00  0.00    +0.000 A 
ATOM     18  C   UNL     1       2.450   4.640  18.528  0.00  0.00    +0.000 A 
ATOM     19  C   UNL     1       2.784   6.075  18.330  0.00  0.00    +0.000 A 
ATOM     20  O   UNL     1       3.380   6.424  17.316  0.00  0.00    +0.000 OA
ENDBRANCH   9  10
ENDBRANCH   2   9
BRANCH   6  21
ATOM     21  C   UNL     1      -1.411  11.575  22.175  0.00  0.00    +0.000 C 
BRANCH  21  22
ATOM     22  C   UNL     1      -2.152  12.706  22.849  0.00  0.00    +0.000 A 
ATOM     23  C   UNL     1      -1.559  13.985  22.959  0.00  0.00    +0.000 A 
ATOM     24  C   UNL     1      -2.305  15.084  23.390  0.00  0.00    +0.000 A 
ATOM     25  C   UNL     1      -3.638  14.876  23.667  0.00  0.00    +0.000 A 
ATOM     26  C   UNL     1      -4.207  13.624  23.607  0.00  0.00    +0.000 A 
ATOM     27  C   UNL     1      -3.488  12.514  23.240  0.00  0.00    +0.000 A 
ATOM     28  O   UNL     1      -5.544  13.649  23.861  0.00  0.00    +0.000 OA
ATOM     29  C   UNL     1      -5.771  15.071  23.803  0.00  0.00    +0.000 C 
ATOM     30  O   UNL     1      -4.558  15.837  23.954  0.00  0.00    +0.000 OA
ENDBRANCH  21  22
ENDBRANCH   6  21
TORSDOF 4
ENDMDL
