MODEL 1
REMARK VINA RESULT:      -7.2      0.000      0.000
REMARK  Name = 
REMARK  4 active torsions:
REMARK  status: ('A' for Active; 'I' for Inactive)
REMARK    1  A    between atoms: C_1  and  N_2
REMARK    2  A    between atoms: C_3  and  S_4
REMARK    3  A    between atoms: C_13  and  C_14
REMARK    4  A    between atoms: C_16  and  C_17
REMARK                            x       y       z     vdW  Elec       q    Type
REMARK                         _______ _______ _______ _____ _____    ______ ____
ROOT
ATOM      1  C   UNL     1       2.610   4.315  20.366  0.00  0.00    +0.000 C 
ATOM      2  N   UNL     1       3.875   4.747  19.805  0.00  0.00    +0.000 NA
ATOM      3  C   UNL     1       4.400   4.242  18.736  0.00  0.00    +0.000 C 
ATOM      4  N   UNL     1       5.655   4.644  18.304  0.00  0.00    +0.000 N 
ATOM      5  C   UNL     1       6.359   5.635  19.117  0.00  0.00    +0.000 C 
ATOM      6  C   UNL     1       7.789   5.499  18.624  0.00  0.00    +0.000 C 
ATOM      7  N   UNL     1       7.696   4.888  17.289  0.00  0.00    +0.000 NA
ATOM      8  C   UNL     1       6.473   4.418  17.206  0.00  0.00    +0.000 C 
ATOM      9  N   UNL     1       5.961   3.780  16.122  0.00  0.00    +0.000 N 
ATOM     10  C   UNL     1       6.353   3.960  14.802  0.00  0.00    +0.000 A 
ATOM     11  N   UNL     1       7.369   4.772  14.485  0.00  0.00    +0.000 NA
ATOM     12  C   UNL     1       7.658   4.977  13.192  0.00  0.00    +0.000 A 
ATOM     13  C   UNL     1       8.790   5.913  12.898  0.00  0.00    +0.000 C 
ATOM     14  C   UNL     1       6.945   4.377  12.181  0.00  0.00    +0.000 A 
ATOM     15  C   UNL     1       5.906   3.559  12.573  0.00  0.00    +0.000 A 
ATOM     16  C   UNL     1       5.043   2.876  11.556  0.00  0.00    +0.000 C 
ATOM     17  N   UNL     1       5.599   3.346  13.873  0.00  0.00    +0.000 NA
ATOM     18  H   UNL     1       5.060   3.332  16.170  0.00  0.00    +0.000 HD
ENDROOT
BRANCH   3  19
ATOM     19  S   UNL     1       3.566   3.001  17.791  0.00  0.00    +0.000 S 
ATOM     20  H   UNL     1       2.414   3.662  17.635  0.00  0.00    +0.000 HD
ENDBRANCH   3  19
TORSDOF 1
ENDMDL
MODEL 2
REMARK VINA RESULT:      -6.5      5.400      7.703
REMARK  Name = 
REMARK  4 active torsions:
REMARK  status: ('A' for Active; 'I' for Inactive)
REMARK    1  A    between atoms: C_1  and  N_2
REMARK    2  A    between atoms: C_3  and  S_4
REMARK    3  A    between atoms: C_13  and  C_14
REMARK    4  A    between atoms: C_16  and  C_17
REMARK                            x       y       z     vdW  Elec       q    Type
REMARK                         _______ _______ _______ _____ _____    ______ ____
ROOT
ATOM      1  C   UNL     1      -0.991  11.500  21.887  0.00  0.00    +0.000 C 
ATOM      2  N   UNL     1      -0.329  10.862  20.766  0.00  0.00    +0.000 NA
ATOM      3  C   UNL     1       0.410   9.807  20.870  0.00  0.00    +0.000 C 
ATOM      4  N   UNL     1       1.084   9.299  19.769  0.00  0.00    +0.000 N 
ATOM      5  C   UNL     1       0.939  10.020  18.504  0.00  0.00    +0.000 C 
ATOM      6  C   UNL     1       2.103   9.480  17.691  0.00  0.00    +0.000 C 
ATOM      7  N   UNL     1       2.454   8.190  18.304  0.00  0.00    +0.000 NA
ATOM      8  C   UNL     1       1.856   8.185  19.473  0.00  0.00    +0.000 C 
ATOM      9  N   UNL     1       1.911   7.165  20.367  0.00  0.00    +0.000 N 
ATOM     10  C   UNL     1       2.098   5.821  20.069  0.00  0.00    +0.000 A 
ATOM     11  N   UNL     1       2.318   5.413  18.814  0.00  0.00    +0.000 NA
ATOM     12  C   UNL     1       2.412   4.099  18.563  0.00  0.00    +0.000 A 
ATOM     13  C   UNL     1       2.635   3.702  17.137  0.00  0.00    +0.000 C 
ATOM     14  C   UNL     1       2.291   3.157  19.557  0.00  0.00    +0.000 A 
ATOM     15  C   UNL     1       2.056   3.642  20.828  0.00  0.00    +0.000 A 
ATOM     16  C   UNL     1       1.878   2.704  21.984  0.00  0.00    +0.000 C 
ATOM     17  N   UNL     1       1.955   4.964  21.095  0.00  0.00    +0.000 NA
ATOM     18  H   UNL     1       1.537   7.277  21.296  0.00  0.00    +0.000 HD
ENDROOT
BRANCH   3  19
ATOM     19  S   UNL     1       0.625   8.975  22.416  0.00  0.00    +0.000 S 
ATOM     20  H   UNL     1       1.600   8.148  22.023  0.00  0.00    +0.000 HD
ENDBRANCH   3  19
TORSDOF 1
ENDMDL
MODEL 3
REMARK VINA RESULT:      -6.4      1.216      1.216
REMARK  Name = 
REMARK  4 active torsions:
REMARK  status: ('A' for Active; 'I' for Inactive)
REMARK    1  A    between atoms: C_1  and  N_2
REMARK    2  A    between atoms: C_3  and  S_4
REMARK    3  A    between atoms: C_13  and  C_14
REMARK    4  A    between atoms: C_16  and  C_17
REMARK                            x       y       z     vdW  Elec       q    Type
REMARK                         _______ _______ _______ _____ _____    ______ ____
ROOT
ATOM      1  C   UNL     1       2.491   5.494  19.611  0.00  0.00    +0.000 C 
ATOM      2  N   UNL     1       3.665   6.012  18.935  0.00  0.00    +0.000 NA
ATOM      3  C   UNL     1       4.334   5.353  18.047  0.00  0.00    +0.000 C 
ATOM      4  N   UNL     1       5.498   5.876  17.503  0.00  0.00    +0.000 N 
ATOM      5  C   UNL     1       5.940   7.181  17.994  0.00  0.00    +0.000 C 
ATOM      6  C   UNL     1       7.390   7.220  17.543  0.00  0.00    +0.000 C 
ATOM      7  N   UNL     1       7.491   6.257  16.436  0.00  0.00    +0.000 NA
ATOM      8  C   UNL     1       6.397   5.533  16.503  0.00  0.00    +0.000 C 
ATOM      9  N   UNL     1       6.083   4.525  15.651  0.00  0.00    +0.000 N 
ATOM     10  C   UNL     1       6.492   4.409  14.328  0.00  0.00    +0.000 A 
ATOM     11  N   UNL     1       7.332   5.297  13.783  0.00  0.00    +0.000 NA
ATOM     12  C   UNL     1       7.635   5.191  12.481  0.00  0.00    +0.000 A 
ATOM     13  C   UNL     1       8.560   6.226  11.921  0.00  0.00    +0.000 C 
ATOM     14  C   UNL     1       7.112   4.196  11.690  0.00  0.00    +0.000 A 
ATOM     15  C   UNL     1       6.247   3.318  12.310  0.00  0.00    +0.000 A 
ATOM     16  C   UNL     1       5.595   2.211  11.537  0.00  0.00    +0.000 C 
ATOM     17  N   UNL     1       5.928   3.415  13.620  0.00  0.00    +0.000 NA
ATOM     18  H   UNL     1       5.293   3.926  15.834  0.00  0.00    +0.000 HD
ENDROOT
BRANCH   3  19
ATOM     19  S   UNL     1       3.823   3.750  17.501  0.00  0.00    +0.000 S 
ATOM     20  H   UNL     1       4.554   3.718  16.382  0.00  0.00    +0.000 HD
ENDBRANCH   3  19
TORSDOF 1
ENDMDL
MODEL 4
REMARK VINA RESULT:      -6.1      5.275      7.363
REMARK  Name = 
REMARK  4 active torsions:
REMARK  status: ('A' for Active; 'I' for Inactive)
REMARK    1  A    between atoms: C_1  and  N_2
REMARK    2  A    between atoms: C_3  and  S_4
REMARK    3  A    between atoms: C_13  and  C_14
REMARK    4  A    between atoms: C_16  and  C_17
REMARK                            x       y       z     vdW  Elec       q    Type
REMARK                         _______ _______ _______ _____ _____    ______ ____
ROOT
ATOM      1  C   UNL     1      -0.407  11.318  20.535  0.00  0.00    +0.000 C 
ATOM      2  N   UNL     1       0.370  10.470  19.654  0.00  0.00    +0.000 NA
ATOM      3  C   UNL     1       0.936   9.369  20.026  0.00  0.00    +0.000 C 
ATOM      4  N   UNL     1       1.738   8.651  19.152  0.00  0.00    +0.000 N 
ATOM      5  C   UNL     1       1.931   9.205  17.811  0.00  0.00    +0.000 C 
ATOM      6  C   UNL     1       3.150   8.443  17.321  0.00  0.00    +0.000 C 
ATOM      7  N   UNL     1       3.211   7.219  18.135  0.00  0.00    +0.000 NA
ATOM      8  C   UNL     1       2.404   7.434  19.148  0.00  0.00    +0.000 C 
ATOM      9  N   UNL     1       2.158   6.544  20.143  0.00  0.00    +0.000 N 
ATOM     10  C   UNL     1       2.226   5.160  20.043  0.00  0.00    +0.000 A 
ATOM     11  N   UNL     1       2.629   4.566  18.914  0.00  0.00    +0.000 NA
ATOM     12  C   UNL     1       2.601   3.227  18.837  0.00  0.00    +0.000 A 
ATOM     13  C   UNL     1       3.042   2.620  17.542  0.00  0.00    +0.000 C 
ATOM     14  C   UNL     1       2.173   2.446  19.885  0.00  0.00    +0.000 A 
ATOM     15  C   UNL     1       1.763   3.120  21.017  0.00  0.00    +0.000 A 
ATOM     16  C   UNL     1       1.249   2.371  22.209  0.00  0.00    +0.000 C 
ATOM     17  N   UNL     1       1.781   4.469  21.107  0.00  0.00    +0.000 NA
ATOM     18  H   UNL     1       1.629   6.818  20.957  0.00  0.00    +0.000 HD
ENDROOT
BRANCH   3  19
ATOM     19  S   UNL     1       0.743   8.737  21.667  0.00  0.00    +0.000 S 
ATOM     20  H   UNL     1      -0.208   7.840  21.386  0.00  0.00    +0.000 HD
ENDBRANCH   3  19
TORSDOF 1
ENDMDL
MODEL 5
REMARK VINA RESULT:      -5.8      5.676      8.289
REMARK  Name = 
REMARK  4 active torsions:
REMARK  status: ('A' for Active; 'I' for Inactive)
REMARK    1  A    between atoms: C_1  and  N_2
REMARK    2  A    between atoms: C_3  and  S_4
REMARK    3  A    between atoms: C_13  and  C_14
REMARK    4  A    between atoms: C_16  and  C_17
REMARK                            x       y       z     vdW  Elec       q    Type
REMARK                         _______ _______ _______ _____ _____    ______ ____
ROOT
ATOM      1  C   UNL     1       1.295  14.198  20.787  0.00  0.00    +0.000 C 
ATOM      2  N   UNL     1       1.003  12.853  21.241  0.00  0.00    +0.000 NA
ATOM      3  C   UNL     1       1.111  11.801  20.496  0.00  0.00    +0.000 C 
ATOM      4  N   UNL     1       0.731  10.554  20.969  0.00  0.00    +0.000 N 
ATOM      5  C   UNL     1       0.187  10.489  22.325  0.00  0.00    +0.000 C 
ATOM      6  C   UNL     1      -0.500   9.134  22.331  0.00  0.00    +0.000 C 
ATOM      7  N   UNL     1       0.134   8.360  21.253  0.00  0.00    +0.000 NA
ATOM      8  C   UNL     1       0.786   9.239  20.529  0.00  0.00    +0.000 C 
ATOM      9  N   UNL     1       1.524   8.942  19.429  0.00  0.00    +0.000 N 
ATOM     10  C   UNL     1       2.169   7.738  19.174  0.00  0.00    +0.000 A 
ATOM     11  N   UNL     1       2.049   6.697  20.006  0.00  0.00    +0.000 NA
ATOM     12  C   UNL     1       2.754   5.584  19.761  0.00  0.00    +0.000 A 
ATOM     13  C   UNL     1       2.598   4.461  20.739  0.00  0.00    +0.000 C 
ATOM     14  C   UNL     1       3.596   5.477  18.679  0.00  0.00    +0.000 A 
ATOM     15  C   UNL     1       3.681   6.588  17.864  0.00  0.00    +0.000 A 
ATOM     16  C   UNL     1       4.590   6.595  16.672  0.00  0.00    +0.000 C 
ATOM     17  N   UNL     1       2.980   7.719  18.101  0.00  0.00    +0.000 NA
ATOM     18  H   UNL     1       1.893   9.676  18.846  0.00  0.00    +0.000 HD
ENDROOT
BRANCH   3  19
ATOM     19  S   UNL     1       1.717  11.899  18.837  0.00  0.00    +0.000 S 
ATOM     20  H   UNL     1       2.769  11.090  19.000  0.00  0.00    +0.000 HD
ENDBRANCH   3  19
TORSDOF 1
ENDMDL
MODEL 6
REMARK VINA RESULT:      -5.7     11.175     13.531
REMARK  Name = 
REMARK  4 active torsions:
REMARK  status: ('A' for Active; 'I' for Inactive)
REMARK    1  A    between atoms: C_1  and  N_2
REMARK    2  A    between atoms: C_3  and  S_4
REMARK    3  A    between atoms: C_13  and  C_14
REMARK    4  A    between atoms: C_16  and  C_17
REMARK                            x       y       z     vdW  Elec       q    Type
REMARK                         _______ _______ _______ _____ _____    ______ ____
ROOT
ATOM      1  C   UNL     1      -6.839  12.818  23.901  0.00  0.00    +0.000 C 
ATOM      2  N   UNL     1      -6.968  12.687  22.463  0.00  0.00    +0.000 NA
ATOM      3  C   UNL     1      -5.967  12.691  21.646  0.00  0.00    +0.000 C 
ATOM      4  N   UNL     1      -6.169  12.649  20.274  0.00  0.00    +0.000 N 
ATOM      5  C   UNL     1      -7.553  12.624  19.801  0.00  0.00    +0.000 C 
ATOM      6  C   UNL     1      -7.402  13.019  18.342  0.00  0.00    +0.000 C 
ATOM      7  N   UNL     1      -6.007  12.717  17.989  0.00  0.00    +0.000 NA
ATOM      8  C   UNL     1      -5.387  12.544  19.133  0.00  0.00    +0.000 C 
ATOM      9  N   UNL     1      -4.071  12.234  19.262  0.00  0.00    +0.000 N 
ATOM     10  C   UNL     1      -3.297  11.540  18.341  0.00  0.00    +0.000 A 
ATOM     11  N   UNL     1      -3.798  11.161  17.160  0.00  0.00    +0.000 NA
ATOM     12  C   UNL     1      -3.038  10.423  16.337  0.00  0.00    +0.000 A 
ATOM     13  C   UNL     1      -3.661  10.008  15.040  0.00  0.00    +0.000 C 
ATOM     14  C   UNL     1      -1.759  10.045  16.670  0.00  0.00    +0.000 A 
ATOM     15  C   UNL     1      -1.304  10.461  17.904  0.00  0.00    +0.000 A 
ATOM     16  C   UNL     1       0.065  10.083  18.383  0.00  0.00    +0.000 C 
ATOM     17  N   UNL     1      -2.060  11.202  18.746  0.00  0.00    +0.000 NA
ATOM     18  H   UNL     1      -3.629  12.242  20.168  0.00  0.00    +0.000 HD
ENDROOT
BRANCH   3  19
ATOM     19  S   UNL     1      -4.298  12.780  22.225  0.00  0.00    +0.000 S 
ATOM     20  H   UNL     1      -4.372  11.764  23.091  0.00  0.00    +0.000 HD
ENDBRANCH   3  19
TORSDOF 1
ENDMDL
MODEL 7
REMARK VINA RESULT:      -5.4      9.384     13.190
REMARK  Name = 
REMARK  4 active torsions:
REMARK  status: ('A' for Active; 'I' for Inactive)
REMARK    1  A    between atoms: C_1  and  N_2
REMARK    2  A    between atoms: C_3  and  S_4
REMARK    3  A    between atoms: C_13  and  C_14
REMARK    4  A    between atoms: C_16  and  C_17
REMARK                            x       y       z     vdW  Elec       q    Type
REMARK                         _______ _______ _______ _____ _____    ______ ____
ROOT
ATOM      1  C   UNL     1       1.777   9.329  17.903  0.00  0.00    +0.000 C 
ATOM      2  N   UNL     1       1.208   9.308  19.236  0.00  0.00    +0.000 NA
ATOM      3  C   UNL     1       0.669  10.336  19.806  0.00  0.00    +0.000 C 
ATOM      4  N   UNL     1       0.221  10.268  21.117  0.00  0.00    +0.000 N 
ATOM      5  C   UNL     1       0.408   9.000  21.824  0.00  0.00    +0.000 C 
ATOM      6  C   UNL     1       0.232   9.412  23.275  0.00  0.00    +0.000 C 
ATOM      7  N   UNL     1      -0.533  10.668  23.244  0.00  0.00    +0.000 NA
ATOM      8  C   UNL     1      -0.467  11.086  22.001  0.00  0.00    +0.000 C 
ATOM      9  N   UNL     1      -1.053  12.217  21.532  0.00  0.00    +0.000 N 
ATOM     10  C   UNL     1      -2.198  12.820  22.039  0.00  0.00    +0.000 A 
ATOM     11  N   UNL     1      -2.805  12.344  23.133  0.00  0.00    +0.000 NA
ATOM     12  C   UNL     1      -3.952  12.910  23.538  0.00  0.00    +0.000 A 
ATOM     13  C   UNL     1      -4.598  12.320  24.753  0.00  0.00    +0.000 C 
ATOM     14  C   UNL     1      -4.521  13.965  22.866  0.00  0.00    +0.000 A 
ATOM     15  C   UNL     1      -3.850  14.403  21.742  0.00  0.00    +0.000 A 
ATOM     16  C   UNL     1      -4.395  15.528  20.915  0.00  0.00    +0.000 C 
ATOM     17  N   UNL     1      -2.696  13.840  21.319  0.00  0.00    +0.000 NA
ATOM     18  H   UNL     1      -0.859  12.546  20.600  0.00  0.00    +0.000 HD
ENDROOT
BRANCH   3  19
ATOM     19  S   UNL     1       0.500  11.881  18.962  0.00  0.00    +0.000 S 
ATOM     20  H   UNL     1       1.714  11.895  18.403  0.00  0.00    +0.000 HD
ENDBRANCH   3  19
TORSDOF 1
ENDMDL
MODEL 8
REMARK VINA RESULT:      -5.4     11.925     14.009
REMARK  Name = 
REMARK  4 active torsions:
REMARK  status: ('A' for Active; 'I' for Inactive)
REMARK    1  A    between atoms: C_1  and  N_2
REMARK    2  A    between atoms: C_3  and  S_4
REMARK    3  A    between atoms: C_13  and  C_14
REMARK    4  A    between atoms: C_16  and  C_17
REMARK                            x       y       z     vdW  Elec       q    Type
REMARK                         _______ _______ _______ _____ _____    ______ ____
ROOT
ATOM      1  C   UNL     1      -7.845  17.088  18.753  0.00  0.00    +0.000 C 
ATOM      2  N   UNL     1      -6.906  16.221  19.439  0.00  0.00    +0.000 NA
ATOM      3  C   UNL     1      -6.559  15.052  19.011  0.00  0.00    +0.000 C 
ATOM      4  N   UNL     1      -5.722  14.240  19.762  0.00  0.00    +0.000 N 
ATOM      5  C   UNL     1      -5.275  14.754  21.057  0.00  0.00    +0.000 C 
ATOM      6  C   UNL     1      -4.785  13.495  21.751  0.00  0.00    +0.000 C 
ATOM      7  N   UNL     1      -4.497  12.533  20.677  0.00  0.00    +0.000 NA
ATOM      8  C   UNL     1      -5.077  13.022  19.606  0.00  0.00    +0.000 C 
ATOM      9  N   UNL     1      -5.049  12.444  18.378  0.00  0.00    +0.000 N 
ATOM     10  C   UNL     1      -4.048  11.617  17.882  0.00  0.00    +0.000 A 
ATOM     11  N   UNL     1      -3.011  11.251  18.644  0.00  0.00    +0.000 NA
ATOM     12  C   UNL     1      -2.029  10.520  18.097  0.00  0.00    +0.000 A 
ATOM     13  C   UNL     1      -0.882  10.160  18.991  0.00  0.00    +0.000 C 
ATOM     14  C   UNL     1      -2.056  10.131  16.779  0.00  0.00    +0.000 A 
ATOM     15  C   UNL     1      -3.149  10.548  16.045  0.00  0.00    +0.000 A 
ATOM     16  C   UNL     1      -3.269  10.207  14.591  0.00  0.00    +0.000 C 
ATOM     17  N   UNL     1      -4.144  11.289  16.581  0.00  0.00    +0.000 NA
ATOM     18  H   UNL     1      -5.620  12.802  17.629  0.00  0.00    +0.000 HD
ENDROOT
BRANCH   3  19
ATOM     19  S   UNL     1      -7.152  14.415  17.471  0.00  0.00    +0.000 S 
ATOM     20  H   UNL     1      -7.078  15.559  16.782  0.00  0.00    +0.000 HD
ENDBRANCH   3  19
TORSDOF 1
ENDMDL
MODEL 9
REMARK VINA RESULT:      -5.3     10.010     11.944
REMARK  Name = 
REMARK  4 active torsions:
REMARK  status: ('A' for Active; 'I' for Inactive)
REMARK    1  A    between atoms: C_1  and  N_2
REMARK    2  A    between atoms: C_3  and  S_4
REMARK    3  A    between atoms: C_13  and  C_14
REMARK    4  A    between atoms: C_16  and  C_17
REMARK                            x       y       z     vdW  Elec       q    Type
REMARK                         _______ _______ _______ _____ _____    ______ ____
ROOT
ATOM      1  C   UNL     1       1.544   9.268  22.953  0.00  0.00    +0.000 C 
ATOM      2  N   UNL     1       0.335  10.055  22.805  0.00  0.00    +0.000 NA
ATOM      3  C   UNL     1      -0.088  10.520  21.676  0.00  0.00    +0.000 C 
ATOM      4  N   UNL     1      -1.206  11.339  21.619  0.00  0.00    +0.000 N 
ATOM      5  C   UNL     1      -1.862  11.667  22.886  0.00  0.00    +0.000 C 
ATOM      6  C   UNL     1      -2.709  12.869  22.507  0.00  0.00    +0.000 C 
ATOM      7  N   UNL     1      -2.884  12.792  21.049  0.00  0.00    +0.000 NA
ATOM      8  C   UNL     1      -1.988  11.927  20.635  0.00  0.00    +0.000 C 
ATOM      9  N   UNL     1      -1.814  11.551  19.343  0.00  0.00    +0.000 N 
ATOM     10  C   UNL     1      -2.788  11.540  18.352  0.00  0.00    +0.000 A 
ATOM     11  N   UNL     1      -4.026  11.989  18.592  0.00  0.00    +0.000 NA
ATOM     12  C   UNL     1      -4.954  11.883  17.630  0.00  0.00    +0.000 A 
ATOM     13  C   UNL     1      -6.326  12.380  17.964  0.00  0.00    +0.000 C 
ATOM     14  C   UNL     1      -4.672  11.329  16.403  0.00  0.00    +0.000 A 
ATOM     15  C   UNL     1      -3.381  10.878  16.222  0.00  0.00    +0.000 A 
ATOM     16  C   UNL     1      -2.970  10.231  14.934  0.00  0.00    +0.000 C 
ATOM     17  N   UNL     1      -2.435  10.974  17.184  0.00  0.00    +0.000 NA
ATOM     18  H   UNL     1      -1.026  10.981  19.076  0.00  0.00    +0.000 HD
ENDROOT
BRANCH   3  19
ATOM     19  S   UNL     1       0.745  10.166  20.157  0.00  0.00    +0.000 S 
ATOM     20  H   UNL     1       0.955  11.434  19.786  0.00  0.00    +0.000 HD
ENDBRANCH   3  19
TORSDOF 1
ENDMDL
