MODEL 1
REMARK VINA RESULT:      -6.8      0.000      0.000
REMARK  Name = 
REMARK  4 active torsions:
REMARK  status: ('A' for Active; 'I' for Inactive)
REMARK    1  A    between atoms: N_3  and  C_4
REMARK    2  A    between atoms: C_4  and  C_5
REMARK    3  A    between atoms: C_5  and  C_6
REMARK    4  A    between atoms: N_12  and  C_13
REMARK                            x       y       z     vdW  Elec       q    Type
REMARK                         _______ _______ _______ _____ _____    ______ ____
ROOT
ATOM      1  O   UNL     1       3.269   6.579  17.354  0.00  0.00    +0.000 OA
ATOM      2  C   UNL     1       3.824   5.573  17.778  0.00  0.00    +0.000 C 
ATOM      3  N   UNL     1       5.116   5.225  17.480  0.00  0.00    +0.000 N 
ATOM      4  N   UNL     1       3.251   4.680  18.642  0.00  0.00    +0.000 N 
ATOM      5  H   UNL     1       5.435   4.301  17.728  0.00  0.00    +0.000 HD
ATOM      6  H   UNL     1       3.746   3.820  18.814  0.00  0.00    +0.000 HD
ENDROOT
BRANCH   4   7
ATOM      7  C   UNL     1       1.885   4.799  19.140  0.00  0.00    +0.000 C 
ATOM      8  C   UNL     1       1.060   3.535  18.853  0.00  0.00    +0.000 C 
ATOM      9  C   UNL     1       1.500   2.340  19.701  0.00  0.00    +0.000 C 
ATOM     10  C   UNL     1       1.508   2.673  21.190  0.00  0.00    +0.000 C 
ATOM     11  C   UNL     1       2.350   3.910  21.485  0.00  0.00    +0.000 C 
ATOM     12  C   UNL     1       1.906   5.108  20.643  0.00  0.00    +0.000 C 
ENDBRANCH   4   7
BRANCH   3  13
ATOM     13  C   UNL     1       5.925   6.026  16.582  0.00  0.00    +0.000 C 
BRANCH  13  14
ATOM     14  C   UNL     1       7.110   5.238  16.012  0.00  0.00    +0.000 C 
BRANCH  14  15
ATOM     15  C   UNL     1       6.885   4.771  14.590  0.00  0.00    +0.000 C 
ATOM     16  C   UNL     1       5.828   4.008  14.252  0.00  0.00    +0.000 C 
ATOM     17  C   UNL     1       5.570   3.510  12.860  0.00  0.00    +0.000 C 
ATOM     18  C   UNL     1       6.782   3.647  11.940  0.00  0.00    +0.000 C 
ATOM     19  C   UNL     1       7.446   5.007  12.113  0.00  0.00    +0.000 C 
ATOM     20  C   UNL     1       7.897   5.221  13.560  0.00  0.00    +0.000 C 
ENDBRANCH  14  15
ENDBRANCH  13  14
ENDBRANCH   3  13
TORSDOF 4
ENDMDL
MODEL 2
REMARK VINA RESULT:      -6.8      1.899      3.411
REMARK  Name = 
REMARK  4 active torsions:
REMARK  status: ('A' for Active; 'I' for Inactive)
REMARK    1  A    between atoms: N_3  and  C_4
REMARK    2  A    between atoms: C_4  and  C_5
REMARK    3  A    between atoms: C_5  and  C_6
REMARK    4  A    between atoms: N_12  and  C_13
REMARK                            x       y       z     vdW  Elec       q    Type
REMARK                         _______ _______ _______ _____ _____    ______ ____
ROOT
ATOM      1  O   UNL     1       2.518   3.387  16.565  0.00  0.00    +0.000 OA
ATOM      2  C   UNL     1       3.304   3.900  17.351  0.00  0.00    +0.000 C 
ATOM      3  N   UNL     1       4.644   4.061  17.104  0.00  0.00    +0.000 N 
ATOM      4  N   UNL     1       2.953   4.424  18.566  0.00  0.00    +0.000 N 
ATOM      5  H   UNL     1       5.245   4.331  17.866  0.00  0.00    +0.000 HD
ATOM      6  H   UNL     1       3.699   4.692  19.186  0.00  0.00    +0.000 HD
ENDROOT
BRANCH   4   7
ATOM      7  C   UNL     1       1.592   4.404  19.092  0.00  0.00    +0.000 C 
ATOM      8  C   UNL     1       1.010   2.982  19.115  0.00  0.00    +0.000 C 
ATOM      9  C   UNL     1       1.669   2.093  20.172  0.00  0.00    +0.000 C 
ATOM     10  C   UNL     1       1.629   2.734  21.556  0.00  0.00    +0.000 C 
ATOM     11  C   UNL     1       2.232   4.134  21.546  0.00  0.00    +0.000 C 
ATOM     12  C   UNL     1       1.570   5.026  20.495  0.00  0.00    +0.000 C 
ENDBRANCH   4   7
BRANCH   3  13
ATOM     13  C   UNL     1       5.246   3.583  15.874  0.00  0.00    +0.000 C 
BRANCH  13  14
ATOM     14  C   UNL     1       6.557   4.307  15.553  0.00  0.00    +0.000 C 
BRANCH  14  15
ATOM     15  C   UNL     1       6.981   5.281  16.631  0.00  0.00    +0.000 C 
ATOM     16  C   UNL     1       6.756   6.604  16.520  0.00  0.00    +0.000 C 
ATOM     17  C   UNL     1       7.167   7.610  17.556  0.00  0.00    +0.000 C 
ATOM     18  C   UNL     1       8.164   7.050  18.571  0.00  0.00    +0.000 C 
ATOM     19  C   UNL     1       7.747   5.660  19.034  0.00  0.00    +0.000 C 
ATOM     20  C   UNL     1       7.649   4.692  17.853  0.00  0.00    +0.000 C 
ENDBRANCH  14  15
ENDBRANCH  13  14
ENDBRANCH   3  13
TORSDOF 4
ENDMDL
MODEL 3
REMARK VINA RESULT:      -6.8      1.249      1.855
REMARK  Name = 
REMARK  4 active torsions:
REMARK  status: ('A' for Active; 'I' for Inactive)
REMARK    1  A    between atoms: N_3  and  C_4
REMARK    2  A    between atoms: C_4  and  C_5
REMARK    3  A    between atoms: C_5  and  C_6
REMARK    4  A    between atoms: N_12  and  C_13
REMARK                            x       y       z     vdW  Elec       q    Type
REMARK                         _______ _______ _______ _____ _____    ______ ____
ROOT
ATOM      1  O   UNL     1       4.209   3.241  16.904  0.00  0.00    +0.000 OA
ATOM      2  C   UNL     1       4.437   3.995  17.842  0.00  0.00    +0.000 C 
ATOM      3  N   UNL     1       4.984   5.245  17.709  0.00  0.00    +0.000 N 
ATOM      4  N   UNL     1       4.139   3.714  19.149  0.00  0.00    +0.000 N 
ATOM      5  H   UNL     1       5.296   5.724  18.539  0.00  0.00    +0.000 HD
ATOM      6  H   UNL     1       4.497   4.342  19.849  0.00  0.00    +0.000 HD
ENDROOT
BRANCH   4   7
ATOM      7  C   UNL     1       3.541   2.459  19.591  0.00  0.00    +0.000 C 
ATOM      8  C   UNL     1       3.353   2.421  21.115  0.00  0.00    +0.000 C 
ATOM      9  C   UNL     1       2.255   3.371  21.597  0.00  0.00    +0.000 C 
ATOM     10  C   UNL     1       0.936   3.129  20.867  0.00  0.00    +0.000 C 
ATOM     11  C   UNL     1       1.110   3.195  19.354  0.00  0.00    +0.000 C 
ATOM     12  C   UNL     1       2.204   2.240  18.869  0.00  0.00    +0.000 C 
ENDBRANCH   4   7
BRANCH   3  13
ATOM     13  C   UNL     1       5.379   5.761  16.413  0.00  0.00    +0.000 C 
BRANCH  13  14
ATOM     14  C   UNL     1       6.720   5.184  15.945  0.00  0.00    +0.000 C 
BRANCH  14  15
ATOM     15  C   UNL     1       6.707   4.744  14.497  0.00  0.00    +0.000 C 
ATOM     16  C   UNL     1       5.756   3.923  14.014  0.00  0.00    +0.000 C 
ATOM     17  C   UNL     1       5.708   3.449  12.589  0.00  0.00    +0.000 C 
ATOM     18  C   UNL     1       7.013   3.695  11.833  0.00  0.00    +0.000 C 
ATOM     19  C   UNL     1       7.552   5.091  12.116  0.00  0.00    +0.000 C 
ATOM     20  C   UNL     1       7.804   5.292  13.612  0.00  0.00    +0.000 C 
ENDBRANCH  14  15
ENDBRANCH  13  14
ENDBRANCH   3  13
TORSDOF 4
ENDMDL
MODEL 4
REMARK VINA RESULT:      -6.7      2.227      6.112
REMARK  Name = 
REMARK  4 active torsions:
REMARK  status: ('A' for Active; 'I' for Inactive)
REMARK    1  A    between atoms: N_3  and  C_4
REMARK    2  A    between atoms: C_4  and  C_5
REMARK    3  A    between atoms: C_5  and  C_6
REMARK    4  A    between atoms: N_12  and  C_13
REMARK                            x       y       z     vdW  Elec       q    Type
REMARK                         _______ _______ _______ _____ _____    ______ ____
ROOT
ATOM      1  O   UNL     1       2.658   6.750  17.946  0.00  0.00    +0.000 OA
ATOM      2  C   UNL     1       3.478   6.383  18.780  0.00  0.00    +0.000 C 
ATOM      3  N   UNL     1       3.153   5.955  20.041  0.00  0.00    +0.000 N 
ATOM      4  N   UNL     1       4.826   6.308  18.557  0.00  0.00    +0.000 N 
ATOM      5  H   UNL     1       3.893   5.837  20.715  0.00  0.00    +0.000 HD
ATOM      6  H   UNL     1       5.416   6.129  19.352  0.00  0.00    +0.000 HD
ENDROOT
BRANCH   4   7
ATOM      7  C   UNL     1       5.461   6.691  17.300  0.00  0.00    +0.000 C 
ATOM      8  C   UNL     1       6.993   6.630  17.392  0.00  0.00    +0.000 C 
ATOM      9  C   UNL     1       7.521   5.196  17.478  0.00  0.00    +0.000 C 
ATOM     10  C   UNL     1       6.997   4.331  16.336  0.00  0.00    +0.000 C 
ATOM     11  C   UNL     1       5.475   4.364  16.258  0.00  0.00    +0.000 C 
ATOM     12  C   UNL     1       4.945   5.796  16.165  0.00  0.00    +0.000 C 
ENDBRANCH   4   7
BRANCH   3  13
ATOM     13  C   UNL     1       1.778   5.944  20.502  0.00  0.00    +0.000 C 
BRANCH  13  14
ATOM     14  C   UNL     1       1.168   4.539  20.469  0.00  0.00    +0.000 C 
BRANCH  14  15
ATOM     15  C   UNL     1       1.998   3.546  19.685  0.00  0.00    +0.000 C 
ATOM     16  C   UNL     1       1.743   3.272  18.392  0.00  0.00    +0.000 C 
ATOM     17  C   UNL     1       2.530   2.287  17.576  0.00  0.00    +0.000 C 
ATOM     18  C   UNL     1       3.413   1.375  18.428  0.00  0.00    +0.000 C 
ATOM     19  C   UNL     1       4.138   2.171  19.505  0.00  0.00    +0.000 C 
ATOM     20  C   UNL     1       3.147   2.892  20.420  0.00  0.00    +0.000 C 
ENDBRANCH  14  15
ENDBRANCH  13  14
ENDBRANCH   3  13
TORSDOF 4
ENDMDL
MODEL 5
REMARK VINA RESULT:      -6.7      5.548      7.724
REMARK  Name = 
REMARK  4 active torsions:
REMARK  status: ('A' for Active; 'I' for Inactive)
REMARK    1  A    between atoms: N_3  and  C_4
REMARK    2  A    between atoms: C_4  and  C_5
REMARK    3  A    between atoms: C_5  and  C_6
REMARK    4  A    between atoms: N_12  and  C_13
REMARK                            x       y       z     vdW  Elec       q    Type
REMARK                         _______ _______ _______ _____ _____    ______ ____
ROOT
ATOM      1  O   UNL     1       8.220   6.767  18.907  0.00  0.00    +0.000 OA
ATOM      2  C   UNL     1       7.836   7.182  17.821  0.00  0.00    +0.000 C 
ATOM      3  N   UNL     1       7.898   8.496  17.434  0.00  0.00    +0.000 N 
ATOM      4  N   UNL     1       7.331   6.390  16.825  0.00  0.00    +0.000 N 
ATOM      5  H   UNL     1       7.405   8.776  16.600  0.00  0.00    +0.000 HD
ATOM      6  H   UNL     1       6.917   6.851  16.033  0.00  0.00    +0.000 HD
ENDROOT
BRANCH   4   7
ATOM      7  C   UNL     1       7.155   4.946  16.951  0.00  0.00    +0.000 C 
ATOM      8  C   UNL     1       6.052   4.591  17.958  0.00  0.00    +0.000 C 
ATOM      9  C   UNL     1       4.653   4.939  17.446  0.00  0.00    +0.000 C 
ATOM     10  C   UNL     1       4.379   4.320  16.079  0.00  0.00    +0.000 C 
ATOM     11  C   UNL     1       5.456   4.694  15.066  0.00  0.00    +0.000 C 
ATOM     12  C   UNL     1       6.855   4.339  15.573  0.00  0.00    +0.000 C 
ENDBRANCH   4   7
BRANCH   3  13
ATOM     13  C   UNL     1       8.402   9.521  18.326  0.00  0.00    +0.000 C 
BRANCH  13  14
ATOM     14  C   UNL     1       8.702  10.832  17.591  0.00  0.00    +0.000 C 
BRANCH  14  15
ATOM     15  C   UNL     1       9.876  11.587  18.174  0.00  0.00    +0.000 C 
ATOM     16  C   UNL     1      10.383  12.683  17.577  0.00  0.00    +0.000 C 
ATOM     17  C   UNL     1      11.553  13.458  18.110  0.00  0.00    +0.000 C 
ATOM     18  C   UNL     1      12.331  12.703  19.187  0.00  0.00    +0.000 C 
ATOM     19  C   UNL     1      11.384  12.042  20.181  0.00  0.00    +0.000 C 
ATOM     20  C   UNL     1      10.440  11.064  19.477  0.00  0.00    +0.000 C 
ENDBRANCH  14  15
ENDBRANCH  13  14
ENDBRANCH   3  13
TORSDOF 4
ENDMDL
MODEL 6
REMARK VINA RESULT:      -6.6      2.672      6.621
REMARK  Name = 
REMARK  4 active torsions:
REMARK  status: ('A' for Active; 'I' for Inactive)
REMARK    1  A    between atoms: N_3  and  C_4
REMARK    2  A    between atoms: C_4  and  C_5
REMARK    3  A    between atoms: C_5  and  C_6
REMARK    4  A    between atoms: N_12  and  C_13
REMARK                            x       y       z     vdW  Elec       q    Type
REMARK                         _______ _______ _______ _____ _____    ______ ____
ROOT
ATOM      1  O   UNL     1       4.063   2.634  17.593  0.00  0.00    +0.000 OA
ATOM      2  C   UNL     1       4.462   3.217  18.593  0.00  0.00    +0.000 C 
ATOM      3  N   UNL     1       3.865   3.128  19.824  0.00  0.00    +0.000 N 
ATOM      4  N   UNL     1       5.581   4.005  18.634  0.00  0.00    +0.000 N 
ATOM      5  H   UNL     1       4.152   3.771  20.546  0.00  0.00    +0.000 HD
ATOM      6  H   UNL     1       5.735   4.545  19.469  0.00  0.00    +0.000 HD
ENDROOT
BRANCH   4   7
ATOM      7  C   UNL     1       6.423   4.275  17.473  0.00  0.00    +0.000 C 
ATOM      8  C   UNL     1       5.799   5.332  16.550  0.00  0.00    +0.000 C 
ATOM      9  C   UNL     1       5.815   6.733  17.164  0.00  0.00    +0.000 C 
ATOM     10  C   UNL     1       7.215   7.141  17.611  0.00  0.00    +0.000 C 
ATOM     11  C   UNL     1       7.828   6.109  18.553  0.00  0.00    +0.000 C 
ATOM     12  C   UNL     1       7.820   4.709  17.937  0.00  0.00    +0.000 C 
ENDBRANCH   4   7
BRANCH   3  13
ATOM     13  C   UNL     1       2.661   2.345  20.024  0.00  0.00    +0.000 C 
BRANCH  13  14
ATOM     14  C   UNL     1       1.394   3.203  19.949  0.00  0.00    +0.000 C 
BRANCH  14  15
ATOM     15  C   UNL     1       1.673   4.650  19.604  0.00  0.00    +0.000 C 
ATOM     16  C   UNL     1       1.799   5.064  18.329  0.00  0.00    +0.000 C 
ATOM     17  C   UNL     1       2.088   6.485  17.938  0.00  0.00    +0.000 C 
ATOM     18  C   UNL     1       2.569   7.342  19.108  0.00  0.00    +0.000 C 
ATOM     19  C   UNL     1       1.726   7.088  20.352  0.00  0.00    +0.000 C 
ATOM     20  C   UNL     1       1.780   5.615  20.764  0.00  0.00    +0.000 C 
ENDBRANCH  14  15
ENDBRANCH  13  14
ENDBRANCH   3  13
TORSDOF 4
ENDMDL
MODEL 7
REMARK VINA RESULT:      -6.6      2.633      6.625
REMARK  Name = 
REMARK  4 active torsions:
REMARK  status: ('A' for Active; 'I' for Inactive)
REMARK    1  A    between atoms: N_3  and  C_4
REMARK    2  A    between atoms: C_4  and  C_5
REMARK    3  A    between atoms: C_5  and  C_6
REMARK    4  A    between atoms: N_12  and  C_13
REMARK                            x       y       z     vdW  Elec       q    Type
REMARK                         _______ _______ _______ _____ _____    ______ ____
ROOT
ATOM      1  O   UNL     1       4.154   2.777  17.652  0.00  0.00    +0.000 OA
ATOM      2  C   UNL     1       4.511   3.389  18.651  0.00  0.00    +0.000 C 
ATOM      3  N   UNL     1       3.835   3.375  19.844  0.00  0.00    +0.000 N 
ATOM      4  N   UNL     1       5.655   4.136  18.732  0.00  0.00    +0.000 N 
ATOM      5  H   UNL     1       4.100   4.038  20.555  0.00  0.00    +0.000 HD
ATOM      6  H   UNL     1       5.777   4.706  19.552  0.00  0.00    +0.000 HD
ENDROOT
BRANCH   4   7
ATOM      7  C   UNL     1       6.579   4.325  17.619  0.00  0.00    +0.000 C 
ATOM      8  C   UNL     1       6.015   5.292  16.567  0.00  0.00    +0.000 C 
ATOM      9  C   UNL     1       5.969   6.739  17.062  0.00  0.00    +0.000 C 
ATOM     10  C   UNL     1       7.327   7.206  17.576  0.00  0.00    +0.000 C 
ATOM     11  C   UNL     1       7.879   6.266  18.643  0.00  0.00    +0.000 C 
ATOM     12  C   UNL     1       7.933   4.819  18.147  0.00  0.00    +0.000 C 
ENDBRANCH   4   7
BRANCH   3  13
ATOM     13  C   UNL     1       2.591   2.645  19.996  0.00  0.00    +0.000 C 
BRANCH  13  14
ATOM     14  C   UNL     1       1.373   3.493  19.614  0.00  0.00    +0.000 C 
BRANCH  14  15
ATOM     15  C   UNL     1       1.680   4.972  19.521  0.00  0.00    +0.000 C 
ATOM     16  C   UNL     1       1.687   5.764  20.610  0.00  0.00    +0.000 C 
ATOM     17  C   UNL     1       1.974   7.238  20.567  0.00  0.00    +0.000 C 
ATOM     18  C   UNL     1       1.911   7.819  19.155  0.00  0.00    +0.000 C 
ATOM     19  C   UNL     1       2.624   6.911  18.161  0.00  0.00    +0.000 C 
ATOM     20  C   UNL     1       2.002   5.513  18.147  0.00  0.00    +0.000 C 
ENDBRANCH  14  15
ENDBRANCH  13  14
ENDBRANCH   3  13
TORSDOF 4
ENDMDL
MODEL 8
REMARK VINA RESULT:      -6.6      5.479      8.312
REMARK  Name = 
REMARK  4 active torsions:
REMARK  status: ('A' for Active; 'I' for Inactive)
REMARK    1  A    between atoms: N_3  and  C_4
REMARK    2  A    between atoms: C_4  and  C_5
REMARK    3  A    between atoms: C_5  and  C_6
REMARK    4  A    between atoms: N_12  and  C_13
REMARK                            x       y       z     vdW  Elec       q    Type
REMARK                         _______ _______ _______ _____ _____    ______ ____
ROOT
ATOM      1  O   UNL     1       7.703   9.519  17.355  0.00  0.00    +0.000 OA
ATOM      2  C   UNL     1       8.388   9.155  18.303  0.00  0.00    +0.000 C 
ATOM      3  N   UNL     1       8.504   7.851  18.713  0.00  0.00    +0.000 N 
ATOM      4  N   UNL     1       9.167   9.988  19.060  0.00  0.00    +0.000 N 
ATOM      5  H   UNL     1       8.945   7.663  19.599  0.00  0.00    +0.000 HD
ATOM      6  H   UNL     1       9.574   9.606  19.897  0.00  0.00    +0.000 HD
ENDROOT
BRANCH   4   7
ATOM      7  C   UNL     1       9.250  11.430  18.850  0.00  0.00    +0.000 C 
ATOM      8  C   UNL     1       9.413  12.192  20.174  0.00  0.00    +0.000 C 
ATOM      9  C   UNL     1      10.790  11.982  20.808  0.00  0.00    +0.000 C 
ATOM     10  C   UNL     1      11.918  12.308  19.835  0.00  0.00    +0.000 C 
ATOM     11  C   UNL     1      11.778  11.532  18.529  0.00  0.00    +0.000 C 
ATOM     12  C   UNL     1      10.405  11.747  17.890  0.00  0.00    +0.000 C 
ENDBRANCH   4   7
BRANCH   3  13
ATOM     13  C   UNL     1       7.769   6.787  18.056  0.00  0.00    +0.000 C 
BRANCH  13  14
ATOM     14  C   UNL     1       7.250   5.743  19.051  0.00  0.00    +0.000 C 
BRANCH  14  15
ATOM     15  C   UNL     1       5.993   5.045  18.580  0.00  0.00    +0.000 C 
ATOM     16  C   UNL     1       4.894   4.962  19.355  0.00  0.00    +0.000 C 
ATOM     17  C   UNL     1       3.629   4.270  18.937  0.00  0.00    +0.000 C 
ATOM     18  C   UNL     1       3.812   3.374  17.713  0.00  0.00    +0.000 C 
ATOM     19  C   UNL     1       4.643   4.075  16.645  0.00  0.00    +0.000 C 
ATOM     20  C   UNL     1       6.022   4.462  17.185  0.00  0.00    +0.000 C 
ENDBRANCH  14  15
ENDBRANCH  13  14
ENDBRANCH   3  13
TORSDOF 4
ENDMDL
MODEL 9
REMARK VINA RESULT:      -6.6      5.653      7.946
REMARK  Name = 
REMARK  4 active torsions:
REMARK  status: ('A' for Active; 'I' for Inactive)
REMARK    1  A    between atoms: N_3  and  C_4
REMARK    2  A    between atoms: C_4  and  C_5
REMARK    3  A    between atoms: C_5  and  C_6
REMARK    4  A    between atoms: N_12  and  C_13
REMARK                            x       y       z     vdW  Elec       q    Type
REMARK                         _______ _______ _______ _____ _____    ______ ____
ROOT
ATOM      1  O   UNL     1       8.122   6.736  18.930  0.00  0.00    +0.000 OA
ATOM      2  C   UNL     1       7.664   7.342  17.970  0.00  0.00    +0.000 C 
ATOM      3  N   UNL     1       7.958   8.648  17.674  0.00  0.00    +0.000 N 
ATOM      4  N   UNL     1       6.829   6.792  17.036  0.00  0.00    +0.000 N 
ATOM      5  H   UNL     1       7.407   9.118  16.972  0.00  0.00    +0.000 HD
ATOM      6  H   UNL     1       6.403   7.417  16.372  0.00  0.00    +0.000 HD
ENDROOT
BRANCH   4   7
ATOM      7  C   UNL     1       6.352   5.414  17.088  0.00  0.00    +0.000 C 
ATOM      8  C   UNL     1       4.949   5.271  16.478  0.00  0.00    +0.000 C 
ATOM      9  C   UNL     1       4.948   5.447  14.958  0.00  0.00    +0.000 C 
ATOM     10  C   UNL     1       5.949   4.516  14.279  0.00  0.00    +0.000 C 
ATOM     11  C   UNL     1       7.349   4.675  14.861  0.00  0.00    +0.000 C 
ATOM     12  C   UNL     1       7.353   4.492  16.380  0.00  0.00    +0.000 C 
ENDBRANCH   4   7
BRANCH   3  13
ATOM     13  C   UNL     1       8.827   9.437  18.525  0.00  0.00    +0.000 C 
BRANCH  13  14
ATOM     14  C   UNL     1       8.730  10.936  18.221  0.00  0.00    +0.000 C 
BRANCH  14  15
ATOM     15  C   UNL     1      10.037  11.672  18.423  0.00  0.00    +0.000 C 
ATOM     16  C   UNL     1      10.778  11.509  19.537  0.00  0.00    +0.000 C 
ATOM     17  C   UNL     1      12.073  12.225  19.789  0.00  0.00    +0.000 C 
ATOM     18  C   UNL     1      12.300  13.404  18.843  0.00  0.00    +0.000 C 
ATOM     19  C   UNL     1      11.944  13.029  17.410  0.00  0.00    +0.000 C 
ATOM     20  C   UNL     1      10.484  12.583  17.303  0.00  0.00    +0.000 C 
ENDBRANCH  14  15
ENDBRANCH  13  14
ENDBRANCH   3  13
TORSDOF 4
ENDMDL
