MODEL 1
REMARK VINA RESULT:      -7.5      0.000      0.000
REMARK  Name = 
REMARK  8 active torsions:
REMARK  status: ('A' for Active; 'I' for Inactive)
REMARK    1  A    between atoms: C_1  and  C_2
REMARK    2  A    between atoms: C_2  and  N_3
REMARK    3  A    between atoms: N_3  and  C_4
REMARK    4  A    between atoms: C_4  and  C_5
REMARK    5  A    between atoms: N_7  and  C_8
REMARK    6  A    between atoms: C_16  and  C_18
REMARK    7  A    between atoms: C_23  and  S_24
REMARK    8  A    between atoms: S_24  and  C_25
REMARK                            x       y       z     vdW  Elec       q    Type
REMARK                         _______ _______ _______ _____ _____    ______ ____
ROOT
ATOM      1  N   UNL     1       6.126   5.547  18.398  0.00  0.00    +0.000 N 
ATOM      2  C   UNL     1       5.350   4.501  18.947  0.00  0.00    +0.000 C 
ATOM      3  O   UNL     1       5.777   3.791  19.857  0.00  0.00    +0.000 OA
ENDROOT
BRANCH   2   4
ATOM      4  C   UNL     1       3.965   4.238  18.460  0.00  0.00    +0.000 A 
ATOM      5  C   UNL     1       3.755   3.365  17.382  0.00  0.00    +0.000 A 
ATOM      6  C   UNL     1       2.466   3.022  16.990  0.00  0.00    +0.000 A 
ATOM      7  C   UNL     1       1.413   3.638  17.629  0.00  0.00    +0.000 A 
ATOM      8  N   UNL     1       1.573   4.561  18.601  0.00  0.00    +0.000 NA
ATOM      9  C   UNL     1       2.841   4.872  19.005  0.00  0.00    +0.000 A 
BRANCH   9  10
ATOM     10  S   UNL     1       2.881   6.030  20.360  0.00  0.00    +0.000 S 
BRANCH  10  11
ATOM     11  C   UNL     1       2.208   7.531  19.644  0.00  0.00    +0.000 A 
ATOM     12  C   UNL     1       2.381   7.877  18.305  0.00  0.00    +0.000 A 
ATOM     13  C   UNL     1       1.758   9.018  17.775  0.00  0.00    +0.000 A 
ATOM     14  C   UNL     1       0.952   9.816  18.584  0.00  0.00    +0.000 A 
ATOM     15  C   UNL     1       0.768   9.476  19.923  0.00  0.00    +0.000 A 
ATOM     16  C   UNL     1       1.395   8.339  20.452  0.00  0.00    +0.000 A 
ENDBRANCH  10  11
ENDBRANCH   9  10
ENDBRANCH   2   4
BRANCH   1  18
ATOM     17  C   UNL     1       8.061   7.089  18.509  0.00  0.00    +0.000 C 
ATOM     18  C   UNL     1       7.410   5.825  19.051  0.00  0.00    +0.000 C 
ENDBRANCH   1  18
BRANCH   1  19
ATOM     19  C   UNL     1       5.638   6.500  17.391  0.00  0.00    +0.000 C 
BRANCH  19  20
ATOM     20  C   UNL     1       5.737   6.214  15.892  0.00  0.00    +0.000 C 
ATOM     21  O   UNL     1       5.066   6.880  15.100  0.00  0.00    +0.000 OA
ATOM     22  N   UNL     1       6.494   5.113  15.543  0.00  0.00    +0.000 N 
ATOM     23  H   UNL     1       6.574   4.384  16.245  0.00  0.00    +0.000 HD
BRANCH  22  24
ATOM     24  C   UNL     1       6.524   4.680  14.189  0.00  0.00    +0.000 A 
ATOM     25  C   UNL     1       5.553   3.828  13.648  0.00  0.00    +0.000 A 
ATOM     26  F   UNL     1       4.447   3.512  14.341  0.00  0.00    +0.000 F 
ATOM     27  C   UNL     1       5.689   3.327  12.351  0.00  0.00    +0.000 A 
ATOM     28  C   UNL     1       6.794   3.677  11.583  0.00  0.00    +0.000 A 
ATOM     29  C   UNL     1       7.746   4.562  12.094  0.00  0.00    +0.000 A 
ATOM     30  C   UNL     1       7.591   5.071  13.385  0.00  0.00    +0.000 A 
ATOM     31  F   UNL     1       8.533   5.891  13.880  0.00  0.00    +0.000 F 
ENDBRANCH  22  24
ENDBRANCH  19  20
ENDBRANCH   1  19
TORSDOF 7
ENDMDL
MODEL 2
REMARK VINA RESULT:      -7.2      4.159      8.649
REMARK  Name = 
REMARK  8 active torsions:
REMARK  status: ('A' for Active; 'I' for Inactive)
REMARK    1  A    between atoms: C_1  and  C_2
REMARK    2  A    between atoms: C_2  and  N_3
REMARK    3  A    between atoms: N_3  and  C_4
REMARK    4  A    between atoms: C_4  and  C_5
REMARK    5  A    between atoms: N_7  and  C_8
REMARK    6  A    between atoms: C_16  and  C_18
REMARK    7  A    between atoms: C_23  and  S_24
REMARK    8  A    between atoms: S_24  and  C_25
REMARK                            x       y       z     vdW  Elec       q    Type
REMARK                         _______ _______ _______ _____ _____    ______ ____
ROOT
ATOM      1  N   UNL     1       2.192   7.603  19.163  0.00  0.00    +0.000 N 
ATOM      2  C   UNL     1       2.610   6.461  18.445  0.00  0.00    +0.000 C 
ATOM      3  O   UNL     1       2.980   6.535  17.274  0.00  0.00    +0.000 OA
ENDROOT
BRANCH   2   4
ATOM      4  C   UNL     1       2.648   5.119  19.095  0.00  0.00    +0.000 A 
ATOM      5  C   UNL     1       1.451   4.440  19.372  0.00  0.00    +0.000 A 
ATOM      6  C   UNL     1       1.472   3.143  19.873  0.00  0.00    +0.000 A 
ATOM      7  C   UNL     1       2.697   2.590  20.174  0.00  0.00    +0.000 A 
ATOM      8  N   UNL     1       3.865   3.246  20.020  0.00  0.00    +0.000 NA
ATOM      9  C   UNL     1       3.842   4.508  19.498  0.00  0.00    +0.000 A 
BRANCH   9  10
ATOM     10  S   UNL     1       5.469   5.201  19.264  0.00  0.00    +0.000 S 
BRANCH  10  11
ATOM     11  C   UNL     1       5.876   4.749  17.576  0.00  0.00    +0.000 A 
ATOM     12  C   UNL     1       5.091   3.886  16.812  0.00  0.00    +0.000 A 
ATOM     13  C   UNL     1       5.407   3.636  15.467  0.00  0.00    +0.000 A 
ATOM     14  C   UNL     1       6.507   4.255  14.878  0.00  0.00    +0.000 A 
ATOM     15  C   UNL     1       7.294   5.123  15.632  0.00  0.00    +0.000 A 
ATOM     16  C   UNL     1       6.982   5.368  16.977  0.00  0.00    +0.000 A 
ENDBRANCH  10  11
ENDBRANCH   9  10
ENDBRANCH   2   4
BRANCH   1  18
ATOM     17  C   UNL     1       1.066   9.313  17.769  0.00  0.00    +0.000 C 
ATOM     18  C   UNL     1       2.341   8.897  18.486  0.00  0.00    +0.000 C 
ENDBRANCH   1  18
BRANCH   1  19
ATOM     19  C   UNL     1       1.846   7.604  20.591  0.00  0.00    +0.000 C 
BRANCH  19  20
ATOM     20  C   UNL     1       0.702   8.454  21.147  0.00  0.00    +0.000 C 
ATOM     21  O   UNL     1      -0.429   7.971  21.234  0.00  0.00    +0.000 OA
ATOM     22  N   UNL     1       1.009   9.778  21.392  0.00  0.00    +0.000 N 
ATOM     23  H   UNL     1       1.766  10.171  20.843  0.00  0.00    +0.000 HD
BRANCH  22  24
ATOM     24  C   UNL     1      -0.023  10.681  21.768  0.00  0.00    +0.000 A 
ATOM     25  C   UNL     1      -0.713  10.574  22.982  0.00  0.00    +0.000 A 
ATOM     26  F   UNL     1      -0.316   9.709  23.930  0.00  0.00    +0.000 F 
ATOM     27  C   UNL     1      -1.804  11.403  23.257  0.00  0.00    +0.000 A 
ATOM     28  C   UNL     1      -2.210  12.349  22.322  0.00  0.00    +0.000 A 
ATOM     29  C   UNL     1      -1.502  12.497  21.127  0.00  0.00    +0.000 A 
ATOM     30  C   UNL     1      -0.403  11.675  20.871  0.00  0.00    +0.000 A 
ATOM     31  F   UNL     1       0.247  11.801  19.701  0.00  0.00    +0.000 F 
ENDBRANCH  22  24
ENDBRANCH  19  20
ENDBRANCH   1  19
TORSDOF 7
ENDMDL
MODEL 3
REMARK VINA RESULT:      -7.1      4.186      8.757
REMARK  Name = 
REMARK  8 active torsions:
REMARK  status: ('A' for Active; 'I' for Inactive)
REMARK    1  A    between atoms: C_1  and  C_2
REMARK    2  A    between atoms: C_2  and  N_3
REMARK    3  A    between atoms: N_3  and  C_4
REMARK    4  A    between atoms: C_4  and  C_5
REMARK    5  A    between atoms: N_7  and  C_8
REMARK    6  A    between atoms: C_16  and  C_18
REMARK    7  A    between atoms: C_23  and  S_24
REMARK    8  A    between atoms: S_24  and  C_25
REMARK                            x       y       z     vdW  Elec       q    Type
REMARK                         _______ _______ _______ _____ _____    ______ ____
ROOT
ATOM      1  N   UNL     1       2.163   7.703  19.194  0.00  0.00    +0.000 N 
ATOM      2  C   UNL     1       2.593   6.551  18.497  0.00  0.00    +0.000 C 
ATOM      3  O   UNL     1       2.980   6.610  17.331  0.00  0.00    +0.000 OA
ENDROOT
BRANCH   2   4
ATOM      4  C   UNL     1       2.622   5.218  19.166  0.00  0.00    +0.000 A 
ATOM      5  C   UNL     1       1.420   4.567  19.485  0.00  0.00    +0.000 A 
ATOM      6  C   UNL     1       1.429   3.278  20.004  0.00  0.00    +0.000 A 
ATOM      7  C   UNL     1       2.651   2.704  20.280  0.00  0.00    +0.000 A 
ATOM      8  N   UNL     1       3.828   3.335  20.084  0.00  0.00    +0.000 NA
ATOM      9  C   UNL     1       3.815   4.589  19.544  0.00  0.00    +0.000 A 
BRANCH   9  10
ATOM     10  S   UNL     1       5.448   5.246  19.257  0.00  0.00    +0.000 S 
BRANCH  10  11
ATOM     11  C   UNL     1       5.802   4.757  17.567  0.00  0.00    +0.000 A 
ATOM     12  C   UNL     1       4.966   3.920  16.829  0.00  0.00    +0.000 A 
ATOM     13  C   UNL     1       5.244   3.640  15.481  0.00  0.00    +0.000 A 
ATOM     14  C   UNL     1       6.358   4.204  14.864  0.00  0.00    +0.000 A 
ATOM     15  C   UNL     1       7.196   5.047  15.591  0.00  0.00    +0.000 A 
ATOM     16  C   UNL     1       6.921   5.321  16.939  0.00  0.00    +0.000 A 
ENDBRANCH  10  11
ENDBRANCH   9  10
ENDBRANCH   2   4
BRANCH   1  18
ATOM     17  C   UNL     1       1.066   9.378  17.736  0.00  0.00    +0.000 C 
ATOM     18  C   UNL     1       2.321   8.987  18.501  0.00  0.00    +0.000 C 
ENDBRANCH   1  18
BRANCH   1  19
ATOM     19  C   UNL     1       1.795   7.722  20.616  0.00  0.00    +0.000 C 
BRANCH  19  20
ATOM     20  C   UNL     1       0.567   8.478  21.125  0.00  0.00    +0.000 C 
ATOM     21  O   UNL     1      -0.509   7.886  21.237  0.00  0.00    +0.000 OA
ATOM     22  N   UNL     1       0.735   9.838  21.299  0.00  0.00    +0.000 N 
ATOM     23  H   UNL     1       1.451  10.277  20.730  0.00  0.00    +0.000 HD
BRANCH  22  24
ATOM     24  C   UNL     1      -0.386  10.648  21.626  0.00  0.00    +0.000 A 
ATOM     25  C   UNL     1      -0.990  11.509  20.700  0.00  0.00    +0.000 A 
ATOM     26  F   UNL     1      -0.641  11.485  19.403  0.00  0.00    +0.000 F 
ATOM     27  C   UNL     1      -2.009  12.380  21.096  0.00  0.00    +0.000 A 
ATOM     28  C   UNL     1      -2.435  12.394  22.419  0.00  0.00    +0.000 A 
ATOM     29  C   UNL     1      -1.873  11.509  23.342  0.00  0.00    +0.000 A 
ATOM     30  C   UNL     1      -0.869  10.630  22.931  0.00  0.00    +0.000 A 
ATOM     31  F   UNL     1      -0.309   9.810  23.837  0.00  0.00    +0.000 F 
ENDBRANCH  22  24
ENDBRANCH  19  20
ENDBRANCH   1  19
TORSDOF 7
ENDMDL
MODEL 4
REMARK VINA RESULT:      -7.0      2.662      7.330
REMARK  Name = 
REMARK  8 active torsions:
REMARK  status: ('A' for Active; 'I' for Inactive)
REMARK    1  A    between atoms: C_1  and  C_2
REMARK    2  A    between atoms: C_2  and  N_3
REMARK    3  A    between atoms: N_3  and  C_4
REMARK    4  A    between atoms: C_4  and  C_5
REMARK    5  A    between atoms: N_7  and  C_8
REMARK    6  A    between atoms: C_16  and  C_18
REMARK    7  A    between atoms: C_23  and  S_24
REMARK    8  A    between atoms: S_24  and  C_25
REMARK                            x       y       z     vdW  Elec       q    Type
REMARK                         _______ _______ _______ _____ _____    ______ ____
ROOT
ATOM      1  N   UNL     1       4.138   3.483  18.333  0.00  0.00    +0.000 N 
ATOM      2  C   UNL     1       5.257   3.722  17.504  0.00  0.00    +0.000 C 
ATOM      3  O   UNL     1       5.551   2.961  16.583  0.00  0.00    +0.000 OA
ENDROOT
BRANCH   2   4
ATOM      4  C   UNL     1       6.111   4.929  17.699  0.00  0.00    +0.000 A 
ATOM      5  C   UNL     1       6.979   5.004  18.799  0.00  0.00    +0.000 A 
ATOM      6  C   UNL     1       7.862   6.070  18.933  0.00  0.00    +0.000 A 
ATOM      7  C   UNL     1       7.788   7.087  18.008  0.00  0.00    +0.000 A 
ATOM      8  N   UNL     1       6.897   7.104  16.994  0.00  0.00    +0.000 NA
ATOM      9  C   UNL     1       6.053   6.040  16.847  0.00  0.00    +0.000 A 
BRANCH   9  10
ATOM     10  S   UNL     1       5.008   6.166  15.408  0.00  0.00    +0.000 S 
BRANCH  10  11
ATOM     11  C   UNL     1       5.856   5.160  14.188  0.00  0.00    +0.000 A 
ATOM     12  C   UNL     1       5.232   4.125  13.492  0.00  0.00    +0.000 A 
ATOM     13  C   UNL     1       5.918   3.428  12.484  0.00  0.00    +0.000 A 
ATOM     14  C   UNL     1       7.230   3.768  12.163  0.00  0.00    +0.000 A 
ATOM     15  C   UNL     1       7.860   4.804  12.850  0.00  0.00    +0.000 A 
ATOM     16  C   UNL     1       7.177   5.496  13.860  0.00  0.00    +0.000 A 
ENDBRANCH  10  11
ENDBRANCH   9  10
ENDBRANCH   2   4
BRANCH   1  18
ATOM     17  C   UNL     1       2.301   1.997  19.075  0.00  0.00    +0.000 C 
ATOM     18  C   UNL     1       3.273   2.358  17.962  0.00  0.00    +0.000 C 
ENDBRANCH   1  18
BRANCH   1  19
ATOM     19  C   UNL     1       3.667   4.406  19.376  0.00  0.00    +0.000 C 
BRANCH  19  20
ATOM     20  C   UNL     1       2.682   5.536  19.072  0.00  0.00    +0.000 C 
ATOM     21  O   UNL     1       1.814   5.371  18.211  0.00  0.00    +0.000 OA
ATOM     22  N   UNL     1       2.931   6.733  19.713  0.00  0.00    +0.000 N 
ATOM     23  H   UNL     1       3.895   6.905  19.981  0.00  0.00    +0.000 HD
BRANCH  22  24
ATOM     24  C   UNL     1       2.161   7.881  19.383  0.00  0.00    +0.000 A 
ATOM     25  C   UNL     1       2.295   8.554  18.162  0.00  0.00    +0.000 A 
ATOM     26  F   UNL     1       3.043   8.043  17.170  0.00  0.00    +0.000 F 
ATOM     27  C   UNL     1       1.611   9.750  17.929  0.00  0.00    +0.000 A 
ATOM     28  C   UNL     1       0.784  10.280  18.912  0.00  0.00    +0.000 A 
ATOM     29  C   UNL     1       0.606   9.596  20.117  0.00  0.00    +0.000 A 
ATOM     30  C   UNL     1       1.280   8.393  20.332  0.00  0.00    +0.000 A 
ATOM     31  F   UNL     1       1.131   7.763  21.510  0.00  0.00    +0.000 F 
ENDBRANCH  22  24
ENDBRANCH  19  20
ENDBRANCH   1  19
TORSDOF 7
ENDMDL
MODEL 5
REMARK VINA RESULT:      -7.0      1.470      1.886
REMARK  Name = 
REMARK  8 active torsions:
REMARK  status: ('A' for Active; 'I' for Inactive)
REMARK    1  A    between atoms: C_1  and  C_2
REMARK    2  A    between atoms: C_2  and  N_3
REMARK    3  A    between atoms: N_3  and  C_4
REMARK    4  A    between atoms: C_4  and  C_5
REMARK    5  A    between atoms: N_7  and  C_8
REMARK    6  A    between atoms: C_16  and  C_18
REMARK    7  A    between atoms: C_23  and  S_24
REMARK    8  A    between atoms: S_24  and  C_25
REMARK                            x       y       z     vdW  Elec       q    Type
REMARK                         _______ _______ _______ _____ _____    ______ ____
ROOT
ATOM      1  N   UNL     1       6.238   5.675  17.280  0.00  0.00    +0.000 N 
ATOM      2  C   UNL     1       5.448   5.305  18.391  0.00  0.00    +0.000 C 
ATOM      3  O   UNL     1       5.880   5.372  19.541  0.00  0.00    +0.000 OA
ENDROOT
BRANCH   2   4
ATOM      4  C   UNL     1       4.041   4.844  18.210  0.00  0.00    +0.000 A 
ATOM      5  C   UNL     1       3.738   3.474  18.266  0.00  0.00    +0.000 A 
ATOM      6  C   UNL     1       2.420   3.038  18.213  0.00  0.00    +0.000 A 
ATOM      7  C   UNL     1       1.437   3.981  18.009  0.00  0.00    +0.000 A 
ATOM      8  N   UNL     1       1.694   5.296  17.848  0.00  0.00    +0.000 NA
ATOM      9  C   UNL     1       2.988   5.725  17.932  0.00  0.00    +0.000 A 
BRANCH   9  10
ATOM     10  S   UNL     1       3.151   7.496  17.796  0.00  0.00    +0.000 S 
BRANCH  10  11
ATOM     11  C   UNL     1       2.017   8.115  19.041  0.00  0.00    +0.000 A 
ATOM     12  C   UNL     1       1.906   7.553  20.312  0.00  0.00    +0.000 A 
ATOM     13  C   UNL     1       1.067   8.133  21.278  0.00  0.00    +0.000 A 
ATOM     14  C   UNL     1       0.341   9.282  20.978  0.00  0.00    +0.000 A 
ATOM     15  C   UNL     1       0.450   9.855  19.712  0.00  0.00    +0.000 A 
ATOM     16  C   UNL     1       1.283   9.273  18.746  0.00  0.00    +0.000 A 
ENDBRANCH  10  11
ENDBRANCH   9  10
ENDBRANCH   2   4
BRANCH   1  18
ATOM     17  C   UNL     1       7.528   7.781  17.472  0.00  0.00    +0.000 C 
ATOM     18  C   UNL     1       7.550   6.263  17.573  0.00  0.00    +0.000 C 
ENDBRANCH   1  18
BRANCH   1  19
ATOM     19  C   UNL     1       5.749   5.724  15.895  0.00  0.00    +0.000 C 
BRANCH  19  20
ATOM     20  C   UNL     1       5.907   4.541  14.938  0.00  0.00    +0.000 C 
ATOM     21  O   UNL     1       6.268   3.447  15.378  0.00  0.00    +0.000 OA
ATOM     22  N   UNL     1       5.755   4.835  13.597  0.00  0.00    +0.000 N 
ATOM     23  H   UNL     1       5.956   5.791  13.322  0.00  0.00    +0.000 HD
BRANCH  22  24
ATOM     24  C   UNL     1       6.029   3.836  12.624  0.00  0.00    +0.000 A 
ATOM     25  C   UNL     1       5.057   2.932  12.177  0.00  0.00    +0.000 A 
ATOM     26  F   UNL     1       3.767   3.075  12.524  0.00  0.00    +0.000 F 
ATOM     27  C   UNL     1       5.398   1.887  11.314  0.00  0.00    +0.000 A 
ATOM     28  C   UNL     1       6.714   1.740  10.888  0.00  0.00    +0.000 A 
ATOM     29  C   UNL     1       7.684   2.661  11.290  0.00  0.00    +0.000 A 
ATOM     30  C   UNL     1       7.328   3.712  12.137  0.00  0.00    +0.000 A 
ATOM     31  F   UNL     1       8.277   4.569  12.548  0.00  0.00    +0.000 F 
ENDBRANCH  22  24
ENDBRANCH  19  20
ENDBRANCH   1  19
TORSDOF 7
ENDMDL
MODEL 6
REMARK VINA RESULT:      -6.8      0.398      1.576
REMARK  Name = 
REMARK  8 active torsions:
REMARK  status: ('A' for Active; 'I' for Inactive)
REMARK    1  A    between atoms: C_1  and  C_2
REMARK    2  A    between atoms: C_2  and  N_3
REMARK    3  A    between atoms: N_3  and  C_4
REMARK    4  A    between atoms: C_4  and  C_5
REMARK    5  A    between atoms: N_7  and  C_8
REMARK    6  A    between atoms: C_16  and  C_18
REMARK    7  A    between atoms: C_23  and  S_24
REMARK    8  A    between atoms: S_24  and  C_25
REMARK                            x       y       z     vdW  Elec       q    Type
REMARK                         _______ _______ _______ _____ _____    ______ ____
ROOT
ATOM      1  N   UNL     1       6.073   5.587  18.499  0.00  0.00    +0.000 N 
ATOM      2  C   UNL     1       5.242   4.569  19.017  0.00  0.00    +0.000 C 
ATOM      3  O   UNL     1       5.601   3.860  19.956  0.00  0.00    +0.000 OA
ENDROOT
BRANCH   2   4
ATOM      4  C   UNL     1       3.879   4.334  18.459  0.00  0.00    +0.000 A 
ATOM      5  C   UNL     1       3.710   3.485  17.355  0.00  0.00    +0.000 A 
ATOM      6  C   UNL     1       2.437   3.167  16.894  0.00  0.00    +0.000 A 
ATOM      7  C   UNL     1       1.362   3.786  17.495  0.00  0.00    +0.000 A 
ATOM      8  N   UNL     1       1.488   4.688  18.491  0.00  0.00    +0.000 NA
ATOM      9  C   UNL     1       2.738   4.973  18.962  0.00  0.00    +0.000 A 
BRANCH   9  10
ATOM     10  S   UNL     1       2.728   6.104  20.340  0.00  0.00    +0.000 S 
BRANCH  10  11
ATOM     11  C   UNL     1       2.149   7.640  19.614  0.00  0.00    +0.000 A 
ATOM     12  C   UNL     1       2.426   8.008  18.298  0.00  0.00    +0.000 A 
ATOM     13  C   UNL     1       1.874   9.178  17.752  0.00  0.00    +0.000 A 
ATOM     14  C   UNL     1       1.035   9.982  18.521  0.00  0.00    +0.000 A 
ATOM     15  C   UNL     1       0.748   9.619  19.835  0.00  0.00    +0.000 A 
ATOM     16  C   UNL     1       1.304   8.454  20.381  0.00  0.00    +0.000 A 
ENDBRANCH  10  11
ENDBRANCH   9  10
ENDBRANCH   2   4
BRANCH   1  18
ATOM     17  C   UNL     1       8.443   4.913  18.759  0.00  0.00    +0.000 C 
ATOM     18  C   UNL     1       7.327   5.841  19.217  0.00  0.00    +0.000 C 
ENDBRANCH   1  18
BRANCH   1  19
ATOM     19  C   UNL     1       5.665   6.539  17.456  0.00  0.00    +0.000 C 
BRANCH  19  20
ATOM     20  C   UNL     1       5.804   6.217  15.967  0.00  0.00    +0.000 C 
ATOM     21  O   UNL     1       5.004   6.700  15.163  0.00  0.00    +0.000 OA
ATOM     22  N   UNL     1       6.765   5.278  15.648  0.00  0.00    +0.000 N 
ATOM     23  H   UNL     1       6.998   4.611  16.375  0.00  0.00    +0.000 HD
BRANCH  22  24
ATOM     24  C   UNL     1       6.868   4.805  14.311  0.00  0.00    +0.000 A 
ATOM     25  C   UNL     1       7.799   5.317  13.400  0.00  0.00    +0.000 A 
ATOM     26  F   UNL     1       8.760   6.168  13.796  0.00  0.00    +0.000 F 
ATOM     27  C   UNL     1       7.783   4.913  12.061  0.00  0.00    +0.000 A 
ATOM     28  C   UNL     1       6.839   3.991  11.626  0.00  0.00    +0.000 A 
ATOM     29  C   UNL     1       5.933   3.439  12.534  0.00  0.00    +0.000 A 
ATOM     30  C   UNL     1       5.970   3.835  13.872  0.00  0.00    +0.000 A 
ATOM     31  F   UNL     1       5.069   3.326  14.729  0.00  0.00    +0.000 F 
ENDBRANCH  22  24
ENDBRANCH  19  20
ENDBRANCH   1  19
TORSDOF 7
ENDMDL
MODEL 7
REMARK VINA RESULT:      -6.7      0.872      1.252
REMARK  Name = 
REMARK  8 active torsions:
REMARK  status: ('A' for Active; 'I' for Inactive)
REMARK    1  A    between atoms: C_1  and  C_2
REMARK    2  A    between atoms: C_2  and  N_3
REMARK    3  A    between atoms: N_3  and  C_4
REMARK    4  A    between atoms: C_4  and  C_5
REMARK    5  A    between atoms: N_7  and  C_8
REMARK    6  A    between atoms: C_16  and  C_18
REMARK    7  A    between atoms: C_23  and  S_24
REMARK    8  A    between atoms: S_24  and  C_25
REMARK                            x       y       z     vdW  Elec       q    Type
REMARK                         _______ _______ _______ _____ _____    ______ ____
ROOT
ATOM      1  N   UNL     1       5.457   5.059  18.409  0.00  0.00    +0.000 N 
ATOM      2  C   UNL     1       4.831   4.076  19.209  0.00  0.00    +0.000 C 
ATOM      3  O   UNL     1       5.408   3.558  20.163  0.00  0.00    +0.000 OA
ENDROOT
BRANCH   2   4
ATOM      4  C   UNL     1       3.427   3.651  18.940  0.00  0.00    +0.000 A 
ATOM      5  C   UNL     1       3.163   2.684  17.957  0.00  0.00    +0.000 A 
ATOM      6  C   UNL     1       1.874   2.195  17.773  0.00  0.00    +0.000 A 
ATOM      7  C   UNL     1       0.860   2.758  18.517  0.00  0.00    +0.000 A 
ATOM      8  N   UNL     1       1.055   3.761  19.399  0.00  0.00    +0.000 NA
ATOM      9  C   UNL     1       2.328   4.216  19.599  0.00  0.00    +0.000 A 
BRANCH   9  10
ATOM     10  S   UNL     1       2.433   5.471  20.862  0.00  0.00    +0.000 S 
BRANCH  10  11
ATOM     11  C   UNL     1       1.964   6.972  19.997  0.00  0.00    +0.000 A 
ATOM     12  C   UNL     1       1.366   8.059  20.634  0.00  0.00    +0.000 A 
ATOM     13  C   UNL     1       1.102   9.243  19.927  0.00  0.00    +0.000 A 
ATOM     14  C   UNL     1       1.441   9.348  18.581  0.00  0.00    +0.000 A 
ATOM     15  C   UNL     1       2.045   8.269  17.937  0.00  0.00    +0.000 A 
ATOM     16  C   UNL     1       2.303   7.084  18.642  0.00  0.00    +0.000 A 
ENDBRANCH  10  11
ENDBRANCH   9  10
ENDBRANCH   2   4
BRANCH   1  18
ATOM     17  C   UNL     1       7.904   4.807  18.119  0.00  0.00    +0.000 C 
ATOM     18  C   UNL     1       6.778   5.522  18.850  0.00  0.00    +0.000 C 
ENDBRANCH   1  18
BRANCH   1  19
ATOM     19  C   UNL     1       4.789   5.796  17.327  0.00  0.00    +0.000 C 
BRANCH  19  20
ATOM     20  C   UNL     1       5.295   5.751  15.885  0.00  0.00    +0.000 C 
ATOM     21  O   UNL     1       5.187   6.751  15.171  0.00  0.00    +0.000 OA
ATOM     22  N   UNL     1       5.726   4.516  15.443  0.00  0.00    +0.000 N 
ATOM     23  H   UNL     1       5.322   3.708  15.905  0.00  0.00    +0.000 HD
BRANCH  22  24
ATOM     24  C   UNL     1       6.075   4.341  14.075  0.00  0.00    +0.000 A 
ATOM     25  C   UNL     1       5.260   3.647  13.173  0.00  0.00    +0.000 A 
ATOM     26  F   UNL     1       4.022   3.255  13.517  0.00  0.00    +0.000 F 
ATOM     27  C   UNL     1       5.698   3.389  11.870  0.00  0.00    +0.000 A 
ATOM     28  C   UNL     1       6.952   3.828  11.460  0.00  0.00    +0.000 A 
ATOM     29  C   UNL     1       7.755   4.561  12.336  0.00  0.00    +0.000 A 
ATOM     30  C   UNL     1       7.300   4.829  13.629  0.00  0.00    +0.000 A 
ATOM     31  F   UNL     1       8.097   5.502  14.475  0.00  0.00    +0.000 F 
ENDBRANCH  22  24
ENDBRANCH  19  20
ENDBRANCH   1  19
TORSDOF 7
ENDMDL
MODEL 8
REMARK VINA RESULT:      -6.7      4.209      8.616
REMARK  Name = 
REMARK  8 active torsions:
REMARK  status: ('A' for Active; 'I' for Inactive)
REMARK    1  A    between atoms: C_1  and  C_2
REMARK    2  A    between atoms: C_2  and  N_3
REMARK    3  A    between atoms: N_3  and  C_4
REMARK    4  A    between atoms: C_4  and  C_5
REMARK    5  A    between atoms: N_7  and  C_8
REMARK    6  A    between atoms: C_16  and  C_18
REMARK    7  A    between atoms: C_23  and  S_24
REMARK    8  A    between atoms: S_24  and  C_25
REMARK                            x       y       z     vdW  Elec       q    Type
REMARK                         _______ _______ _______ _____ _____    ______ ____
ROOT
ATOM      1  N   UNL     1       2.160   7.612  19.202  0.00  0.00    +0.000 N 
ATOM      2  C   UNL     1       2.542   6.386  18.614  0.00  0.00    +0.000 C 
ATOM      3  O   UNL     1       2.803   6.300  17.415  0.00  0.00    +0.000 OA
ENDROOT
BRANCH   2   4
ATOM      4  C   UNL     1       2.672   5.149  19.437  0.00  0.00    +0.000 A 
ATOM      5  C   UNL     1       2.009   5.055  20.671  0.00  0.00    +0.000 A 
ATOM      6  C   UNL     1       2.028   3.869  21.396  0.00  0.00    +0.000 A 
ATOM      7  C   UNL     1       2.793   2.830  20.912  0.00  0.00    +0.000 A 
ATOM      8  N   UNL     1       3.528   2.914  19.783  0.00  0.00    +0.000 NA
ATOM      9  C   UNL     1       3.481   4.070  19.057  0.00  0.00    +0.000 A 
BRANCH   9  10
ATOM     10  S   UNL     1       4.425   3.989  17.546  0.00  0.00    +0.000 S 
BRANCH  10  11
ATOM     11  C   UNL     1       5.849   5.026  17.889  0.00  0.00    +0.000 A 
ATOM     12  C   UNL     1       6.312   5.995  17.000  0.00  0.00    +0.000 A 
ATOM     13  C   UNL     1       7.376   6.840  17.356  0.00  0.00    +0.000 A 
ATOM     14  C   UNL     1       7.977   6.723  18.607  0.00  0.00    +0.000 A 
ATOM     15  C   UNL     1       7.517   5.760  19.504  0.00  0.00    +0.000 A 
ATOM     16  C   UNL     1       6.458   4.913  19.146  0.00  0.00    +0.000 A 
ENDBRANCH  10  11
ENDBRANCH   9  10
ENDBRANCH   2   4
BRANCH   1  18
ATOM     17  C   UNL     1       0.840   9.183  17.815  0.00  0.00    +0.000 C 
ATOM     18  C   UNL     1       2.214   8.799  18.342  0.00  0.00    +0.000 C 
ENDBRANCH   1  18
BRANCH   1  19
ATOM     19  C   UNL     1       1.943   7.808  20.643  0.00  0.00    +0.000 C 
BRANCH  19  20
ATOM     20  C   UNL     1       0.750   8.600  21.181  0.00  0.00    +0.000 C 
ATOM     21  O   UNL     1      -0.353   8.055  21.268  0.00  0.00    +0.000 OA
ATOM     22  N   UNL     1       0.980   9.942  21.410  0.00  0.00    +0.000 N 
ATOM     23  H   UNL     1       1.717  10.371  20.860  0.00  0.00    +0.000 HD
BRANCH  22  24
ATOM     24  C   UNL     1      -0.103  10.790  21.769  0.00  0.00    +0.000 A 
ATOM     25  C   UNL     1      -0.791  10.662  22.982  0.00  0.00    +0.000 A 
ATOM     26  F   UNL     1      -0.350   9.835  23.944  0.00  0.00    +0.000 F 
ATOM     27  C   UNL     1      -1.929  11.432  23.240  0.00  0.00    +0.000 A 
ATOM     28  C   UNL     1      -2.384  12.339  22.290  0.00  0.00    +0.000 A 
ATOM     29  C   UNL     1      -1.681  12.509  21.096  0.00  0.00    +0.000 A 
ATOM     30  C   UNL     1      -0.535  11.748  20.856  0.00  0.00    +0.000 A 
ATOM     31  F   UNL     1       0.111  11.893  19.686  0.00  0.00    +0.000 F 
ENDBRANCH  22  24
ENDBRANCH  19  20
ENDBRANCH   1  19
TORSDOF 7
ENDMDL
MODEL 9
REMARK VINA RESULT:      -6.7      4.186      8.668
REMARK  Name = 
REMARK  8 active torsions:
REMARK  status: ('A' for Active; 'I' for Inactive)
REMARK    1  A    between atoms: C_1  and  C_2
REMARK    2  A    between atoms: C_2  and  N_3
REMARK    3  A    between atoms: N_3  and  C_4
REMARK    4  A    between atoms: C_4  and  C_5
REMARK    5  A    between atoms: N_7  and  C_8
REMARK    6  A    between atoms: C_16  and  C_18
REMARK    7  A    between atoms: C_23  and  S_24
REMARK    8  A    between atoms: S_24  and  C_25
REMARK                            x       y       z     vdW  Elec       q    Type
REMARK                         _______ _______ _______ _____ _____    ______ ____
ROOT
ATOM      1  N   UNL     1       2.192   7.692  19.129  0.00  0.00    +0.000 N 
ATOM      2  C   UNL     1       2.576   6.463  18.546  0.00  0.00    +0.000 C 
ATOM      3  O   UNL     1       2.861   6.378  17.352  0.00  0.00    +0.000 OA
ENDROOT
BRANCH   2   4
ATOM      4  C   UNL     1       2.679   5.224  19.369  0.00  0.00    +0.000 A 
ATOM      5  C   UNL     1       2.002   5.138  20.596  0.00  0.00    +0.000 A 
ATOM      6  C   UNL     1       1.996   3.951  21.319  0.00  0.00    +0.000 A 
ATOM      7  C   UNL     1       2.751   2.902  20.842  0.00  0.00    +0.000 A 
ATOM      8  N   UNL     1       3.499   2.977  19.721  0.00  0.00    +0.000 NA
ATOM      9  C   UNL     1       3.477   4.134  18.996  0.00  0.00    +0.000 A 
BRANCH   9  10
ATOM     10  S   UNL     1       4.436   4.041  17.495  0.00  0.00    +0.000 S 
BRANCH  10  11
ATOM     11  C   UNL     1       5.858   5.078  17.846  0.00  0.00    +0.000 A 
ATOM     12  C   UNL     1       6.322   6.052  16.963  0.00  0.00    +0.000 A 
ATOM     13  C   UNL     1       7.385   6.896  17.324  0.00  0.00    +0.000 A 
ATOM     14  C   UNL     1       7.983   6.773  18.576  0.00  0.00    +0.000 A 
ATOM     15  C   UNL     1       7.522   5.806  19.468  0.00  0.00    +0.000 A 
ATOM     16  C   UNL     1       6.465   4.960  19.104  0.00  0.00    +0.000 A 
ENDBRANCH  10  11
ENDBRANCH   9  10
ENDBRANCH   2   4
BRANCH   1  18
ATOM     17  C   UNL     1       0.920   9.253  17.688  0.00  0.00    +0.000 C 
ATOM     18  C   UNL     1       2.273   8.880  18.272  0.00  0.00    +0.000 C 
ENDBRANCH   1  18
BRANCH   1  19
ATOM     19  C   UNL     1       1.947   7.886  20.565  0.00  0.00    +0.000 C 
BRANCH  19  20
ATOM     20  C   UNL     1       0.693   8.592  21.084  0.00  0.00    +0.000 C 
ATOM     21  O   UNL     1      -0.360   7.959  21.194  0.00  0.00    +0.000 OA
ATOM     22  N   UNL     1       0.810   9.955  21.269  0.00  0.00    +0.000 N 
ATOM     23  H   UNL     1       1.507  10.426  20.702  0.00  0.00    +0.000 HD
BRANCH  22  24
ATOM     24  C   UNL     1      -0.340  10.721  21.606  0.00  0.00    +0.000 A 
ATOM     25  C   UNL     1      -0.961  11.587  20.699  0.00  0.00    +0.000 A 
ATOM     26  F   UNL     1      -0.599  11.611  19.405  0.00  0.00    +0.000 F 
ATOM     27  C   UNL     1      -2.011  12.414  21.108  0.00  0.00    +0.000 A 
ATOM     28  C   UNL     1      -2.451  12.377  22.426  0.00  0.00    +0.000 A 
ATOM     29  C   UNL     1      -1.870  11.485  23.330  0.00  0.00    +0.000 A 
ATOM     30  C   UNL     1      -0.834  10.650  22.906  0.00  0.00    +0.000 A 
ATOM     31  F   UNL     1      -0.257   9.823  23.794  0.00  0.00    +0.000 F 
ENDBRANCH  22  24
ENDBRANCH  19  20
ENDBRANCH   1  19
TORSDOF 7
ENDMDL
