MODEL 1
REMARK VINA RESULT:      -7.8      0.000      0.000
REMARK  Name = 
REMARK  5 active torsions:
REMARK  status: ('A' for Active; 'I' for Inactive)
REMARK    1  A    between atoms: C_1  and  C_2
REMARK    2  A    between atoms: C_2  and  O_3
REMARK    3  A    between atoms: O_3  and  C_4
REMARK    4  A    between atoms: C_9  and  N_10
REMARK    5  A    between atoms: C_11  and  C_13
REMARK                            x       y       z     vdW  Elec       q    Type
REMARK                         _______ _______ _______ _____ _____    ______ ____
ROOT
ATOM      1  N   UNL     1       4.429   6.952  17.576  0.00  0.00    +0.000 N 
ATOM      2  C   UNL     1       3.174   6.589  18.056  0.00  0.00    +0.000 C 
ATOM      3  O   UNL     1       2.649   5.486  17.934  0.00  0.00    +0.000 OA
ATOM      4  H   UNL     1       4.884   7.787  17.928  0.00  0.00    +0.000 HD
ENDROOT
BRANCH   2   5
ATOM      5  C   UNL     1       2.394   7.578  18.834  0.00  0.00    +0.000 A 
ATOM      6  C   UNL     1       1.867   8.760  18.323  0.00  0.00    +0.000 A 
ATOM      7  C   UNL     1       1.080   9.574  19.152  0.00  0.00    +0.000 A 
ATOM      8  C   UNL     1       0.859   9.184  20.477  0.00  0.00    +0.000 A 
ATOM      9  N   UNL     1       0.118  10.024  21.351  0.00  0.00    +0.000 N 
ATOM     10  C   UNL     1      -0.128   9.804  22.684  0.00  0.00    +0.000 A 
ATOM     11  N   UNL     1      -0.820  10.797  23.193  0.00  0.00    +0.000 NA
ATOM     12  C   UNL     1      -0.984  11.623  22.122  0.00  0.00    +0.000 A 
ATOM     13  N   UNL     1      -0.436  11.208  20.978  0.00  0.00    +0.000 NA
ATOM     14  N   UNL     1       1.344   8.024  20.986  0.00  0.00    +0.000 NA
ATOM     15  C   UNL     1       2.079   7.247  20.152  0.00  0.00    +0.000 A 
ENDBRANCH   2   5
BRANCH   1  21
ATOM     16  C   UNL     1       6.271   5.322  17.383  0.00  0.00    +0.000 A 
ATOM     17  C   UNL     1       7.002   4.415  16.592  0.00  0.00    +0.000 A 
ATOM     18  C   UNL     1       6.814   4.347  15.212  0.00  0.00    +0.000 A 
ATOM     19  C   UNL     1       5.884   5.176  14.607  0.00  0.00    +0.000 A 
ATOM     20  C   UNL     1       5.114   6.039  15.387  0.00  0.00    +0.000 A 
ATOM     21  C   UNL     1       5.262   6.105  16.781  0.00  0.00    +0.000 A 
BRANCH  16  22
ATOM     22  O   UNL     1       6.495   5.479  18.737  0.00  0.00    +0.000 OA
BRANCH  22  24
ATOM     23  C   UNL     1       8.097   7.270  18.459  0.00  0.00    +0.000 C 
ATOM     24  C   UNL     1       7.826   5.911  19.071  0.00  0.00    +0.000 C 
ENDBRANCH  22  24
ENDBRANCH  16  22
ENDBRANCH   1  21
TORSDOF 4
ENDMDL
MODEL 2
REMARK VINA RESULT:      -7.3      0.939      1.453
REMARK  Name = 
REMARK  5 active torsions:
REMARK  status: ('A' for Active; 'I' for Inactive)
REMARK    1  A    between atoms: C_1  and  C_2
REMARK    2  A    between atoms: C_2  and  O_3
REMARK    3  A    between atoms: O_3  and  C_4
REMARK    4  A    between atoms: C_9  and  N_10
REMARK    5  A    between atoms: C_11  and  C_13
REMARK                            x       y       z     vdW  Elec       q    Type
REMARK                         _______ _______ _______ _____ _____    ______ ____
ROOT
ATOM      1  N   UNL     1       4.411   6.920  17.495  0.00  0.00    +0.000 N 
ATOM      2  C   UNL     1       3.190   6.509  18.022  0.00  0.00    +0.000 C 
ATOM      3  O   UNL     1       2.743   5.366  17.990  0.00  0.00    +0.000 OA
ATOM      4  H   UNL     1       4.810   7.809  17.777  0.00  0.00    +0.000 HD
ENDROOT
BRANCH   2   5
ATOM      5  C   UNL     1       2.352   7.496  18.737  0.00  0.00    +0.000 A 
ATOM      6  C   UNL     1       2.023   7.435  20.089  0.00  0.00    +0.000 A 
ATOM      7  C   UNL     1       1.282   8.480  20.662  0.00  0.00    +0.000 A 
ATOM      8  C   UNL     1       0.879   9.549  19.856  0.00  0.00    +0.000 A 
ATOM      9  N   UNL     1       0.075  10.586  20.401  0.00  0.00    +0.000 N 
ATOM     10  C   UNL     1      -0.444  11.661  19.722  0.00  0.00    +0.000 A 
ATOM     11  N   UNL     1      -1.164  12.408  20.528  0.00  0.00    +0.000 NA
ATOM     12  C   UNL     1      -1.062  11.747  21.715  0.00  0.00    +0.000 A 
ATOM     13  N   UNL     1      -0.324  10.634  21.699  0.00  0.00    +0.000 NA
ATOM     14  N   UNL     1       1.209   9.638  18.543  0.00  0.00    +0.000 NA
ATOM     15  C   UNL     1       1.948   8.626  18.026  0.00  0.00    +0.000 A 
ENDBRANCH   2   5
BRANCH   1  21
ATOM     16  C   UNL     1       6.334   5.377  17.401  0.00  0.00    +0.000 A 
ATOM     17  C   UNL     1       7.116   4.468  16.664  0.00  0.00    +0.000 A 
ATOM     18  C   UNL     1       6.945   4.319  15.288  0.00  0.00    +0.000 A 
ATOM     19  C   UNL     1       5.981   5.068  14.634  0.00  0.00    +0.000 A 
ATOM     20  C   UNL     1       5.161   5.930  15.363  0.00  0.00    +0.000 A 
ATOM     21  C   UNL     1       5.293   6.075  16.752  0.00  0.00    +0.000 A 
BRANCH  16  22
ATOM     22  O   UNL     1       6.537   5.616  18.746  0.00  0.00    +0.000 OA
BRANCH  22  24
ATOM     23  C   UNL     1       8.151   7.396  18.469  0.00  0.00    +0.000 C 
ATOM     24  C   UNL     1       7.872   6.037  19.078  0.00  0.00    +0.000 C 
ENDBRANCH  22  24
ENDBRANCH  16  22
ENDBRANCH   1  21
TORSDOF 4
ENDMDL
MODEL 3
REMARK VINA RESULT:      -7.2      2.023      3.274
REMARK  Name = 
REMARK  5 active torsions:
REMARK  status: ('A' for Active; 'I' for Inactive)
REMARK    1  A    between atoms: C_1  and  C_2
REMARK    2  A    between atoms: C_2  and  O_3
REMARK    3  A    between atoms: O_3  and  C_4
REMARK    4  A    between atoms: C_9  and  N_10
REMARK    5  A    between atoms: C_11  and  C_13
REMARK                            x       y       z     vdW  Elec       q    Type
REMARK                         _______ _______ _______ _____ _____    ______ ____
ROOT
ATOM      1  N   UNL     1       2.510   6.840  18.781  0.00  0.00    +0.000 N 
ATOM      2  C   UNL     1       2.233   8.093  18.243  0.00  0.00    +0.000 C 
ATOM      3  O   UNL     1       2.620   8.510  17.155  0.00  0.00    +0.000 OA
ATOM      4  H   UNL     1       1.958   6.488  19.555  0.00  0.00    +0.000 HD
ENDROOT
BRANCH   2   5
ATOM      5  C   UNL     1       1.354   9.014  18.996  0.00  0.00    +0.000 A 
ATOM      6  C   UNL     1       0.557  10.003  18.426  0.00  0.00    +0.000 A 
ATOM      7  C   UNL     1      -0.291  10.759  19.249  0.00  0.00    +0.000 A 
ATOM      8  C   UNL     1      -0.303  10.511  20.625  0.00  0.00    +0.000 A 
ATOM      9  N   UNL     1      -1.107  11.307  21.484  0.00  0.00    +0.000 N 
ATOM     10  C   UNL     1      -1.174  11.221  22.853  0.00  0.00    +0.000 A 
ATOM     11  N   UNL     1      -1.996  12.127  23.330  0.00  0.00    +0.000 NA
ATOM     12  C   UNL     1      -2.423  12.763  22.202  0.00  0.00    +0.000 A 
ATOM     13  N   UNL     1      -1.916  12.310  21.053  0.00  0.00    +0.000 NA
ATOM     14  N   UNL     1       0.449   9.537  21.196  0.00  0.00    +0.000 NA
ATOM     15  C   UNL     1       1.238   8.806  20.370  0.00  0.00    +0.000 A 
ENDBRANCH   2   5
BRANCH   1  21
ATOM     16  C   UNL     1       2.857   4.654  17.690  0.00  0.00    +0.000 A 
ATOM     17  C   UNL     1       3.709   3.772  16.997  0.00  0.00    +0.000 A 
ATOM     18  C   UNL     1       5.071   4.040  16.865  0.00  0.00    +0.000 A 
ATOM     19  C   UNL     1       5.596   5.199  17.413  0.00  0.00    +0.000 A 
ATOM     20  C   UNL     1       4.752   6.108  18.052  0.00  0.00    +0.000 A 
ATOM     21  C   UNL     1       3.373   5.876  18.172  0.00  0.00    +0.000 A 
BRANCH  16  22
ATOM     22  O   UNL     1       1.523   4.376  17.918  0.00  0.00    +0.000 OA
BRANCH  22  24
ATOM     23  C   UNL     1       0.968   3.735  20.183  0.00  0.00    +0.000 C 
ATOM     24  C   UNL     1       1.291   3.251  18.784  0.00  0.00    +0.000 C 
ENDBRANCH  22  24
ENDBRANCH  16  22
ENDBRANCH   1  21
TORSDOF 4
ENDMDL
MODEL 4
REMARK VINA RESULT:      -7.1      1.172      1.643
REMARK  Name = 
REMARK  5 active torsions:
REMARK  status: ('A' for Active; 'I' for Inactive)
REMARK    1  A    between atoms: C_1  and  C_2
REMARK    2  A    between atoms: C_2  and  O_3
REMARK    3  A    between atoms: O_3  and  C_4
REMARK    4  A    between atoms: C_9  and  N_10
REMARK    5  A    between atoms: C_11  and  C_13
REMARK                            x       y       z     vdW  Elec       q    Type
REMARK                         _______ _______ _______ _____ _____    ______ ____
ROOT
ATOM      1  N   UNL     1       4.165   6.932  17.695  0.00  0.00    +0.000 N 
ATOM      2  C   UNL     1       2.822   6.776  18.027  0.00  0.00    +0.000 C 
ATOM      3  O   UNL     1       2.129   5.795  17.777  0.00  0.00    +0.000 OA
ATOM      4  H   UNL     1       4.719   7.651  18.148  0.00  0.00    +0.000 HD
ENDROOT
BRANCH   2   5
ATOM      5  C   UNL     1       2.150   7.845  18.799  0.00  0.00    +0.000 A 
ATOM      6  C   UNL     1       1.749   9.073  18.280  0.00  0.00    +0.000 A 
ATOM      7  C   UNL     1       1.050   9.969  19.103  0.00  0.00    +0.000 A 
ATOM      8  C   UNL     1       0.788   9.612  20.430  0.00  0.00    +0.000 A 
ATOM      9  N   UNL     1       0.138  10.529  21.298  0.00  0.00    +0.000 N 
ATOM     10  C   UNL     1      -0.130  10.344  22.632  0.00  0.00    +0.000 A 
ATOM     11  N   UNL     1      -0.715  11.407  23.134  0.00  0.00    +0.000 NA
ATOM     12  C   UNL     1      -0.792  12.239  22.058  0.00  0.00    +0.000 A 
ATOM     13  N   UNL     1      -0.288  11.763  20.918  0.00  0.00    +0.000 NA
ATOM     14  N   UNL     1       1.150   8.411  20.946  0.00  0.00    +0.000 NA
ATOM     15  C   UNL     1       1.800   7.557  20.118  0.00  0.00    +0.000 A 
ENDBRANCH   2   5
BRANCH   1  21
ATOM     16  C   UNL     1       5.430   4.821  17.519  0.00  0.00    +0.000 A 
ATOM     17  C   UNL     1       6.071   3.862  16.711  0.00  0.00    +0.000 A 
ATOM     18  C   UNL     1       6.292   4.093  15.354  0.00  0.00    +0.000 A 
ATOM     19  C   UNL     1       5.864   5.281  14.784  0.00  0.00    +0.000 A 
ATOM     20  C   UNL     1       5.178   6.214  15.561  0.00  0.00    +0.000 A 
ATOM     21  C   UNL     1       4.916   5.993  16.922  0.00  0.00    +0.000 A 
BRANCH  16  22
ATOM     22  O   UNL     1       5.276   4.664  18.882  0.00  0.00    +0.000 OA
BRANCH  22  24
ATOM     23  C   UNL     1       3.399   3.576  19.952  0.00  0.00    +0.000 C 
ATOM     24  C   UNL     1       4.742   3.388  19.276  0.00  0.00    +0.000 C 
ENDBRANCH  22  24
ENDBRANCH  16  22
ENDBRANCH   1  21
TORSDOF 4
ENDMDL
MODEL 5
REMARK VINA RESULT:      -7.1      2.167      3.616
REMARK  Name = 
REMARK  5 active torsions:
REMARK  status: ('A' for Active; 'I' for Inactive)
REMARK    1  A    between atoms: C_1  and  C_2
REMARK    2  A    between atoms: C_2  and  O_3
REMARK    3  A    between atoms: O_3  and  C_4
REMARK    4  A    between atoms: C_9  and  N_10
REMARK    5  A    between atoms: C_11  and  C_13
REMARK                            x       y       z     vdW  Elec       q    Type
REMARK                         _______ _______ _______ _____ _____    ______ ____
ROOT
ATOM      1  N   UNL     1       2.606   6.643  19.129  0.00  0.00    +0.000 N 
ATOM      2  C   UNL     1       2.227   7.882  18.622  0.00  0.00    +0.000 C 
ATOM      3  O   UNL     1       2.386   8.265  17.467  0.00  0.00    +0.000 OA
ATOM      4  H   UNL     1       2.222   6.317  20.009  0.00  0.00    +0.000 HD
ENDROOT
BRANCH   2   5
ATOM      5  C   UNL     1       1.517   8.830  19.509  0.00  0.00    +0.000 A 
ATOM      6  C   UNL     1       1.216   8.597  20.849  0.00  0.00    +0.000 A 
ATOM      7  C   UNL     1       0.605   9.613  21.600  0.00  0.00    +0.000 A 
ATOM      8  C   UNL     1       0.300  10.828  20.979  0.00  0.00    +0.000 A 
ATOM      9  N   UNL     1      -0.375  11.847  21.704  0.00  0.00    +0.000 N 
ATOM     10  C   UNL     1      -0.792  13.060  21.215  0.00  0.00    +0.000 A 
ATOM     11  N   UNL     1      -1.409  13.745  22.151  0.00  0.00    +0.000 NA
ATOM     12  C   UNL     1      -1.349  12.904  23.221  0.00  0.00    +0.000 A 
ATOM     13  N   UNL     1      -0.736  11.737  23.010  0.00  0.00    +0.000 NA
ATOM     14  N   UNL     1       0.606  11.082  19.682  0.00  0.00    +0.000 NA
ATOM     15  C   UNL     1       1.219  10.090  18.991  0.00  0.00    +0.000 A 
ENDBRANCH   2   5
BRANCH   1  21
ATOM     16  C   UNL     1       2.685   4.485  17.935  0.00  0.00    +0.000 A 
ATOM     17  C   UNL     1       3.392   3.585  17.115  0.00  0.00    +0.000 A 
ATOM     18  C   UNL     1       4.741   3.782  16.823  0.00  0.00    +0.000 A 
ATOM     19  C   UNL     1       5.397   4.887  17.337  0.00  0.00    +0.000 A 
ATOM     20  C   UNL     1       4.694   5.816  18.105  0.00  0.00    +0.000 A 
ATOM     21  C   UNL     1       3.329   5.657  18.388  0.00  0.00    +0.000 A 
BRANCH  16  22
ATOM     22  O   UNL     1       1.375   4.274  18.318  0.00  0.00    +0.000 OA
BRANCH  22  24
ATOM     23  C   UNL     1       1.124   3.043  20.385  0.00  0.00    +0.000 C 
ATOM     24  C   UNL     1       1.122   2.970  18.872  0.00  0.00    +0.000 C 
ENDBRANCH  22  24
ENDBRANCH  16  22
ENDBRANCH   1  21
TORSDOF 4
ENDMDL
MODEL 6
REMARK VINA RESULT:      -7.1      2.452      8.511
REMARK  Name = 
REMARK  5 active torsions:
REMARK  status: ('A' for Active; 'I' for Inactive)
REMARK    1  A    between atoms: C_1  and  C_2
REMARK    2  A    between atoms: C_2  and  O_3
REMARK    3  A    between atoms: O_3  and  C_4
REMARK    4  A    between atoms: C_9  and  N_10
REMARK    5  A    between atoms: C_11  and  C_13
REMARK                            x       y       z     vdW  Elec       q    Type
REMARK                         _______ _______ _______ _____ _____    ______ ____
ROOT
ATOM      1  N   UNL     1       1.457   8.856  20.069  0.00  0.00    +0.000 N 
ATOM      2  C   UNL     1       1.794   7.506  20.058  0.00  0.00    +0.000 C 
ATOM      3  O   UNL     1       1.401   6.661  20.856  0.00  0.00    +0.000 OA
ATOM      4  H   UNL     1       1.621   9.426  19.247  0.00  0.00    +0.000 HD
ENDROOT
BRANCH   2   5
ATOM      5  C   UNL     1       2.659   6.995  18.971  0.00  0.00    +0.000 A 
ATOM      6  C   UNL     1       3.147   7.758  17.913  0.00  0.00    +0.000 A 
ATOM      7  C   UNL     1       4.022   7.167  16.989  0.00  0.00    +0.000 A 
ATOM      8  C   UNL     1       4.370   5.822  17.145  0.00  0.00    +0.000 A 
ATOM      9  N   UNL     1       5.204   5.187  16.187  0.00  0.00    +0.000 N 
ATOM     10  C   UNL     1       5.578   3.866  16.175  0.00  0.00    +0.000 A 
ATOM     11  N   UNL     1       6.330   3.612  15.128  0.00  0.00    +0.000 NA
ATOM     12  C   UNL     1       6.396   4.824  14.509  0.00  0.00    +0.000 A 
ATOM     13  N   UNL     1       5.731   5.817  15.104  0.00  0.00    +0.000 NA
ATOM     14  N   UNL     1       3.923   5.069  18.182  0.00  0.00    +0.000 NA
ATOM     15  C   UNL     1       3.100   5.676  19.072  0.00  0.00    +0.000 A 
ENDBRANCH   2   5
BRANCH   1  21
ATOM     16  C   UNL     1      -0.165  10.578  20.769  0.00  0.00    +0.000 A 
ATOM     17  C   UNL     1      -1.018  11.100  21.761  0.00  0.00    +0.000 A 
ATOM     18  C   UNL     1      -0.988  10.616  23.068  0.00  0.00    +0.000 A 
ATOM     19  C   UNL     1      -0.113   9.594  23.397  0.00  0.00    +0.000 A 
ATOM     20  C   UNL     1       0.697   9.030  22.411  0.00  0.00    +0.000 A 
ATOM     21  C   UNL     1       0.663   9.479  21.082  0.00  0.00    +0.000 A 
BRANCH  16  22
ATOM     22  O   UNL     1      -0.105  11.094  19.490  0.00  0.00    +0.000 OA
BRANCH  22  24
ATOM     23  C   UNL     1      -1.536  10.148  17.784  0.00  0.00    +0.000 C 
ATOM     24  C   UNL     1      -1.383  11.223  18.842  0.00  0.00    +0.000 C 
ENDBRANCH  22  24
ENDBRANCH  16  22
ENDBRANCH   1  21
TORSDOF 4
ENDMDL
MODEL 7
REMARK VINA RESULT:      -6.9      1.743      2.918
REMARK  Name = 
REMARK  5 active torsions:
REMARK  status: ('A' for Active; 'I' for Inactive)
REMARK    1  A    between atoms: C_1  and  C_2
REMARK    2  A    between atoms: C_2  and  O_3
REMARK    3  A    between atoms: O_3  and  C_4
REMARK    4  A    between atoms: C_9  and  N_10
REMARK    5  A    between atoms: C_11  and  C_13
REMARK                            x       y       z     vdW  Elec       q    Type
REMARK                         _______ _______ _______ _____ _____    ______ ____
ROOT
ATOM      1  N   UNL     1       3.595   6.367  18.589  0.00  0.00    +0.000 N 
ATOM      2  C   UNL     1       2.896   7.495  18.169  0.00  0.00    +0.000 C 
ATOM      3  O   UNL     1       2.904   7.964  17.035  0.00  0.00    +0.000 OA
ATOM      4  H   UNL     1       3.344   5.910  19.459  0.00  0.00    +0.000 HD
ENDROOT
BRANCH   2   5
ATOM      5  C   UNL     1       2.013   8.187  19.134  0.00  0.00    +0.000 A 
ATOM      6  C   UNL     1       1.736   7.743  20.424  0.00  0.00    +0.000 A 
ATOM      7  C   UNL     1       0.940   8.536  21.265  0.00  0.00    +0.000 A 
ATOM      8  C   UNL     1       0.432   9.745  20.780  0.00  0.00    +0.000 A 
ATOM      9  N   UNL     1      -0.427  10.532  21.593  0.00  0.00    +0.000 N 
ATOM     10  C   UNL     1      -1.047  11.703  21.234  0.00  0.00    +0.000 A 
ATOM     11  N   UNL     1      -1.792  12.149  22.219  0.00  0.00    +0.000 NA
ATOM     12  C   UNL     1      -1.600  11.207  23.185  0.00  0.00    +0.000 A 
ATOM     13  N   UNL     1      -0.784  10.202  22.862  0.00  0.00    +0.000 NA
ATOM     14  N   UNL     1       0.709  10.205  19.535  0.00  0.00    +0.000 NA
ATOM     15  C   UNL     1       1.502   9.428  18.755  0.00  0.00    +0.000 A 
ENDBRANCH   2   5
BRANCH   1  21
ATOM     16  C   UNL     1       4.073   4.496  17.053  0.00  0.00    +0.000 A 
ATOM     17  C   UNL     1       4.963   3.859  16.166  0.00  0.00    +0.000 A 
ATOM     18  C   UNL     1       6.290   4.272  16.057  0.00  0.00    +0.000 A 
ATOM     19  C   UNL     1       6.741   5.335  16.822  0.00  0.00    +0.000 A 
ATOM     20  C   UNL     1       5.854   6.010  17.661  0.00  0.00    +0.000 A 
ATOM     21  C   UNL     1       4.507   5.634  17.767  0.00  0.00    +0.000 A 
BRANCH  16  22
ATOM     22  O   UNL     1       2.779   4.057  17.253  0.00  0.00    +0.000 OA
BRANCH  22  24
ATOM     23  C   UNL     1       1.477   2.953  18.967  0.00  0.00    +0.000 C 
ATOM     24  C   UNL     1       2.675   2.859  18.044  0.00  0.00    +0.000 C 
ENDBRANCH  22  24
ENDBRANCH  16  22
ENDBRANCH   1  21
TORSDOF 4
ENDMDL
MODEL 8
REMARK VINA RESULT:      -6.9      1.440      2.166
REMARK  Name = 
REMARK  5 active torsions:
REMARK  status: ('A' for Active; 'I' for Inactive)
REMARK    1  A    between atoms: C_1  and  C_2
REMARK    2  A    between atoms: C_2  and  O_3
REMARK    3  A    between atoms: O_3  and  C_4
REMARK    4  A    between atoms: C_9  and  N_10
REMARK    5  A    between atoms: C_11  and  C_13
REMARK                            x       y       z     vdW  Elec       q    Type
REMARK                         _______ _______ _______ _____ _____    ______ ____
ROOT
ATOM      1  N   UNL     1       4.099   6.744  17.923  0.00  0.00    +0.000 N 
ATOM      2  C   UNL     1       2.753   6.536  18.209  0.00  0.00    +0.000 C 
ATOM      3  O   UNL     1       2.080   5.579  17.839  0.00  0.00    +0.000 OA
ATOM      4  H   UNL     1       4.634   7.416  18.463  0.00  0.00    +0.000 HD
ENDROOT
BRANCH   2   5
ATOM      5  C   UNL     1       2.050   7.505  19.078  0.00  0.00    +0.000 A 
ATOM      6  C   UNL     1       1.810   7.331  20.439  0.00  0.00    +0.000 A 
ATOM      7  C   UNL     1       1.198   8.365  21.164  0.00  0.00    +0.000 A 
ATOM      8  C   UNL     1       0.831   9.538  20.498  0.00  0.00    +0.000 A 
ATOM      9  N   UNL     1       0.154  10.571  21.200  0.00  0.00    +0.000 N 
ATOM     10  C   UNL     1      -0.320  11.746  20.670  0.00  0.00    +0.000 A 
ATOM     11  N   UNL     1      -0.920  12.458  21.596  0.00  0.00    +0.000 NA
ATOM     12  C   UNL     1      -0.791  11.674  22.703  0.00  0.00    +0.000 A 
ATOM     13  N   UNL     1      -0.151  10.516  22.523  0.00  0.00    +0.000 NA
ATOM     14  N   UNL     1       1.077   9.736  19.179  0.00  0.00    +0.000 NA
ATOM     15  C   UNL     1       1.693   8.728  18.512  0.00  0.00    +0.000 A 
ENDBRANCH   2   5
BRANCH   1  21
ATOM     16  C   UNL     1       5.369   4.664  17.534  0.00  0.00    +0.000 A 
ATOM     17  C   UNL     1       6.040   3.810  16.638  0.00  0.00    +0.000 A 
ATOM     18  C   UNL     1       6.314   4.207  15.330  0.00  0.00    +0.000 A 
ATOM     19  C   UNL     1       5.909   5.459  14.897  0.00  0.00    +0.000 A 
ATOM     20  C   UNL     1       5.194   6.292  15.758  0.00  0.00    +0.000 A 
ATOM     21  C   UNL     1       4.880   5.904  17.069  0.00  0.00    +0.000 A 
BRANCH  16  22
ATOM     22  O   UNL     1       5.162   4.340  18.860  0.00  0.00    +0.000 OA
BRANCH  22  24
ATOM     23  C   UNL     1       3.401   3.298  20.152  0.00  0.00    +0.000 C 
ATOM     24  C   UNL     1       4.441   3.112  19.064  0.00  0.00    +0.000 C 
ENDBRANCH  22  24
ENDBRANCH  16  22
ENDBRANCH   1  21
TORSDOF 4
ENDMDL
MODEL 9
REMARK VINA RESULT:      -6.9      1.681      2.724
REMARK  Name = 
REMARK  5 active torsions:
REMARK  status: ('A' for Active; 'I' for Inactive)
REMARK    1  A    between atoms: C_1  and  C_2
REMARK    2  A    between atoms: C_2  and  O_3
REMARK    3  A    between atoms: O_3  and  C_4
REMARK    4  A    between atoms: C_9  and  N_10
REMARK    5  A    between atoms: C_11  and  C_13
REMARK                            x       y       z     vdW  Elec       q    Type
REMARK                         _______ _______ _______ _____ _____    ______ ____
ROOT
ATOM      1  N   UNL     1       3.567   6.519  18.489  0.00  0.00    +0.000 N 
ATOM      2  C   UNL     1       2.941   7.630  17.931  0.00  0.00    +0.000 C 
ATOM      3  O   UNL     1       3.007   7.977  16.756  0.00  0.00    +0.000 OA
ATOM      4  H   UNL     1       3.267   6.169  19.392  0.00  0.00    +0.000 HD
ENDROOT
BRANCH   2   5
ATOM      5  C   UNL     1       2.069   8.463  18.788  0.00  0.00    +0.000 A 
ATOM      6  C   UNL     1       1.359   9.581  18.359  0.00  0.00    +0.000 A 
ATOM      7  C   UNL     1       0.505  10.237  19.258  0.00  0.00    +0.000 A 
ATOM      8  C   UNL     1       0.400   9.760  20.569  0.00  0.00    +0.000 A 
ATOM      9  N   UNL     1      -0.410  10.447  21.512  0.00  0.00    +0.000 N 
ATOM     10  C   UNL     1      -0.561  10.134  22.841  0.00  0.00    +0.000 A 
ATOM     11  N   UNL     1      -1.361  10.996  23.427  0.00  0.00    +0.000 NA
ATOM     12  C   UNL     1      -1.687  11.838  22.406  0.00  0.00    +0.000 A 
ATOM     13  N   UNL     1      -1.138  11.557  21.222  0.00  0.00    +0.000 NA
ATOM     14  N   UNL     1       1.065   8.659  20.999  0.00  0.00    +0.000 NA
ATOM     15  C   UNL     1       1.862   8.032  20.099  0.00  0.00    +0.000 A 
ENDBRANCH   2   5
BRANCH   1  21
ATOM     16  C   UNL     1       3.981   4.503  17.128  0.00  0.00    +0.000 A 
ATOM     17  C   UNL     1       4.865   3.735  16.346  0.00  0.00    +0.000 A 
ATOM     18  C   UNL     1       6.224   4.042  16.282  0.00  0.00    +0.000 A 
ATOM     19  C   UNL     1       6.713   5.127  16.990  0.00  0.00    +0.000 A 
ATOM     20  C   UNL     1       5.838   5.928  17.723  0.00  0.00    +0.000 A 
ATOM     21  C   UNL     1       4.462   5.659  17.779  0.00  0.00    +0.000 A 
BRANCH  16  22
ATOM     22  O   UNL     1       2.649   4.175  17.286  0.00  0.00    +0.000 OA
BRANCH  22  24
ATOM     23  C   UNL     1       1.175   2.838  18.661  0.00  0.00    +0.000 C 
ATOM     24  C   UNL     1       2.421   2.850  17.798  0.00  0.00    +0.000 C 
ENDBRANCH  22  24
ENDBRANCH  16  22
ENDBRANCH   1  21
TORSDOF 4
ENDMDL
