MODEL 1
REMARK VINA RESULT:      -7.5      0.000      0.000
REMARK  Name = 
REMARK  13 active torsions:
REMARK  status: ('A' for Active; 'I' for Inactive)
REMARK    1  A    between atoms: C_1  and  O_2
REMARK    2  A    between atoms: O_2  and  C_3
REMARK    3  A    between atoms: C_6  and  C_7
REMARK    4  A    between atoms: C_7  and  C_9
REMARK    5  A    between atoms: C_10  and  C_11
REMARK    6  A    between atoms: C_14  and  N_15
REMARK    7  A    between atoms: N_15  and  C_16
REMARK    8  A    between atoms: N_15  and  C_17
REMARK    9  A    between atoms: N_15  and  C_18
REMARK   10  A    between atoms: C_21  and  O_22
REMARK   11  A    between atoms: O_22  and  C_23
REMARK   12  A    between atoms: C_24  and  O_25
REMARK   13  A    between atoms: O_25  and  C_26
REMARK                            x       y       z     vdW  Elec       q    Type
REMARK                         _______ _______ _______ _____ _____    ______ ____
ROOT
ATOM      1  C   UNL     1       6.812   6.973  17.091  0.00  0.00    +0.000 C 
ATOM      2  O   UNL     1       7.514   6.354  16.300  0.00  0.00    +0.000 OA
ENDROOT
BRANCH   1   6
ATOM      3  C   UNL     1       3.340   5.113  18.833  0.00  0.00    +0.000 A 
ATOM      4  C   UNL     1       3.211   6.227  17.999  0.00  0.00    +0.000 A 
ATOM      5  C   UNL     1       4.340   6.841  17.466  0.00  0.00    +0.000 A 
ATOM      6  C   UNL     1       5.619   6.345  17.751  0.00  0.00    +0.000 A 
ATOM      7  C   UNL     1       5.768   5.277  18.666  0.00  0.00    +0.000 A 
ATOM      8  C   UNL     1       4.618   4.670  19.233  0.00  0.00    +0.000 A 
BRANCH   3  10
ATOM      9  C   UNL     1       1.649   4.934  20.475  0.00  0.00    +0.000 C 
ATOM     10  O   UNL     1       2.229   4.439  19.268  0.00  0.00    +0.000 OA
ENDBRANCH   3  10
BRANCH   7  11
ATOM     11  O   UNL     1       7.050   4.806  18.842  0.00  0.00    +0.000 OA
ATOM     12  C   UNL     1       7.858   5.449  19.824  0.00  0.00    +0.000 C 
ENDBRANCH   7  11
BRANCH   8  13
ATOM     13  O   UNL     1       4.820   3.578  20.042  0.00  0.00    +0.000 OA
ATOM     14  C   UNL     1       4.479   2.295  19.523  0.00  0.00    +0.000 C 
ENDBRANCH   8  13
ENDBRANCH   1   6
BRANCH   1  15
ATOM     15  C   UNL     1       7.152   8.383  17.467  0.00  0.00    +0.000 C 
ATOM     16  C   UNL     1       8.379   8.665  17.936  0.00  0.00    +0.000 C 
BRANCH  16  17
ATOM     17  C   UNL     1       8.749   9.984  18.453  0.00  0.00    +0.000 A 
ATOM     18  C   UNL     1       9.376  10.081  19.692  0.00  0.00    +0.000 A 
ATOM     19  C   UNL     1       9.842  11.316  20.161  0.00  0.00    +0.000 A 
ATOM     20  C   UNL     1       9.726  12.471  19.382  0.00  0.00    +0.000 A 
ATOM     21  C   UNL     1       8.990  12.385  18.186  0.00  0.00    +0.000 A 
ATOM     22  C   UNL     1       8.515  11.155  17.715  0.00  0.00    +0.000 A 
BRANCH  20  23
ATOM     23  N   UNL     1      10.437  13.756  19.788  0.00  0.00    +0.000 NA
ATOM     24  C   UNL     1      10.128  14.111  21.245  0.00  0.00    +0.000 C 
ATOM     25  C   UNL     1       9.924  14.925  18.939  0.00  0.00    +0.000 C 
ATOM     26  C   UNL     1      11.937  13.591  19.606  0.00  0.00    +0.000 C 
ENDBRANCH  20  23
ENDBRANCH  16  17
ENDBRANCH   1  15
TORSDOF 7
ENDMDL
MODEL 2
REMARK VINA RESULT:      -7.5      0.541      1.047
REMARK  Name = 
REMARK  13 active torsions:
REMARK  status: ('A' for Active; 'I' for Inactive)
REMARK    1  A    between atoms: C_1  and  O_2
REMARK    2  A    between atoms: O_2  and  C_3
REMARK    3  A    between atoms: C_6  and  C_7
REMARK    4  A    between atoms: C_7  and  C_9
REMARK    5  A    between atoms: C_10  and  C_11
REMARK    6  A    between atoms: C_14  and  N_15
REMARK    7  A    between atoms: N_15  and  C_16
REMARK    8  A    between atoms: N_15  and  C_17
REMARK    9  A    between atoms: N_15  and  C_18
REMARK   10  A    between atoms: C_21  and  O_22
REMARK   11  A    between atoms: O_22  and  C_23
REMARK   12  A    between atoms: C_24  and  O_25
REMARK   13  A    between atoms: O_25  and  C_26
REMARK                            x       y       z     vdW  Elec       q    Type
REMARK                         _______ _______ _______ _____ _____    ______ ____
ROOT
ATOM      1  C   UNL     1       6.726   6.828  16.996  0.00  0.00    +0.000 C 
ATOM      2  O   UNL     1       7.416   6.223  16.183  0.00  0.00    +0.000 OA
ENDROOT
BRANCH   1   6
ATOM      3  C   UNL     1       3.335   4.900  18.820  0.00  0.00    +0.000 A 
ATOM      4  C   UNL     1       3.160   5.978  17.950  0.00  0.00    +0.000 A 
ATOM      5  C   UNL     1       4.262   6.616  17.389  0.00  0.00    +0.000 A 
ATOM      6  C   UNL     1       5.561   6.178  17.683  0.00  0.00    +0.000 A 
ATOM      7  C   UNL     1       5.754   5.148  18.634  0.00  0.00    +0.000 A 
ATOM      8  C   UNL     1       4.630   4.518  19.227  0.00  0.00    +0.000 A 
BRANCH   3  10
ATOM      9  C   UNL     1       1.395   3.664  18.275  0.00  0.00    +0.000 C 
ATOM     10  O   UNL     1       2.252   4.199  19.284  0.00  0.00    +0.000 OA
ENDBRANCH   3  10
BRANCH   7  11
ATOM     11  O   UNL     1       7.054   4.732  18.817  0.00  0.00    +0.000 OA
ATOM     12  C   UNL     1       7.842   5.438  19.771  0.00  0.00    +0.000 C 
ENDBRANCH   7  11
BRANCH   8  13
ATOM     13  O   UNL     1       4.877   3.463  20.071  0.00  0.00    +0.000 OA
ATOM     14  C   UNL     1       4.514   2.158  19.627  0.00  0.00    +0.000 C 
ENDBRANCH   8  13
ENDBRANCH   1   6
BRANCH   1  15
ATOM     15  C   UNL     1       7.054   8.241  17.369  0.00  0.00    +0.000 C 
ATOM     16  C   UNL     1       8.284   8.537  17.820  0.00  0.00    +0.000 C 
BRANCH  16  17
ATOM     17  C   UNL     1       8.646   9.860  18.334  0.00  0.00    +0.000 A 
ATOM     18  C   UNL     1       9.328   9.960  19.543  0.00  0.00    +0.000 A 
ATOM     19  C   UNL     1       9.785  11.202  20.004  0.00  0.00    +0.000 A 
ATOM     20  C   UNL     1       9.604  12.362  19.244  0.00  0.00    +0.000 A 
ATOM     21  C   UNL     1       8.814  12.269  18.084  0.00  0.00    +0.000 A 
ATOM     22  C   UNL     1       8.348  11.032  17.621  0.00  0.00    +0.000 A 
BRANCH  20  23
ATOM     23  N   UNL     1      10.301  13.660  19.631  0.00  0.00    +0.000 NA
ATOM     24  C   UNL     1      10.122  14.718  18.540  0.00  0.00    +0.000 C 
ATOM     25  C   UNL     1      11.810  13.421  19.759  0.00  0.00    +0.000 C 
ATOM     26  C   UNL     1       9.736  14.174  20.945  0.00  0.00    +0.000 C 
ENDBRANCH  20  23
ENDBRANCH  16  17
ENDBRANCH   1  15
TORSDOF 7
ENDMDL
MODEL 3
REMARK VINA RESULT:      -7.3      0.711      1.469
REMARK  Name = 
REMARK  13 active torsions:
REMARK  status: ('A' for Active; 'I' for Inactive)
REMARK    1  A    between atoms: C_1  and  O_2
REMARK    2  A    between atoms: O_2  and  C_3
REMARK    3  A    between atoms: C_6  and  C_7
REMARK    4  A    between atoms: C_7  and  C_9
REMARK    5  A    between atoms: C_10  and  C_11
REMARK    6  A    between atoms: C_14  and  N_15
REMARK    7  A    between atoms: N_15  and  C_16
REMARK    8  A    between atoms: N_15  and  C_17
REMARK    9  A    between atoms: N_15  and  C_18
REMARK   10  A    between atoms: C_21  and  O_22
REMARK   11  A    between atoms: O_22  and  C_23
REMARK   12  A    between atoms: C_24  and  O_25
REMARK   13  A    between atoms: O_25  and  C_26
REMARK                            x       y       z     vdW  Elec       q    Type
REMARK                         _______ _______ _______ _____ _____    ______ ____
ROOT
ATOM      1  C   UNL     1       7.248   6.855  17.165  0.00  0.00    +0.000 C 
ATOM      2  O   UNL     1       7.749   6.400  16.142  0.00  0.00    +0.000 OA
ENDROOT
BRANCH   1   6
ATOM      3  C   UNL     1       3.544   5.226  18.639  0.00  0.00    +0.000 A 
ATOM      4  C   UNL     1       3.547   6.327  17.779  0.00  0.00    +0.000 A 
ATOM      5  C   UNL     1       4.750   6.867  17.333  0.00  0.00    +0.000 A 
ATOM      6  C   UNL     1       5.971   6.307  17.732  0.00  0.00    +0.000 A 
ATOM      7  C   UNL     1       5.983   5.251  18.673  0.00  0.00    +0.000 A 
ATOM      8  C   UNL     1       4.757   4.720  19.151  0.00  0.00    +0.000 A 
BRANCH   3  10
ATOM      9  C   UNL     1       1.554   4.188  17.897  0.00  0.00    +0.000 C 
ATOM     10  O   UNL     1       2.364   4.623  18.989  0.00  0.00    +0.000 OA
ENDBRANCH   3  10
BRANCH   7  11
ATOM     11  O   UNL     1       7.217   4.714  18.963  0.00  0.00    +0.000 OA
ATOM     12  C   UNL     1       7.935   5.270  20.060  0.00  0.00    +0.000 C 
ENDBRANCH   7  11
BRANCH   8  13
ATOM     13  O   UNL     1       4.829   3.636  19.991  0.00  0.00    +0.000 OA
ATOM     14  C   UNL     1       4.470   2.361  19.462  0.00  0.00    +0.000 C 
ENDBRANCH   8  13
ENDBRANCH   1   6
BRANCH   1  15
ATOM     15  C   UNL     1       7.927   7.956  17.919  0.00  0.00    +0.000 C 
ATOM     16  C   UNL     1       7.757   9.230  17.526  0.00  0.00    +0.000 C 
BRANCH  16  17
ATOM     17  C   UNL     1       8.490  10.349  18.120  0.00  0.00    +0.000 A 
ATOM     18  C   UNL     1       8.361  11.620  17.568  0.00  0.00    +0.000 A 
ATOM     19  C   UNL     1       8.959  12.729  18.180  0.00  0.00    +0.000 A 
ATOM     20  C   UNL     1       9.665  12.594  19.380  0.00  0.00    +0.000 A 
ATOM     21  C   UNL     1       9.888  11.293  19.867  0.00  0.00    +0.000 A 
ATOM     22  C   UNL     1       9.299  10.180  19.255  0.00  0.00    +0.000 A 
BRANCH  20  23
ATOM     23  N   UNL     1      10.110  13.824  20.162  0.00  0.00    +0.000 NA
ATOM     24  C   UNL     1      11.610  14.068  19.980  0.00  0.00    +0.000 C 
ATOM     25  C   UNL     1       9.886  13.597  21.661  0.00  0.00    +0.000 C 
ATOM     26  C   UNL     1       9.330  15.040  19.691  0.00  0.00    +0.000 C 
ENDBRANCH  20  23
ENDBRANCH  16  17
ENDBRANCH   1  15
TORSDOF 7
ENDMDL
MODEL 4
REMARK VINA RESULT:      -7.2      0.723      1.221
REMARK  Name = 
REMARK  13 active torsions:
REMARK  status: ('A' for Active; 'I' for Inactive)
REMARK    1  A    between atoms: C_1  and  O_2
REMARK    2  A    between atoms: O_2  and  C_3
REMARK    3  A    between atoms: C_6  and  C_7
REMARK    4  A    between atoms: C_7  and  C_9
REMARK    5  A    between atoms: C_10  and  C_11
REMARK    6  A    between atoms: C_14  and  N_15
REMARK    7  A    between atoms: N_15  and  C_16
REMARK    8  A    between atoms: N_15  and  C_17
REMARK    9  A    between atoms: N_15  and  C_18
REMARK   10  A    between atoms: C_21  and  O_22
REMARK   11  A    between atoms: O_22  and  C_23
REMARK   12  A    between atoms: C_24  and  O_25
REMARK   13  A    between atoms: O_25  and  C_26
REMARK                            x       y       z     vdW  Elec       q    Type
REMARK                         _______ _______ _______ _____ _____    ______ ____
ROOT
ATOM      1  C   UNL     1       6.951   6.926  17.021  0.00  0.00    +0.000 C 
ATOM      2  O   UNL     1       7.634   6.190  16.317  0.00  0.00    +0.000 OA
ENDROOT
BRANCH   1   6
ATOM      3  C   UNL     1       3.253   5.504  18.709  0.00  0.00    +0.000 A 
ATOM      4  C   UNL     1       3.264   6.583  17.822  0.00  0.00    +0.000 A 
ATOM      5  C   UNL     1       4.467   7.056  17.305  0.00  0.00    +0.000 A 
ATOM      6  C   UNL     1       5.680   6.451  17.661  0.00  0.00    +0.000 A 
ATOM      7  C   UNL     1       5.690   5.419  18.629  0.00  0.00    +0.000 A 
ATOM      8  C   UNL     1       4.466   4.956  19.177  0.00  0.00    +0.000 A 
BRANCH   3  10
ATOM      9  C   UNL     1       1.439   4.074  18.206  0.00  0.00    +0.000 C 
ATOM     10  O   UNL     1       2.066   4.964  19.130  0.00  0.00    +0.000 OA
ENDBRANCH   3  10
BRANCH   7  11
ATOM     11  O   UNL     1       6.911   4.833  18.875  0.00  0.00    +0.000 OA
ATOM     12  C   UNL     1       7.734   5.424  19.877  0.00  0.00    +0.000 C 
ENDBRANCH   7  11
BRANCH   8  13
ATOM     13  O   UNL     1       4.530   3.890  20.041  0.00  0.00    +0.000 OA
ATOM     14  C   UNL     1       4.435   2.580  19.488  0.00  0.00    +0.000 C 
ENDBRANCH   8  13
ENDBRANCH   1   6
BRANCH   1  15
ATOM     15  C   UNL     1       7.392   8.329  17.307  0.00  0.00    +0.000 C 
ATOM     16  C   UNL     1       8.396   8.543  18.173  0.00  0.00    +0.000 C 
BRANCH  16  17
ATOM     17  C   UNL     1       8.796   9.881  18.612  0.00  0.00    +0.000 A 
ATOM     18  C   UNL     1       8.657  10.956  17.738  0.00  0.00    +0.000 A 
ATOM     19  C   UNL     1       8.925  12.263  18.166  0.00  0.00    +0.000 A 
ATOM     20  C   UNL     1       9.299  12.524  19.488  0.00  0.00    +0.000 A 
ATOM     21  C   UNL     1       9.548  11.425  20.329  0.00  0.00    +0.000 A 
ATOM     22  C   UNL     1       9.290  10.115  19.905  0.00  0.00    +0.000 A 
BRANCH  20  23
ATOM     23  N   UNL     1       9.360  13.955  20.009  0.00  0.00    +0.000 NA
ATOM     24  C   UNL     1       8.335  14.171  21.124  0.00  0.00    +0.000 C 
ATOM     25  C   UNL     1       8.992  14.933  18.888  0.00  0.00    +0.000 C 
ATOM     26  C   UNL     1      10.757  14.251  20.529  0.00  0.00    +0.000 C 
ENDBRANCH  20  23
ENDBRANCH  16  17
ENDBRANCH   1  15
TORSDOF 7
ENDMDL
MODEL 5
REMARK VINA RESULT:      -7.2      4.949      7.102
REMARK  Name = 
REMARK  13 active torsions:
REMARK  status: ('A' for Active; 'I' for Inactive)
REMARK    1  A    between atoms: C_1  and  O_2
REMARK    2  A    between atoms: O_2  and  C_3
REMARK    3  A    between atoms: C_6  and  C_7
REMARK    4  A    between atoms: C_7  and  C_9
REMARK    5  A    between atoms: C_10  and  C_11
REMARK    6  A    between atoms: C_14  and  N_15
REMARK    7  A    between atoms: N_15  and  C_16
REMARK    8  A    between atoms: N_15  and  C_17
REMARK    9  A    between atoms: N_15  and  C_18
REMARK   10  A    between atoms: C_21  and  O_22
REMARK   11  A    between atoms: O_22  and  C_23
REMARK   12  A    between atoms: C_24  and  O_25
REMARK   13  A    between atoms: O_25  and  C_26
REMARK                            x       y       z     vdW  Elec       q    Type
REMARK                         _______ _______ _______ _____ _____    ______ ____
ROOT
ATOM      1  C   UNL     1       2.628   4.024  17.743  0.00  0.00    +0.000 C 
ATOM      2  O   UNL     1       2.038   2.950  17.772  0.00  0.00    +0.000 OA
ENDROOT
BRANCH   1   6
ATOM      3  C   UNL     1       6.529   4.563  16.000  0.00  0.00    +0.000 A 
ATOM      4  C   UNL     1       5.393   4.476  15.193  0.00  0.00    +0.000 A 
ATOM      5  C   UNL     1       4.139   4.270  15.762  0.00  0.00    +0.000 A 
ATOM      6  C   UNL     1       4.001   4.157  17.152  0.00  0.00    +0.000 A 
ATOM      7  C   UNL     1       5.154   4.151  17.972  0.00  0.00    +0.000 A 
ATOM      8  C   UNL     1       6.434   4.332  17.388  0.00  0.00    +0.000 A 
BRANCH   3  10
ATOM      9  C   UNL     1       7.733   5.153  14.053  0.00  0.00    +0.000 C 
ATOM     10  O   UNL     1       7.746   4.878  15.454  0.00  0.00    +0.000 OA
ENDBRANCH   3  10
BRANCH   7  11
ATOM     11  O   UNL     1       4.929   4.103  19.330  0.00  0.00    +0.000 OA
ATOM     12  C   UNL     1       4.681   2.825  19.910  0.00  0.00    +0.000 C 
ENDBRANCH   7  11
BRANCH   8  13
ATOM     13  O   UNL     1       7.507   4.411  18.243  0.00  0.00    +0.000 OA
ATOM     14  C   UNL     1       7.757   5.660  18.882  0.00  0.00    +0.000 C 
ENDBRANCH   8  13
ENDBRANCH   1   6
BRANCH   1  15
ATOM     15  C   UNL     1       1.971   5.267  18.261  0.00  0.00    +0.000 C 
ATOM     16  C   UNL     1       2.628   6.437  18.200  0.00  0.00    +0.000 C 
BRANCH  16  17
ATOM     17  C   UNL     1       2.116   7.668  18.806  0.00  0.00    +0.000 A 
ATOM     18  C   UNL     1       1.911   8.789  18.006  0.00  0.00    +0.000 A 
ATOM     19  C   UNL     1       1.318   9.943  18.533  0.00  0.00    +0.000 A 
ATOM     20  C   UNL     1       0.882   9.985  19.861  0.00  0.00    +0.000 A 
ATOM     21  C   UNL     1       1.198   8.894  20.690  0.00  0.00    +0.000 A 
ATOM     22  C   UNL     1       1.798   7.740  20.171  0.00  0.00    +0.000 A 
BRANCH  20  23
ATOM     23  N   UNL     1       0.032  11.146  20.363  0.00  0.00    +0.000 NA
ATOM     24  C   UNL     1       0.903  12.372  20.650  0.00  0.00    +0.000 C 
ATOM     25  C   UNL     1      -0.634  10.767  21.691  0.00  0.00    +0.000 C 
ATOM     26  C   UNL     1      -1.022  11.496  19.326  0.00  0.00    +0.000 C 
ENDBRANCH  20  23
ENDBRANCH  16  17
ENDBRANCH   1  15
TORSDOF 7
ENDMDL
MODEL 6
REMARK VINA RESULT:      -7.1      4.131      7.097
REMARK  Name = 
REMARK  13 active torsions:
REMARK  status: ('A' for Active; 'I' for Inactive)
REMARK    1  A    between atoms: C_1  and  O_2
REMARK    2  A    between atoms: O_2  and  C_3
REMARK    3  A    between atoms: C_6  and  C_7
REMARK    4  A    between atoms: C_7  and  C_9
REMARK    5  A    between atoms: C_10  and  C_11
REMARK    6  A    between atoms: C_14  and  N_15
REMARK    7  A    between atoms: N_15  and  C_16
REMARK    8  A    between atoms: N_15  and  C_17
REMARK    9  A    between atoms: N_15  and  C_18
REMARK   10  A    between atoms: C_21  and  O_22
REMARK   11  A    between atoms: O_22  and  C_23
REMARK   12  A    between atoms: C_24  and  O_25
REMARK   13  A    between atoms: O_25  and  C_26
REMARK                            x       y       z     vdW  Elec       q    Type
REMARK                         _______ _______ _______ _____ _____    ______ ____
ROOT
ATOM      1  C   UNL     1       4.049   4.292  19.266  0.00  0.00    +0.000 C 
ATOM      2  O   UNL     1       4.191   3.265  19.920  0.00  0.00    +0.000 OA
ENDROOT
BRANCH   1   6
ATOM      3  C   UNL     1       6.206   5.138  15.636  0.00  0.00    +0.000 A 
ATOM      4  C   UNL     1       5.062   4.337  15.616  0.00  0.00    +0.000 A 
ATOM      5  C   UNL     1       4.389   4.042  16.798  0.00  0.00    +0.000 A 
ATOM      6  C   UNL     1       4.845   4.553  18.021  0.00  0.00    +0.000 A 
ATOM      7  C   UNL     1       6.053   5.288  18.066  0.00  0.00    +0.000 A 
ATOM      8  C   UNL     1       6.754   5.563  16.864  0.00  0.00    +0.000 A 
BRANCH   3  10
ATOM      9  C   UNL     1       6.929   4.497  13.478  0.00  0.00    +0.000 C 
ATOM     10  O   UNL     1       6.805   5.522  14.464  0.00  0.00    +0.000 OA
ENDBRANCH   3  10
BRANCH   7  11
ATOM     11  O   UNL     1       6.398   5.810  19.292  0.00  0.00    +0.000 OA
ATOM     12  C   UNL     1       7.625   5.376  19.870  0.00  0.00    +0.000 C 
ENDBRANCH   7  11
BRANCH   8  13
ATOM     13  O   UNL     1       7.870   6.359  16.957  0.00  0.00    +0.000 OA
ATOM     14  C   UNL     1       7.673   7.757  17.158  0.00  0.00    +0.000 C 
ENDBRANCH   8  13
ENDBRANCH   1   6
BRANCH   1  15
ATOM     15  C   UNL     1       3.030   5.314  19.667  0.00  0.00    +0.000 C 
ATOM     16  C   UNL     1       2.931   6.458  18.970  0.00  0.00    +0.000 C 
BRANCH  16  17
ATOM     17  C   UNL     1       2.060   7.563  19.376  0.00  0.00    +0.000 A 
ATOM     18  C   UNL     1       1.507   7.564  20.653  0.00  0.00    +0.000 A 
ATOM     19  C   UNL     1       0.763   8.660  21.108  0.00  0.00    +0.000 A 
ATOM     20  C   UNL     1       0.591   9.794  20.309  0.00  0.00    +0.000 A 
ATOM     21  C   UNL     1       1.053   9.737  18.981  0.00  0.00    +0.000 A 
ATOM     22  C   UNL     1       1.792   8.642  18.517  0.00  0.00    +0.000 A 
BRANCH  20  23
ATOM     23  N   UNL     1      -0.013  11.068  20.887  0.00  0.00    +0.000 NA
ATOM     24  C   UNL     1      -1.181  11.554  20.027  0.00  0.00    +0.000 C 
ATOM     25  C   UNL     1       1.031  12.191  20.874  0.00  0.00    +0.000 C 
ATOM     26  C   UNL     1      -0.490  10.810  22.307  0.00  0.00    +0.000 C 
ENDBRANCH  20  23
ENDBRANCH  16  17
ENDBRANCH   1  15
TORSDOF 7
ENDMDL
MODEL 7
REMARK VINA RESULT:      -7.0      6.838     10.084
REMARK  Name = 
REMARK  13 active torsions:
REMARK  status: ('A' for Active; 'I' for Inactive)
REMARK    1  A    between atoms: C_1  and  O_2
REMARK    2  A    between atoms: O_2  and  C_3
REMARK    3  A    between atoms: C_6  and  C_7
REMARK    4  A    between atoms: C_7  and  C_9
REMARK    5  A    between atoms: C_10  and  C_11
REMARK    6  A    between atoms: C_14  and  N_15
REMARK    7  A    between atoms: N_15  and  C_16
REMARK    8  A    between atoms: N_15  and  C_17
REMARK    9  A    between atoms: N_15  and  C_18
REMARK   10  A    between atoms: C_21  and  O_22
REMARK   11  A    between atoms: O_22  and  C_23
REMARK   12  A    between atoms: C_24  and  O_25
REMARK   13  A    between atoms: O_25  and  C_26
REMARK                            x       y       z     vdW  Elec       q    Type
REMARK                         _______ _______ _______ _____ _____    ______ ____
ROOT
ATOM      1  C   UNL     1       1.045  10.546  18.591  0.00  0.00    +0.000 C 
ATOM      2  O   UNL     1       1.905  11.291  18.136  0.00  0.00    +0.000 OA
ENDROOT
BRANCH   1   6
ATOM      3  C   UNL     1      -3.174  11.413  18.529  0.00  0.00    +0.000 A 
ATOM      4  C   UNL     1      -2.624  10.476  17.650  0.00  0.00    +0.000 A 
ATOM      5  C   UNL     1      -1.255  10.225  17.655  0.00  0.00    +0.000 A 
ATOM      6  C   UNL     1      -0.413  10.901  18.548  0.00  0.00    +0.000 A 
ATOM      7  C   UNL     1      -0.943  11.917  19.378  0.00  0.00    +0.000 A 
ATOM      8  C   UNL     1      -2.334  12.193  19.351  0.00  0.00    +0.000 A 
BRANCH   3  10
ATOM      9  C   UNL     1      -5.230  11.475  17.365  0.00  0.00    +0.000 C 
ATOM     10  O   UNL     1      -4.532  11.580  18.606  0.00  0.00    +0.000 OA
ENDBRANCH   3  10
BRANCH   7  11
ATOM     11  O   UNL     1      -0.063  12.487  20.270  0.00  0.00    +0.000 OA
ATOM     12  C   UNL     1       0.369  13.819  20.009  0.00  0.00    +0.000 C 
ENDBRANCH   7  11
BRANCH   8  13
ATOM     13  O   UNL     1      -2.805  13.124  20.244  0.00  0.00    +0.000 OA
ATOM     14  C   UNL     1      -3.171  12.671  21.546  0.00  0.00    +0.000 C 
ENDBRANCH   8  13
ENDBRANCH   1   6
BRANCH   1  15
ATOM     15  C   UNL     1       1.419   9.216  19.170  0.00  0.00    +0.000 C 
ATOM     16  C   UNL     1       2.165   8.366  18.446  0.00  0.00    +0.000 C 
BRANCH  16  17
ATOM     17  C   UNL     1       2.460   6.999  18.880  0.00  0.00    +0.000 A 
ATOM     18  C   UNL     1       2.064   6.585  20.149  0.00  0.00    +0.000 A 
ATOM     19  C   UNL     1       2.231   5.253  20.549  0.00  0.00    +0.000 A 
ATOM     20  C   UNL     1       2.762   4.300  19.674  0.00  0.00    +0.000 A 
ATOM     21  C   UNL     1       3.265   4.751  18.440  0.00  0.00    +0.000 A 
ATOM     22  C   UNL     1       3.108   6.082  18.036  0.00  0.00    +0.000 A 
BRANCH  20  23
ATOM     23  N   UNL     1       2.726   2.818  20.026  0.00  0.00    +0.000 NA
ATOM     24  C   UNL     1       1.733   2.072  19.131  0.00  0.00    +0.000 C 
ATOM     25  C   UNL     1       2.231   2.636  21.465  0.00  0.00    +0.000 C 
ATOM     26  C   UNL     1       4.113   2.219  19.866  0.00  0.00    +0.000 C 
ENDBRANCH  20  23
ENDBRANCH  16  17
ENDBRANCH   1  15
TORSDOF 7
ENDMDL
MODEL 8
REMARK VINA RESULT:      -7.0      4.177      7.183
REMARK  Name = 
REMARK  13 active torsions:
REMARK  status: ('A' for Active; 'I' for Inactive)
REMARK    1  A    between atoms: C_1  and  O_2
REMARK    2  A    between atoms: O_2  and  C_3
REMARK    3  A    between atoms: C_6  and  C_7
REMARK    4  A    between atoms: C_7  and  C_9
REMARK    5  A    between atoms: C_10  and  C_11
REMARK    6  A    between atoms: C_14  and  N_15
REMARK    7  A    between atoms: N_15  and  C_16
REMARK    8  A    between atoms: N_15  and  C_17
REMARK    9  A    between atoms: N_15  and  C_18
REMARK   10  A    between atoms: C_21  and  O_22
REMARK   11  A    between atoms: O_22  and  C_23
REMARK   12  A    between atoms: C_24  and  O_25
REMARK   13  A    between atoms: O_25  and  C_26
REMARK                            x       y       z     vdW  Elec       q    Type
REMARK                         _______ _______ _______ _____ _____    ______ ____
ROOT
ATOM      1  C   UNL     1       4.154   4.323  19.116  0.00  0.00    +0.000 C 
ATOM      2  O   UNL     1       4.084   3.232  19.672  0.00  0.00    +0.000 OA
ENDROOT
BRANCH   1   6
ATOM      3  C   UNL     1       6.352   4.989  15.474  0.00  0.00    +0.000 A 
ATOM      4  C   UNL     1       5.249   4.133  15.495  0.00  0.00    +0.000 A 
ATOM      5  C   UNL     1       4.563   3.899  16.683  0.00  0.00    +0.000 A 
ATOM      6  C   UNL     1       4.965   4.525  17.870  0.00  0.00    +0.000 A 
ATOM      7  C   UNL     1       6.135   5.321  17.881  0.00  0.00    +0.000 A 
ATOM      8  C   UNL     1       6.850   5.536  16.675  0.00  0.00    +0.000 A 
BRANCH   3  10
ATOM      9  C   UNL     1       6.747   4.382  13.223  0.00  0.00    +0.000 C 
ATOM     10  O   UNL     1       6.959   5.311  14.287  0.00  0.00    +0.000 OA
ENDBRANCH   3  10
BRANCH   7  11
ATOM     11  O   UNL     1       6.425   5.953  19.069  0.00  0.00    +0.000 OA
ATOM     12  C   UNL     1       7.559   5.495  19.798  0.00  0.00    +0.000 C 
ENDBRANCH   7  11
BRANCH   8  13
ATOM     13  O   UNL     1       7.924   6.392  16.727  0.00  0.00    +0.000 OA
ATOM     14  C   UNL     1       7.668   7.760  17.038  0.00  0.00    +0.000 C 
ENDBRANCH   8  13
ENDBRANCH   1   6
BRANCH   1  15
ATOM     15  C   UNL     1       3.383   5.495  19.643  0.00  0.00    +0.000 C 
ATOM     16  C   UNL     1       2.833   6.366  18.780  0.00  0.00    +0.000 C 
BRANCH  16  17
ATOM     17  C   UNL     1       2.184   7.606  19.209  0.00  0.00    +0.000 A 
ATOM     18  C   UNL     1       2.026   8.646  18.297  0.00  0.00    +0.000 A 
ATOM     19  C   UNL     1       1.310   9.798  18.645  0.00  0.00    +0.000 A 
ATOM     20  C   UNL     1       0.704   9.917  19.900  0.00  0.00    +0.000 A 
ATOM     21  C   UNL     1       0.966   8.916  20.852  0.00  0.00    +0.000 A 
ATOM     22  C   UNL     1       1.687   7.764  20.513  0.00  0.00    +0.000 A 
BRANCH  20  23
ATOM     23  N   UNL     1      -0.263  11.058  20.190  0.00  0.00    +0.000 NA
ATOM     24  C   UNL     1      -1.440  11.034  19.212  0.00  0.00    +0.000 C 
ATOM     25  C   UNL     1       0.443  12.403  19.984  0.00  0.00    +0.000 C 
ATOM     26  C   UNL     1      -0.776  10.945  21.616  0.00  0.00    +0.000 C 
ENDBRANCH  20  23
ENDBRANCH  16  17
ENDBRANCH   1  15
TORSDOF 7
ENDMDL
MODEL 9
REMARK VINA RESULT:      -7.0      6.960     10.189
REMARK  Name = 
REMARK  13 active torsions:
REMARK  status: ('A' for Active; 'I' for Inactive)
REMARK    1  A    between atoms: C_1  and  O_2
REMARK    2  A    between atoms: O_2  and  C_3
REMARK    3  A    between atoms: C_6  and  C_7
REMARK    4  A    between atoms: C_7  and  C_9
REMARK    5  A    between atoms: C_10  and  C_11
REMARK    6  A    between atoms: C_14  and  N_15
REMARK    7  A    between atoms: N_15  and  C_16
REMARK    8  A    between atoms: N_15  and  C_17
REMARK    9  A    between atoms: N_15  and  C_18
REMARK   10  A    between atoms: C_21  and  O_22
REMARK   11  A    between atoms: O_22  and  C_23
REMARK   12  A    between atoms: C_24  and  O_25
REMARK   13  A    between atoms: O_25  and  C_26
REMARK                            x       y       z     vdW  Elec       q    Type
REMARK                         _______ _______ _______ _____ _____    ______ ____
ROOT
ATOM      1  C   UNL     1       0.750  10.667  18.796  0.00  0.00    +0.000 C 
ATOM      2  O   UNL     1       1.591  11.492  18.459  0.00  0.00    +0.000 OA
ENDROOT
BRANCH   1   6
ATOM      3  C   UNL     1      -3.498  11.245  18.381  0.00  0.00    +0.000 A 
ATOM      4  C   UNL     1      -2.822  10.316  17.585  0.00  0.00    +0.000 A 
ATOM      5  C   UNL     1      -1.445  10.158  17.704  0.00  0.00    +0.000 A 
ATOM      6  C   UNL     1      -0.719  10.921  18.629  0.00  0.00    +0.000 A 
ATOM      7  C   UNL     1      -1.377  11.928  19.374  0.00  0.00    +0.000 A 
ATOM      8  C   UNL     1      -2.776  12.109  19.231  0.00  0.00    +0.000 A 
BRANCH   3  10
ATOM      9  C   UNL     1      -5.410  11.995  17.212  0.00  0.00    +0.000 C 
ATOM     10  O   UNL     1      -4.865  11.323  18.348  0.00  0.00    +0.000 OA
ENDBRANCH   3  10
BRANCH   7  11
ATOM     11  O   UNL     1      -0.609  12.588  20.306  0.00  0.00    +0.000 OA
ATOM     12  C   UNL     1      -0.492  11.999  21.598  0.00  0.00    +0.000 C 
ENDBRANCH   7  11
BRANCH   8  13
ATOM     13  O   UNL     1      -3.375  13.038  20.047  0.00  0.00    +0.000 OA
ATOM     14  C   UNL     1      -4.016  12.567  21.231  0.00  0.00    +0.000 C 
ENDBRANCH   8  13
ENDBRANCH   1   6
BRANCH   1  15
ATOM     15  C   UNL     1       1.167   9.339  19.351  0.00  0.00    +0.000 C 
ATOM     16  C   UNL     1       1.953   8.533  18.618  0.00  0.00    +0.000 C 
BRANCH  16  17
ATOM     17  C   UNL     1       2.294   7.169  19.026  0.00  0.00    +0.000 A 
ATOM     18  C   UNL     1       1.867   6.700  20.265  0.00  0.00    +0.000 A 
ATOM     19  C   UNL     1       2.080   5.366  20.636  0.00  0.00    +0.000 A 
ATOM     20  C   UNL     1       2.688   4.464  19.757  0.00  0.00    +0.000 A 
ATOM     21  C   UNL     1       3.218   4.973  18.557  0.00  0.00    +0.000 A 
ATOM     22  C   UNL     1       3.015   6.308  18.184  0.00  0.00    +0.000 A 
BRANCH  20  23
ATOM     23  N   UNL     1       2.706   2.972  20.065  0.00  0.00    +0.000 NA
ATOM     24  C   UNL     1       4.053   2.355  19.680  0.00  0.00    +0.000 C 
ATOM     25  C   UNL     1       1.645   2.254  19.224  0.00  0.00    +0.000 C 
ATOM     26  C   UNL     1       2.444   2.751  21.546  0.00  0.00    +0.000 C 
ENDBRANCH  20  23
ENDBRANCH  16  17
ENDBRANCH   1  15
TORSDOF 7
ENDMDL
