MODEL 1
REMARK VINA RESULT:      -8.0      0.000      0.000
REMARK  Name = 
REMARK  3 active torsions:
REMARK  status: ('A' for Active; 'I' for Inactive)
REMARK    1  A    between atoms: C_1  and  C_2
REMARK    2  A    between atoms: C_3  and  S_4
REMARK    3  A    between atoms: S_4  and  C_5
REMARK                            x       y       z     vdW  Elec       q    Type
REMARK                         _______ _______ _______ _____ _____    ______ ____
ROOT
ATOM      1  C   UNL     1       5.876   5.520  19.319  0.00  0.00    +0.000 C 
ATOM      2  C   UNL     1       5.151   4.897  18.149  0.00  0.00    +0.000 A 
ATOM      3  C   UNL     1       3.864   4.336  18.324  0.00  0.00    +0.000 A 
ATOM      4  C   UNL     1       3.251   3.707  17.241  0.00  0.00    +0.000 A 
ATOM      5  C   UNL     1       3.883   3.655  15.996  0.00  0.00    +0.000 A 
ATOM      6  C   UNL     1       5.119   4.236  15.774  0.00  0.00    +0.000 A 
ATOM      7  N   UNL     1       5.607   4.142  14.529  0.00  0.00    +0.000 NA
ATOM      8  C   UNL     1       6.789   4.693  14.283  0.00  0.00    +0.000 A 
ATOM      9  N   UNL     1       7.302   4.575  13.007  0.00  0.00    +0.000 N 
ATOM     10  N   UNL     1       7.508   5.358  15.180  0.00  0.00    +0.000 NA
ATOM     11  C   UNL     1       7.015   5.428  16.428  0.00  0.00    +0.000 A 
ATOM     12  N   UNL     1       7.853   6.143  17.288  0.00  0.00    +0.000 N 
ATOM     13  C   UNL     1       5.779   4.870  16.835  0.00  0.00    +0.000 A 
ATOM     14  H   UNL     1       6.569   4.403  12.336  0.00  0.00    +0.000 HD
ATOM     15  H   UNL     1       7.963   5.311  12.811  0.00  0.00    +0.000 HD
ATOM     16  H   UNL     1       8.661   6.415  16.733  0.00  0.00    +0.000 HD
ATOM     17  H   UNL     1       8.145   5.572  18.073  0.00  0.00    +0.000 HD
ENDROOT
BRANCH   3  18
ATOM     18  S   UNL     1       2.973   4.327  19.882  0.00  0.00    +0.000 S 
BRANCH  18  19
ATOM     19  C   UNL     1       2.270   5.972  19.994  0.00  0.00    +0.000 A 
ATOM     20  C   UNL     1       1.548   6.428  21.099  0.00  0.00    +0.000 A 
ATOM     21  C   UNL     1       1.053   7.735  21.140  0.00  0.00    +0.000 A 
ATOM     22  C   UNL     1       1.272   8.621  20.077  0.00  0.00    +0.000 A 
ATOM     23  C   UNL     1       0.818   9.950  20.129  0.00  0.00    +0.000 A 
ATOM     24  C   UNL     1       1.068  10.830  19.076  0.00  0.00    +0.000 A 
ATOM     25  C   UNL     1       1.762  10.388  17.953  0.00  0.00    +0.000 A 
ATOM     26  C   UNL     1       2.204   9.065  17.880  0.00  0.00    +0.000 A 
ATOM     27  C   UNL     1       1.974   8.169  18.939  0.00  0.00    +0.000 A 
ATOM     28  C   UNL     1       2.446   6.841  18.905  0.00  0.00    +0.000 A 
ENDBRANCH  18  19
ENDBRANCH   3  18
TORSDOF 2
ENDMDL
MODEL 2
REMARK VINA RESULT:      -8.0      3.730      5.487
REMARK  Name = 
REMARK  3 active torsions:
REMARK  status: ('A' for Active; 'I' for Inactive)
REMARK    1  A    between atoms: C_1  and  C_2
REMARK    2  A    between atoms: C_3  and  S_4
REMARK    3  A    between atoms: S_4  and  C_5
REMARK                            x       y       z     vdW  Elec       q    Type
REMARK                         _______ _______ _______ _____ _____    ______ ____
ROOT
ATOM      1  C   UNL     1       3.872   6.637  17.260  0.00  0.00    +0.000 C 
ATOM      2  C   UNL     1       3.009   6.641  18.501  0.00  0.00    +0.000 A 
ATOM      3  C   UNL     1       2.299   7.807  18.871  0.00  0.00    +0.000 A 
ATOM      4  C   UNL     1       1.567   7.801  20.058  0.00  0.00    +0.000 A 
ATOM      5  C   UNL     1       1.511   6.654  20.855  0.00  0.00    +0.000 A 
ATOM      6  C   UNL     1       2.152   5.480  20.500  0.00  0.00    +0.000 A 
ATOM      7  N   UNL     1       2.001   4.442  21.335  0.00  0.00    +0.000 NA
ATOM      8  C   UNL     1       2.599   3.301  21.019  0.00  0.00    +0.000 A 
ATOM      9  N   UNL     1       2.462   2.240  21.891  0.00  0.00    +0.000 N 
ATOM     10  N   UNL     1       3.315   3.108  19.917  0.00  0.00    +0.000 NA
ATOM     11  C   UNL     1       3.473   4.163  19.099  0.00  0.00    +0.000 A 
ATOM     12  N   UNL     1       4.245   3.849  17.977  0.00  0.00    +0.000 N 
ATOM     13  C   UNL     1       2.910   5.442  19.321  0.00  0.00    +0.000 A 
ATOM     14  H   UNL     1       1.642   2.347  22.468  0.00  0.00    +0.000 HD
ATOM     15  H   UNL     1       2.598   1.359  21.417  0.00  0.00    +0.000 HD
ATOM     16  H   UNL     1       4.518   2.875  18.085  0.00  0.00    +0.000 HD
ATOM     17  H   UNL     1       5.069   4.439  17.923  0.00  0.00    +0.000 HD
ENDROOT
BRANCH   3  18
ATOM     18  S   UNL     1       2.318   9.338  17.934  0.00  0.00    +0.000 S 
BRANCH  18  19
ATOM     19  C   UNL     1       0.779  10.143  18.378  0.00  0.00    +0.000 A 
ATOM     20  C   UNL     1       0.693  11.186  19.301  0.00  0.00    +0.000 A 
ATOM     21  C   UNL     1      -0.533  11.796  19.579  0.00  0.00    +0.000 A 
ATOM     22  C   UNL     1      -1.707  11.379  18.936  0.00  0.00    +0.000 A 
ATOM     23  C   UNL     1      -2.936  12.016  19.175  0.00  0.00    +0.000 A 
ATOM     24  C   UNL     1      -4.091  11.610  18.507  0.00  0.00    +0.000 A 
ATOM     25  C   UNL     1      -4.033  10.552  17.603  0.00  0.00    +0.000 A 
ATOM     26  C   UNL     1      -2.821   9.899  17.368  0.00  0.00    +0.000 A 
ATOM     27  C   UNL     1      -1.645  10.306  18.022  0.00  0.00    +0.000 A 
ATOM     28  C   UNL     1      -0.403   9.688  17.770  0.00  0.00    +0.000 A 
ENDBRANCH  18  19
ENDBRANCH   3  18
TORSDOF 2
ENDMDL
MODEL 3
REMARK VINA RESULT:      -7.9      0.846      1.758
REMARK  Name = 
REMARK  3 active torsions:
REMARK  status: ('A' for Active; 'I' for Inactive)
REMARK    1  A    between atoms: C_1  and  C_2
REMARK    2  A    between atoms: C_3  and  S_4
REMARK    3  A    between atoms: S_4  and  C_5
REMARK                            x       y       z     vdW  Elec       q    Type
REMARK                         _______ _______ _______ _____ _____    ______ ____
ROOT
ATOM      1  C   UNL     1       5.969   6.148  18.918  0.00  0.00    +0.000 C 
ATOM      2  C   UNL     1       5.169   5.319  17.939  0.00  0.00    +0.000 A 
ATOM      3  C   UNL     1       3.904   4.804  18.308  0.00  0.00    +0.000 A 
ATOM      4  C   UNL     1       3.222   3.986  17.407  0.00  0.00    +0.000 A 
ATOM      5  C   UNL     1       3.765   3.702  16.151  0.00  0.00    +0.000 A 
ATOM      6  C   UNL     1       4.976   4.228  15.737  0.00  0.00    +0.000 A 
ATOM      7  N   UNL     1       5.375   3.901  14.499  0.00  0.00    +0.000 NA
ATOM      8  C   UNL     1       6.531   4.394  14.071  0.00  0.00    +0.000 A 
ATOM      9  N   UNL     1       6.953   4.039  12.807  0.00  0.00    +0.000 N 
ATOM     10  N   UNL     1       7.305   5.212  14.775  0.00  0.00    +0.000 NA
ATOM     11  C   UNL     1       6.900   5.515  16.021  0.00  0.00    +0.000 A 
ATOM     12  N   UNL     1       7.790   6.376  16.670  0.00  0.00    +0.000 N 
ATOM     13  C   UNL     1       5.703   5.046  16.612  0.00  0.00    +0.000 A 
ATOM     14  H   UNL     1       6.176   3.747  12.233  0.00  0.00    +0.000 HD
ATOM     15  H   UNL     1       7.591   4.724  12.429  0.00  0.00    +0.000 HD
ATOM     16  H   UNL     1       8.554   6.537  16.018  0.00  0.00    +0.000 HD
ATOM     17  H   UNL     1       8.143   5.960  17.525  0.00  0.00    +0.000 HD
ENDROOT
BRANCH   3  18
ATOM     18  S   UNL     1       3.126   5.089  19.900  0.00  0.00    +0.000 S 
BRANCH  18  19
ATOM     19  C   UNL     1       2.384   6.712  19.741  0.00  0.00    +0.000 A 
ATOM     20  C   UNL     1       2.438   7.474  18.572  0.00  0.00    +0.000 A 
ATOM     21  C   UNL     1       1.810   8.721  18.501  0.00  0.00    +0.000 A 
ATOM     22  C   UNL     1       1.106   9.236  19.598  0.00  0.00    +0.000 A 
ATOM     23  C   UNL     1       0.433  10.466  19.521  0.00  0.00    +0.000 A 
ATOM     24  C   UNL     1      -0.289  10.954  20.610  0.00  0.00    +0.000 A 
ATOM     25  C   UNL     1      -0.333  10.224  21.795  0.00  0.00    +0.000 A 
ATOM     26  C   UNL     1       0.346   9.006  21.892  0.00  0.00    +0.000 A 
ATOM     27  C   UNL     1       1.064   8.493  20.798  0.00  0.00    +0.000 A 
ATOM     28  C   UNL     1       1.723   7.248  20.859  0.00  0.00    +0.000 A 
ENDBRANCH  18  19
ENDBRANCH   3  18
TORSDOF 2
ENDMDL
MODEL 4
REMARK VINA RESULT:      -7.9      6.431      9.313
REMARK  Name = 
REMARK  3 active torsions:
REMARK  status: ('A' for Active; 'I' for Inactive)
REMARK    1  A    between atoms: C_1  and  C_2
REMARK    2  A    between atoms: C_3  and  S_4
REMARK    3  A    between atoms: S_4  and  C_5
REMARK                            x       y       z     vdW  Elec       q    Type
REMARK                         _______ _______ _______ _____ _____    ______ ____
ROOT
ATOM      1  C   UNL     1      -0.912  12.890  20.026  0.00  0.00    +0.000 C 
ATOM      2  C   UNL     1      -1.467  11.827  19.106  0.00  0.00    +0.000 A 
ATOM      3  C   UNL     1      -0.599  10.898  18.485  0.00  0.00    +0.000 A 
ATOM      4  C   UNL     1      -1.134   9.973  17.589  0.00  0.00    +0.000 A 
ATOM      5  C   UNL     1      -2.507   9.945  17.329  0.00  0.00    +0.000 A 
ATOM      6  C   UNL     1      -3.391  10.805  17.955  0.00  0.00    +0.000 A 
ATOM      7  N   UNL     1      -4.687  10.660  17.640  0.00  0.00    +0.000 NA
ATOM      8  C   UNL     1      -5.561  11.467  18.227  0.00  0.00    +0.000 A 
ATOM      9  N   UNL     1      -6.891  11.333  17.886  0.00  0.00    +0.000 N 
ATOM     10  N   UNL     1      -5.244  12.389  19.128  0.00  0.00    +0.000 NA
ATOM     11  C   UNL     1      -3.940  12.536  19.420  0.00  0.00    +0.000 A 
ATOM     12  N   UNL     1      -3.720  13.534  20.372  0.00  0.00    +0.000 N 
ATOM     13  C   UNL     1      -2.899  11.759  18.856  0.00  0.00    +0.000 A 
ATOM     14  H   UNL     1      -7.080  10.416  17.511  0.00  0.00    +0.000 HD
ATOM     15  H   UNL     1      -7.493  11.681  18.618  0.00  0.00    +0.000 HD
ATOM     16  H   UNL     1      -4.634  13.924  20.589  0.00  0.00    +0.000 HD
ATOM     17  H   UNL     1      -3.109  14.258  20.010  0.00  0.00    +0.000 HD
ENDROOT
BRANCH   3  18
ATOM     18  S   UNL     1       1.178  10.859  18.731  0.00  0.00    +0.000 S 
BRANCH  18  19
ATOM     19  C   UNL     1       1.506   9.191  19.299  0.00  0.00    +0.000 A 
ATOM     20  C   UNL     1       1.139   8.721  20.561  0.00  0.00    +0.000 A 
ATOM     21  C   UNL     1       1.394   7.397  20.933  0.00  0.00    +0.000 A 
ATOM     22  C   UNL     1       2.019   6.508  20.048  0.00  0.00    +0.000 A 
ATOM     23  C   UNL     1       2.238   5.165  20.396  0.00  0.00    +0.000 A 
ATOM     24  C   UNL     1       2.835   4.284  19.494  0.00  0.00    +0.000 A 
ATOM     25  C   UNL     1       3.234   4.739  18.241  0.00  0.00    +0.000 A 
ATOM     26  C   UNL     1       3.038   6.077  17.888  0.00  0.00    +0.000 A 
ATOM     27  C   UNL     1       2.424   6.974  18.778  0.00  0.00    +0.000 A 
ATOM     28  C   UNL     1       2.179   8.318  18.429  0.00  0.00    +0.000 A 
ENDBRANCH  18  19
ENDBRANCH   3  18
TORSDOF 2
ENDMDL
MODEL 5
REMARK VINA RESULT:      -7.8      3.961      5.788
REMARK  Name = 
REMARK  3 active torsions:
REMARK  status: ('A' for Active; 'I' for Inactive)
REMARK    1  A    between atoms: C_1  and  C_2
REMARK    2  A    between atoms: C_3  and  S_4
REMARK    3  A    between atoms: S_4  and  C_5
REMARK                            x       y       z     vdW  Elec       q    Type
REMARK                         _______ _______ _______ _____ _____    ______ ____
ROOT
ATOM      1  C   UNL     1       1.043   7.813  21.329  0.00  0.00    +0.000 C 
ATOM      2  C   UNL     1       1.701   7.948  19.975  0.00  0.00    +0.000 A 
ATOM      3  C   UNL     1       1.615   9.166  19.259  0.00  0.00    +0.000 A 
ATOM      4  C   UNL     1       2.174   9.236  17.983  0.00  0.00    +0.000 A 
ATOM      5  C   UNL     1       2.833   8.134  17.431  0.00  0.00    +0.000 A 
ATOM      6  C   UNL     1       2.979   6.944  18.122  0.00  0.00    +0.000 A 
ATOM      7  N   UNL     1       3.655   5.970  17.494  0.00  0.00    +0.000 NA
ATOM      8  C   UNL     1       3.817   4.818  18.132  0.00  0.00    +0.000 A 
ATOM      9  N   UNL     1       4.491   3.808  17.477  0.00  0.00    +0.000 N 
ATOM     10  N   UNL     1       3.381   4.574  19.362  0.00  0.00    +0.000 NA
ATOM     11  C   UNL     1       2.689   5.553  19.972  0.00  0.00    +0.000 A 
ATOM     12  N   UNL     1       2.276   5.187  21.255  0.00  0.00    +0.000 N 
ATOM     13  C   UNL     1       2.425   6.822  19.403  0.00  0.00    +0.000 A 
ATOM     14  H   UNL     1       5.083   4.179  16.749  0.00  0.00    +0.000 HD
ATOM     15  H   UNL     1       4.894   3.154  18.131  0.00  0.00    +0.000 HD
ATOM     16  H   UNL     1       2.594   4.231  21.394  0.00  0.00    +0.000 HD
ATOM     17  H   UNL     1       1.266   5.234  21.342  0.00  0.00    +0.000 HD
ENDROOT
BRANCH   3  18
ATOM     18  S   UNL     1       0.777  10.633  19.863  0.00  0.00    +0.000 S 
BRANCH  18  19
ATOM     19  C   UNL     1      -0.739  10.696  18.909  0.00  0.00    +0.000 A 
ATOM     20  C   UNL     1      -0.924  10.007  17.709  0.00  0.00    +0.000 A 
ATOM     21  C   UNL     1      -2.143  10.070  17.028  0.00  0.00    +0.000 A 
ATOM     22  C   UNL     1      -3.212  10.823  17.533  0.00  0.00    +0.000 A 
ATOM     23  C   UNL     1      -4.455  10.856  16.881  0.00  0.00    +0.000 A 
ATOM     24  C   UNL     1      -5.519  11.586  17.410  0.00  0.00    +0.000 A 
ATOM     25  C   UNL     1      -5.348  12.304  18.591  0.00  0.00    +0.000 A 
ATOM     26  C   UNL     1      -4.111  12.294  19.242  0.00  0.00    +0.000 A 
ATOM     27  C   UNL     1      -3.034  11.551  18.730  0.00  0.00    +0.000 A 
ATOM     28  C   UNL     1      -1.790  11.493  19.391  0.00  0.00    +0.000 A 
ENDBRANCH  18  19
ENDBRANCH   3  18
TORSDOF 2
ENDMDL
MODEL 6
REMARK VINA RESULT:      -7.7      3.814      5.666
REMARK  Name = 
REMARK  3 active torsions:
REMARK  status: ('A' for Active; 'I' for Inactive)
REMARK    1  A    between atoms: C_1  and  C_2
REMARK    2  A    between atoms: C_3  and  S_4
REMARK    3  A    between atoms: S_4  and  C_5
REMARK                            x       y       z     vdW  Elec       q    Type
REMARK                         _______ _______ _______ _____ _____    ______ ____
ROOT
ATOM      1  C   UNL     1       1.030   7.923  21.576  0.00  0.00    +0.000 C 
ATOM      2  C   UNL     1       1.617   8.157  20.203  0.00  0.00    +0.000 A 
ATOM      3  C   UNL     1       1.522   9.432  19.596  0.00  0.00    +0.000 A 
ATOM      4  C   UNL     1       2.012   9.598  18.301  0.00  0.00    +0.000 A 
ATOM      5  C   UNL     1       2.613   8.532  17.624  0.00  0.00    +0.000 A 
ATOM      6  C   UNL     1       2.767   7.286  18.205  0.00  0.00    +0.000 A 
ATOM      7  N   UNL     1       3.383   6.355  17.462  0.00  0.00    +0.000 NA
ATOM      8  C   UNL     1       3.551   5.150  17.993  0.00  0.00    +0.000 A 
ATOM      9  N   UNL     1       4.164   4.186  17.220  0.00  0.00    +0.000 N 
ATOM     10  N   UNL     1       3.177   4.813  19.221  0.00  0.00    +0.000 NA
ATOM     11  C   UNL     1       2.544   5.751  19.947  0.00  0.00    +0.000 A 
ATOM     12  N   UNL     1       2.191   5.288  21.217  0.00  0.00    +0.000 N 
ATOM     13  C   UNL     1       2.280   7.068  19.501  0.00  0.00    +0.000 A 
ATOM     14  H   UNL     1       4.725   4.604  16.493  0.00  0.00    +0.000 HD
ATOM     15  H   UNL     1       4.586   3.471  17.794  0.00  0.00    +0.000 HD
ATOM     16  H   UNL     1       2.493   4.317  21.258  0.00  0.00    +0.000 HD
ATOM     17  H   UNL     1       1.190   5.347  21.364  0.00  0.00    +0.000 HD
ENDROOT
BRANCH   3  18
ATOM     18  S   UNL     1       0.754  10.859  20.365  0.00  0.00    +0.000 S 
BRANCH  18  19
ATOM     19  C   UNL     1      -0.778  11.075  19.460  0.00  0.00    +0.000 A 
ATOM     20  C   UNL     1      -1.819  11.898  19.892  0.00  0.00    +0.000 A 
ATOM     21  C   UNL     1      -2.977  12.051  19.124  0.00  0.00    +0.000 A 
ATOM     22  C   UNL     1      -3.120  11.385  17.899  0.00  0.00    +0.000 A 
ATOM     23  C   UNL     1      -4.260  11.567  17.098  0.00  0.00    +0.000 A 
ATOM     24  C   UNL     1      -4.377  10.922  15.867  0.00  0.00    +0.000 A 
ATOM     25  C   UNL     1      -3.363  10.074  15.430  0.00  0.00    +0.000 A 
ATOM     26  C   UNL     1      -2.231   9.870  16.224  0.00  0.00    +0.000 A 
ATOM     27  C   UNL     1      -2.090  10.525  17.459  0.00  0.00    +0.000 A 
ATOM     28  C   UNL     1      -0.940  10.366  18.259  0.00  0.00    +0.000 A 
ENDBRANCH  18  19
ENDBRANCH   3  18
TORSDOF 2
ENDMDL
MODEL 7
REMARK VINA RESULT:      -7.7      5.796      8.643
REMARK  Name = 
REMARK  3 active torsions:
REMARK  status: ('A' for Active; 'I' for Inactive)
REMARK    1  A    between atoms: C_1  and  C_2
REMARK    2  A    between atoms: C_3  and  S_4
REMARK    3  A    between atoms: S_4  and  C_5
REMARK                            x       y       z     vdW  Elec       q    Type
REMARK                         _______ _______ _______ _____ _____    ______ ____
ROOT
ATOM      1  C   UNL     1       1.316  11.173  20.500  0.00  0.00    +0.000 C 
ATOM      2  C   UNL     1       0.293  10.776  19.461  0.00  0.00    +0.000 A 
ATOM      3  C   UNL     1       0.641   9.878  18.425  0.00  0.00    +0.000 A 
ATOM      4  C   UNL     1      -0.305   9.585  17.443  0.00  0.00    +0.000 A 
ATOM      5  C   UNL     1      -1.583  10.146  17.495  0.00  0.00    +0.000 A 
ATOM      6  C   UNL     1      -1.975  10.989  18.520  0.00  0.00    +0.000 A 
ATOM      7  N   UNL     1      -3.237  11.441  18.471  0.00  0.00    +0.000 NA
ATOM      8  C   UNL     1      -3.644  12.248  19.442  0.00  0.00    +0.000 A 
ATOM      9  N   UNL     1      -4.935  12.731  19.379  0.00  0.00    +0.000 N 
ATOM     10  N   UNL     1      -2.896  12.615  20.476  0.00  0.00    +0.000 NA
ATOM     11  C   UNL     1      -1.628  12.170  20.502  0.00  0.00    +0.000 A 
ATOM     12  N   UNL     1      -0.933  12.620  21.627  0.00  0.00    +0.000 N 
ATOM     13  C   UNL     1      -1.056  11.321  19.524  0.00  0.00    +0.000 A 
ATOM     14  H   UNL     1      -5.518  12.137  18.809  0.00  0.00    +0.000 HD
ATOM     15  H   UNL     1      -5.272  12.991  20.294  0.00  0.00    +0.000 HD
ATOM     16  H   UNL     1      -1.581  13.211  22.143  0.00  0.00    +0.000 HD
ATOM     17  H   UNL     1      -0.112  13.154  21.361  0.00  0.00    +0.000 HD
ENDROOT
BRANCH   3  18
ATOM     18  S   UNL     1       2.257   9.118  18.251  0.00  0.00    +0.000 S 
BRANCH  18  19
ATOM     19  C   UNL     1       2.057   7.490  18.974  0.00  0.00    +0.000 A 
ATOM     20  C   UNL     1       1.803   7.275  20.330  0.00  0.00    +0.000 A 
ATOM     21  C   UNL     1       1.622   5.981  20.827  0.00  0.00    +0.000 A 
ATOM     22  C   UNL     1       1.689   4.867  19.979  0.00  0.00    +0.000 A 
ATOM     23  C   UNL     1       1.464   3.568  20.461  0.00  0.00    +0.000 A 
ATOM     24  C   UNL     1       1.503   2.471  19.599  0.00  0.00    +0.000 A 
ATOM     25  C   UNL     1       1.783   2.660  18.249  0.00  0.00    +0.000 A 
ATOM     26  C   UNL     1       2.026   3.946  17.758  0.00  0.00    +0.000 A 
ATOM     27  C   UNL     1       1.974   5.063  18.610  0.00  0.00    +0.000 A 
ATOM     28  C   UNL     1       2.175   6.374  18.130  0.00  0.00    +0.000 A 
ENDBRANCH  18  19
ENDBRANCH   3  18
TORSDOF 2
ENDMDL
MODEL 8
REMARK VINA RESULT:      -7.6      3.168      4.459
REMARK  Name = 
REMARK  3 active torsions:
REMARK  status: ('A' for Active; 'I' for Inactive)
REMARK    1  A    between atoms: C_1  and  C_2
REMARK    2  A    between atoms: C_3  and  S_4
REMARK    3  A    between atoms: S_4  and  C_5
REMARK                            x       y       z     vdW  Elec       q    Type
REMARK                         _______ _______ _______ _____ _____    ______ ____
ROOT
ATOM      1  C   UNL     1       1.227   4.964  17.557  0.00  0.00    +0.000 C 
ATOM      2  C   UNL     1       2.587   5.025  18.212  0.00  0.00    +0.000 A 
ATOM      3  C   UNL     1       3.245   6.267  18.376  0.00  0.00    +0.000 A 
ATOM      4  C   UNL     1       4.528   6.282  18.921  0.00  0.00    +0.000 A 
ATOM      5  C   UNL     1       5.145   5.095  19.326  0.00  0.00    +0.000 A 
ATOM      6  C   UNL     1       4.513   3.868  19.227  0.00  0.00    +0.000 A 
ATOM      7  N   UNL     1       5.200   2.806  19.674  0.00  0.00    +0.000 NA
ATOM      8  C   UNL     1       4.619   1.615  19.597  0.00  0.00    +0.000 A 
ATOM      9  N   UNL     1       5.335   0.520  20.036  0.00  0.00    +0.000 N 
ATOM     10  N   UNL     1       3.392   1.407  19.135  0.00  0.00    +0.000 NA
ATOM     11  C   UNL     1       2.723   2.478  18.673  0.00  0.00    +0.000 A 
ATOM     12  N   UNL     1       1.448   2.144  18.207  0.00  0.00    +0.000 N 
ATOM     13  C   UNL     1       3.226   3.801  18.675  0.00  0.00    +0.000 A 
ATOM     14  H   UNL     1       6.058   0.794  20.684  0.00  0.00    +0.000 HD
ATOM     15  H   UNL     1       4.720  -0.235  20.300  0.00  0.00    +0.000 HD
ATOM     16  H   UNL     1       1.361   1.137  18.319  0.00  0.00    +0.000 HD
ATOM     17  H   UNL     1       1.337   2.398  17.232  0.00  0.00    +0.000 HD
ENDROOT
BRANCH   3  18
ATOM     18  S   UNL     1       2.555   7.845  17.873  0.00  0.00    +0.000 S 
BRANCH  18  19
ATOM     19  C   UNL     1       1.683   8.426  19.327  0.00  0.00    +0.000 A 
ATOM     20  C   UNL     1       1.700   7.760  20.553  0.00  0.00    +0.000 A 
ATOM     21  C   UNL     1       1.026   8.283  21.661  0.00  0.00    +0.000 A 
ATOM     22  C   UNL     1       0.319   9.490  21.570  0.00  0.00    +0.000 A 
ATOM     23  C   UNL     1      -0.323  10.046  22.688  0.00  0.00    +0.000 A 
ATOM     24  C   UNL     1      -0.998  11.263  22.591  0.00  0.00    +0.000 A 
ATOM     25  C   UNL     1      -1.051  11.930  21.370  0.00  0.00    +0.000 A 
ATOM     26  C   UNL     1      -0.431  11.380  20.245  0.00  0.00    +0.000 A 
ATOM     27  C   UNL     1       0.266  10.163  20.330  0.00  0.00    +0.000 A 
ATOM     28  C   UNL     1       0.933   9.609  19.218  0.00  0.00    +0.000 A 
ENDBRANCH  18  19
ENDBRANCH   3  18
TORSDOF 2
ENDMDL
MODEL 9
REMARK VINA RESULT:      -7.5      4.340      7.663
REMARK  Name = 
REMARK  3 active torsions:
REMARK  status: ('A' for Active; 'I' for Inactive)
REMARK    1  A    between atoms: C_1  and  C_2
REMARK    2  A    between atoms: C_3  and  S_4
REMARK    3  A    between atoms: S_4  and  C_5
REMARK                            x       y       z     vdW  Elec       q    Type
REMARK                         _______ _______ _______ _____ _____    ______ ____
ROOT
ATOM      1  C   UNL     1       0.565   8.533  22.176  0.00  0.00    +0.000 C 
ATOM      2  C   UNL     1       0.994   8.870  20.767  0.00  0.00    +0.000 A 
ATOM      3  C   UNL     1       1.587   7.881  19.947  0.00  0.00    +0.000 A 
ATOM      4  C   UNL     1       2.034   8.241  18.676  0.00  0.00    +0.000 A 
ATOM      5  C   UNL     1       1.875   9.548  18.208  0.00  0.00    +0.000 A 
ATOM      6  C   UNL     1       1.255  10.529  18.962  0.00  0.00    +0.000 A 
ATOM      7  N   UNL     1       1.139  11.736  18.391  0.00  0.00    +0.000 NA
ATOM      8  C   UNL     1       0.545  12.697  19.087  0.00  0.00    +0.000 A 
ATOM      9  N   UNL     1       0.448  13.945  18.508  0.00  0.00    +0.000 N 
ATOM     10  N   UNL     1       0.031  12.536  20.301  0.00  0.00    +0.000 NA
ATOM     11  C   UNL     1       0.171  11.325  20.868  0.00  0.00    +0.000 A 
ATOM     12  N   UNL     1      -0.400  11.270  22.142  0.00  0.00    +0.000 N 
ATOM     13  C   UNL     1       0.799  10.217  20.250  0.00  0.00    +0.000 A 
ATOM     14  H   UNL     1       0.513  13.886  17.503  0.00  0.00    +0.000 HD
ATOM     15  H   UNL     1      -0.316  14.473  18.904  0.00  0.00    +0.000 HD
ATOM     16  H   UNL     1      -0.767  12.200  22.329  0.00  0.00    +0.000 HD
ATOM     17  H   UNL     1       0.290  11.020  22.842  0.00  0.00    +0.000 HD
ENDROOT
BRANCH   3  18
ATOM     18  S   UNL     1       1.858   6.182  20.454  0.00  0.00    +0.000 S 
BRANCH  18  19
ATOM     19  C   UNL     1       2.966   5.523  19.209  0.00  0.00    +0.000 A 
ATOM     20  C   UNL     1       2.527   4.900  18.039  0.00  0.00    +0.000 A 
ATOM     21  C   UNL     1       3.442   4.437  17.089  0.00  0.00    +0.000 A 
ATOM     22  C   UNL     1       4.821   4.589  17.284  0.00  0.00    +0.000 A 
ATOM     23  C   UNL     1       5.746   4.168  16.314  0.00  0.00    +0.000 A 
ATOM     24  C   UNL     1       7.116   4.352  16.508  0.00  0.00    +0.000 A 
ATOM     25  C   UNL     1       7.576   4.945  17.680  0.00  0.00    +0.000 A 
ATOM     26  C   UNL     1       6.668   5.353  18.661  0.00  0.00    +0.000 A 
ATOM     27  C   UNL     1       5.285   5.190  18.474  0.00  0.00    +0.000 A 
ATOM     28  C   UNL     1       4.348   5.630  19.431  0.00  0.00    +0.000 A 
ENDBRANCH  18  19
ENDBRANCH   3  18
TORSDOF 2
ENDMDL
