MODEL 1
REMARK VINA RESULT:      -7.2      0.000      0.000
REMARK  Name = 
REMARK  13 active torsions:
REMARK  status: ('A' for Active; 'I' for Inactive)
REMARK    1  A    between atoms: C_1  and  C_2
REMARK    2  A    between atoms: C_2  and  O_3
REMARK    3  A    between atoms: O_3  and  C_4
REMARK    4  A    between atoms: C_4  and  C_6
REMARK    5  A    between atoms: C_6  and  C_7
REMARK    6  A    between atoms: C_7  and  C_8
REMARK    7  A    between atoms: C_8  and  C_9
REMARK    8  A    between atoms: C_9  and  C_10
REMARK    9  A    between atoms: C_10  and  O_11
REMARK   10  A    between atoms: O_11  and  C_12
REMARK   11  A    between atoms: C_20  and  C_21
REMARK   12  A    between atoms: C_24  and  O_25
REMARK   13  A    between atoms: O_25  and  C_26
REMARK                            x       y       z     vdW  Elec       q    Type
REMARK                         _______ _______ _______ _____ _____    ______ ____
ROOT
ATOM      1  C   UNL     1       7.583   6.850  18.182  0.00  0.00    +0.000 A 
ATOM      2  C   UNL     1       6.993   7.054  16.933  0.00  0.00    +0.000 A 
ATOM      3  C   UNL     1       5.910   6.273  16.528  0.00  0.00    +0.000 A 
ATOM      4  C   UNL     1       5.395   5.290  17.381  0.00  0.00    +0.000 A 
ATOM      5  C   UNL     1       6.031   5.044  18.599  0.00  0.00    +0.000 A 
ATOM      6  C   UNL     1       7.100   5.837  19.008  0.00  0.00    +0.000 A 
ATOM      7  O   UNL     1       5.642   4.079  19.490  0.00  0.00    +0.000 OA
ATOM      8  C   UNL     1       4.569   3.234  19.063  0.00  0.00    +0.000 C 
ATOM      9  C   UNL     1       3.474   3.971  18.278  0.00  0.00    +0.000 C 
ATOM     10  C   UNL     1       4.157   4.523  17.011  0.00  0.00    +0.000 C 
ENDROOT
BRANCH   9  11
ATOM     11  C   UNL     1       2.701   5.041  19.053  0.00  0.00    +0.000 A 
ATOM     12  C   UNL     1       2.076   4.805  20.288  0.00  0.00    +0.000 A 
ATOM     13  C   UNL     1       1.425   5.834  20.979  0.00  0.00    +0.000 A 
ATOM     14  C   UNL     1       1.387   7.123  20.454  0.00  0.00    +0.000 A 
ATOM     15  C   UNL     1       1.953   7.366  19.206  0.00  0.00    +0.000 A 
ATOM     16  C   UNL     1       2.594   6.335  18.512  0.00  0.00    +0.000 A 
BRANCH  14  17
ATOM     17  O   UNL     1       0.745   8.055  21.221  0.00  0.00    +0.000 OA
ATOM     18  C   UNL     1       1.603   8.913  21.964  0.00  0.00    +0.000 C 
ENDBRANCH  14  17
ENDBRANCH   9  11
BRANCH   1  19
ATOM     19  O   UNL     1       8.591   7.717  18.508  0.00  0.00    +0.000 OA
BRANCH  19  20
ATOM     20  C   UNL     1       8.371   9.073  18.123  0.00  0.00    +0.000 C 
BRANCH  20  21
ATOM     21  C   UNL     1       9.253   9.974  18.974  0.00  0.00    +0.000 C 
BRANCH  21  22
ATOM     22  C   UNL     1       9.330  11.372  18.368  0.00  0.00    +0.000 C 
BRANCH  22  23
ATOM     23  C   UNL     1      10.716  11.635  17.793  0.00  0.00    +0.000 C 
BRANCH  23  24
ATOM     24  C   UNL     1      10.933  13.116  17.504  0.00  0.00    +0.000 C 
BRANCH  24  25
ATOM     25  C   UNL     1      11.816  13.737  18.557  0.00  0.00    +0.000 C 
ATOM     26  O   UNL     1      12.080  13.236  19.641  0.00  0.00    +0.000 OA
BRANCH  25  27
ATOM     27  O   UNL     1      12.200  14.978  18.148  0.00  0.00    +0.000 OA
BRANCH  27  29
ATOM     28  C   UNL     1      11.186  16.906  17.175  0.00  0.00    +0.000 C 
ATOM     29  C   UNL     1      11.245  16.016  18.404  0.00  0.00    +0.000 C 
ENDBRANCH  27  29
ENDBRANCH  25  27
ENDBRANCH  24  25
ENDBRANCH  23  24
ENDBRANCH  22  23
ENDBRANCH  21  22
ENDBRANCH  20  21
ENDBRANCH  19  20
ENDBRANCH   1  19
TORSDOF 11
ENDMDL
MODEL 2
REMARK VINA RESULT:      -6.9      1.070      1.208
REMARK  Name = 
REMARK  13 active torsions:
REMARK  status: ('A' for Active; 'I' for Inactive)
REMARK    1  A    between atoms: C_1  and  C_2
REMARK    2  A    between atoms: C_2  and  O_3
REMARK    3  A    between atoms: O_3  and  C_4
REMARK    4  A    between atoms: C_4  and  C_6
REMARK    5  A    between atoms: C_6  and  C_7
REMARK    6  A    between atoms: C_7  and  C_8
REMARK    7  A    between atoms: C_8  and  C_9
REMARK    8  A    between atoms: C_9  and  C_10
REMARK    9  A    between atoms: C_10  and  O_11
REMARK   10  A    between atoms: O_11  and  C_12
REMARK   11  A    between atoms: C_20  and  C_21
REMARK   12  A    between atoms: C_24  and  O_25
REMARK   13  A    between atoms: O_25  and  C_26
REMARK                            x       y       z     vdW  Elec       q    Type
REMARK                         _______ _______ _______ _____ _____    ______ ____
ROOT
ATOM      1  C   UNL     1       7.057   6.565  17.221  0.00  0.00    +0.000 A 
ATOM      2  C   UNL     1       6.255   6.471  16.082  0.00  0.00    +0.000 A 
ATOM      3  C   UNL     1       5.123   5.655  16.081  0.00  0.00    +0.000 A 
ATOM      4  C   UNL     1       4.772   4.938  17.231  0.00  0.00    +0.000 A 
ATOM      5  C   UNL     1       5.614   4.982  18.344  0.00  0.00    +0.000 A 
ATOM      6  C   UNL     1       6.733   5.811  18.348  0.00  0.00    +0.000 A 
ATOM      7  O   UNL     1       5.394   4.289  19.504  0.00  0.00    +0.000 OA
ATOM      8  C   UNL     1       4.268   3.405  19.497  0.00  0.00    +0.000 C 
ATOM      9  C   UNL     1       3.047   3.962  18.749  0.00  0.00    +0.000 C 
ATOM     10  C   UNL     1       3.494   4.151  17.286  0.00  0.00    +0.000 C 
ENDROOT
BRANCH   9  11
ATOM     11  C   UNL     1       2.415   5.222  19.347  0.00  0.00    +0.000 A 
ATOM     12  C   UNL     1       1.684   5.229  20.546  0.00  0.00    +0.000 A 
ATOM     13  C   UNL     1       1.170   6.419  21.074  0.00  0.00    +0.000 A 
ATOM     14  C   UNL     1       1.379   7.630  20.420  0.00  0.00    +0.000 A 
ATOM     15  C   UNL     1       2.054   7.638  19.203  0.00  0.00    +0.000 A 
ATOM     16  C   UNL     1       2.558   6.446  18.671  0.00  0.00    +0.000 A 
BRANCH  14  17
ATOM     17  O   UNL     1       0.853   8.733  21.034  0.00  0.00    +0.000 OA
ATOM     18  C   UNL     1       1.440   9.054  22.290  0.00  0.00    +0.000 C 
ENDBRANCH  14  17
ENDBRANCH   9  11
BRANCH   1  19
ATOM     19  O   UNL     1       8.100   7.446  17.138  0.00  0.00    +0.000 OA
BRANCH  19  20
ATOM     20  C   UNL     1       8.438   8.101  18.360  0.00  0.00    +0.000 C 
BRANCH  20  21
ATOM     21  C   UNL     1       8.556   9.594  18.100  0.00  0.00    +0.000 C 
BRANCH  21  22
ATOM     22  C   UNL     1       9.278  10.282  19.255  0.00  0.00    +0.000 C 
BRANCH  22  23
ATOM     23  C   UNL     1      10.304  11.279  18.733  0.00  0.00    +0.000 C 
BRANCH  23  24
ATOM     24  C   UNL     1      11.040  11.978  19.871  0.00  0.00    +0.000 C 
BRANCH  24  25
ATOM     25  C   UNL     1      10.763  13.460  19.849  0.00  0.00    +0.000 C 
ATOM     26  O   UNL     1      10.921  14.222  20.792  0.00  0.00    +0.000 OA
BRANCH  25  27
ATOM     27  O   UNL     1      10.229  13.799  18.642  0.00  0.00    +0.000 OA
BRANCH  27  29
ATOM     28  C   UNL     1      11.879  14.700  17.173  0.00  0.00    +0.000 C 
ATOM     29  C   UNL     1      10.718  15.030  18.095  0.00  0.00    +0.000 C 
ENDBRANCH  27  29
ENDBRANCH  25  27
ENDBRANCH  24  25
ENDBRANCH  23  24
ENDBRANCH  22  23
ENDBRANCH  21  22
ENDBRANCH  20  21
ENDBRANCH  19  20
ENDBRANCH   1  19
TORSDOF 11
ENDMDL
MODEL 3
REMARK VINA RESULT:      -6.9      2.979     10.466
REMARK  Name = 
REMARK  13 active torsions:
REMARK  status: ('A' for Active; 'I' for Inactive)
REMARK    1  A    between atoms: C_1  and  C_2
REMARK    2  A    between atoms: C_2  and  O_3
REMARK    3  A    between atoms: O_3  and  C_4
REMARK    4  A    between atoms: C_4  and  C_6
REMARK    5  A    between atoms: C_6  and  C_7
REMARK    6  A    between atoms: C_7  and  C_8
REMARK    7  A    between atoms: C_8  and  C_9
REMARK    8  A    between atoms: C_9  and  C_10
REMARK    9  A    between atoms: C_10  and  O_11
REMARK   10  A    between atoms: O_11  and  C_12
REMARK   11  A    between atoms: C_20  and  C_21
REMARK   12  A    between atoms: C_24  and  O_25
REMARK   13  A    between atoms: O_25  and  C_26
REMARK                            x       y       z     vdW  Elec       q    Type
REMARK                         _______ _______ _______ _____ _____    ______ ____
ROOT
ATOM      1  C   UNL     1       9.559  10.626  19.059  0.00  0.00    +0.000 A 
ATOM      2  C   UNL     1      10.060  10.916  20.330  0.00  0.00    +0.000 A 
ATOM      3  C   UNL     1      10.945  11.980  20.514  0.00  0.00    +0.000 A 
ATOM      4  C   UNL     1      11.323  12.776  19.426  0.00  0.00    +0.000 A 
ATOM      5  C   UNL     1      10.873  12.440  18.148  0.00  0.00    +0.000 A 
ATOM      6  C   UNL     1       9.976  11.390  17.970  0.00  0.00    +0.000 A 
ATOM      7  O   UNL     1      11.212  13.120  17.008  0.00  0.00    +0.000 OA
ATOM      8  C   UNL     1      12.163  14.177  17.175  0.00  0.00    +0.000 C 
ATOM      9  C   UNL     1      11.970  14.988  18.465  0.00  0.00    +0.000 C 
ATOM     10  C   UNL     1      12.177  13.995  19.626  0.00  0.00    +0.000 C 
ENDROOT
BRANCH   9  11
ATOM     11  C   UNL     1      10.657  15.767  18.574  0.00  0.00    +0.000 A 
ATOM     12  C   UNL     1      10.073  16.457  17.500  0.00  0.00    +0.000 A 
ATOM     13  C   UNL     1       8.844  17.112  17.642  0.00  0.00    +0.000 A 
ATOM     14  C   UNL     1       8.169  17.089  18.860  0.00  0.00    +0.000 A 
ATOM     15  C   UNL     1       8.756  16.458  19.952  0.00  0.00    +0.000 A 
ATOM     16  C   UNL     1       9.989  15.812  19.810  0.00  0.00    +0.000 A 
BRANCH  14  17
ATOM     17  O   UNL     1       6.967  17.742  18.882  0.00  0.00    +0.000 OA
ATOM     18  C   UNL     1       6.374  17.860  20.169  0.00  0.00    +0.000 C 
ENDBRANCH  14  17
ENDBRANCH   9  11
BRANCH   1  19
ATOM     19  O   UNL     1       8.645   9.609  19.003  0.00  0.00    +0.000 OA
BRANCH  19  20
ATOM     20  C   UNL     1       8.073   9.381  17.716  0.00  0.00    +0.000 C 
BRANCH  20  21
ATOM     21  C   UNL     1       7.780   7.896  17.566  0.00  0.00    +0.000 C 
BRANCH  21  22
ATOM     22  C   UNL     1       8.299   7.125  18.776  0.00  0.00    +0.000 C 
BRANCH  22  23
ATOM     23  C   UNL     1       7.555   5.806  18.934  0.00  0.00    +0.000 C 
BRANCH  23  24
ATOM     24  C   UNL     1       6.319   5.745  18.043  0.00  0.00    +0.000 C 
BRANCH  24  25
ATOM     25  C   UNL     1       5.657   4.395  18.149  0.00  0.00    +0.000 C 
ATOM     26  O   UNL     1       5.370   3.829  19.195  0.00  0.00    +0.000 OA
BRANCH  25  27
ATOM     27  O   UNL     1       5.508   3.869  16.902  0.00  0.00    +0.000 OA
BRANCH  27  29
ATOM     28  C   UNL     1       5.522   4.730  14.677  0.00  0.00    +0.000 C 
ATOM     29  C   UNL     1       6.366   4.437  15.905  0.00  0.00    +0.000 C 
ENDBRANCH  27  29
ENDBRANCH  25  27
ENDBRANCH  24  25
ENDBRANCH  23  24
ENDBRANCH  22  23
ENDBRANCH  21  22
ENDBRANCH  20  21
ENDBRANCH  19  20
ENDBRANCH   1  19
TORSDOF 11
ENDMDL
MODEL 4
REMARK VINA RESULT:      -6.8      1.355      1.512
REMARK  Name = 
REMARK  13 active torsions:
REMARK  status: ('A' for Active; 'I' for Inactive)
REMARK    1  A    between atoms: C_1  and  C_2
REMARK    2  A    between atoms: C_2  and  O_3
REMARK    3  A    between atoms: O_3  and  C_4
REMARK    4  A    between atoms: C_4  and  C_6
REMARK    5  A    between atoms: C_6  and  C_7
REMARK    6  A    between atoms: C_7  and  C_8
REMARK    7  A    between atoms: C_8  and  C_9
REMARK    8  A    between atoms: C_9  and  C_10
REMARK    9  A    between atoms: C_10  and  O_11
REMARK   10  A    between atoms: O_11  and  C_12
REMARK   11  A    between atoms: C_20  and  C_21
REMARK   12  A    between atoms: C_24  and  O_25
REMARK   13  A    between atoms: O_25  and  C_26
REMARK                            x       y       z     vdW  Elec       q    Type
REMARK                         _______ _______ _______ _____ _____    ______ ____
ROOT
ATOM      1  C   UNL     1       6.944   6.586  17.200  0.00  0.00    +0.000 A 
ATOM      2  C   UNL     1       6.123   6.532  16.071  0.00  0.00    +0.000 A 
ATOM      3  C   UNL     1       4.926   5.817  16.103  0.00  0.00    +0.000 A 
ATOM      4  C   UNL     1       4.529   5.161  17.275  0.00  0.00    +0.000 A 
ATOM      5  C   UNL     1       5.385   5.162  18.378  0.00  0.00    +0.000 A 
ATOM      6  C   UNL     1       6.570   5.891  18.349  0.00  0.00    +0.000 A 
ATOM      7  O   UNL     1       5.121   4.519  19.558  0.00  0.00    +0.000 OA
ATOM      8  C   UNL     1       3.924   3.735  19.584  0.00  0.00    +0.000 C 
ATOM      9  C   UNL     1       2.746   4.375  18.835  0.00  0.00    +0.000 C 
ATOM     10  C   UNL     1       3.189   4.488  17.363  0.00  0.00    +0.000 C 
ENDROOT
BRANCH   9  11
ATOM     11  C   UNL     1       2.230   5.699  19.406  0.00  0.00    +0.000 A 
ATOM     12  C   UNL     1       1.669   5.824  20.687  0.00  0.00    +0.000 A 
ATOM     13  C   UNL     1       1.261   7.069  21.179  0.00  0.00    +0.000 A 
ATOM     14  C   UNL     1       1.406   8.217  20.405  0.00  0.00    +0.000 A 
ATOM     15  C   UNL     1       1.910   8.106  19.112  0.00  0.00    +0.000 A 
ATOM     16  C   UNL     1       2.309   6.860  18.618  0.00  0.00    +0.000 A 
BRANCH  14  17
ATOM     17  O   UNL     1       0.995   9.382  20.991  0.00  0.00    +0.000 OA
ATOM     18  C   UNL     1       0.610   9.262  22.356  0.00  0.00    +0.000 C 
ENDBRANCH  14  17
ENDBRANCH   9  11
BRANCH   1  19
ATOM     19  O   UNL     1       8.057   7.373  17.084  0.00  0.00    +0.000 OA
BRANCH  19  20
ATOM     20  C   UNL     1       8.396   8.118  18.252  0.00  0.00    +0.000 C 
BRANCH  20  21
ATOM     21  C   UNL     1       8.300   9.602  17.933  0.00  0.00    +0.000 C 
BRANCH  21  22
ATOM     22  C   UNL     1       9.176  10.411  18.885  0.00  0.00    +0.000 C 
BRANCH  22  23
ATOM     23  C   UNL     1      10.228  11.197  18.113  0.00  0.00    +0.000 C 
BRANCH  23  24
ATOM     24  C   UNL     1       9.680  12.529  17.612  0.00  0.00    +0.000 C 
BRANCH  24  25
ATOM     25  C   UNL     1      10.390  13.678  18.280  0.00  0.00    +0.000 C 
ATOM     26  O   UNL     1      11.602  13.844  18.300  0.00  0.00    +0.000 OA
BRANCH  25  27
ATOM     27  O   UNL     1       9.478  14.453  18.930  0.00  0.00    +0.000 OA
BRANCH  27  29
ATOM     28  C   UNL     1       7.764  15.975  18.268  0.00  0.00    +0.000 C 
ATOM     29  C   UNL     1       8.191  14.518  18.302  0.00  0.00    +0.000 C 
ENDBRANCH  27  29
ENDBRANCH  25  27
ENDBRANCH  24  25
ENDBRANCH  23  24
ENDBRANCH  22  23
ENDBRANCH  21  22
ENDBRANCH  20  21
ENDBRANCH  19  20
ENDBRANCH   1  19
TORSDOF 11
ENDMDL
MODEL 5
REMARK VINA RESULT:      -6.8      4.041      7.823
REMARK  Name = 
REMARK  13 active torsions:
REMARK  status: ('A' for Active; 'I' for Inactive)
REMARK    1  A    between atoms: C_1  and  C_2
REMARK    2  A    between atoms: C_2  and  O_3
REMARK    3  A    between atoms: O_3  and  C_4
REMARK    4  A    between atoms: C_4  and  C_6
REMARK    5  A    between atoms: C_6  and  C_7
REMARK    6  A    between atoms: C_7  and  C_8
REMARK    7  A    between atoms: C_8  and  C_9
REMARK    8  A    between atoms: C_9  and  C_10
REMARK    9  A    between atoms: C_10  and  O_11
REMARK   10  A    between atoms: O_11  and  C_12
REMARK   11  A    between atoms: C_20  and  C_21
REMARK   12  A    between atoms: C_24  and  O_25
REMARK   13  A    between atoms: O_25  and  C_26
REMARK                            x       y       z     vdW  Elec       q    Type
REMARK                         _______ _______ _______ _____ _____    ______ ____
ROOT
ATOM      1  C   UNL     1       2.055   6.725  18.923  0.00  0.00    +0.000 A 
ATOM      2  C   UNL     1       1.671   6.797  20.264  0.00  0.00    +0.000 A 
ATOM      3  C   UNL     1       1.410   8.032  20.858  0.00  0.00    +0.000 A 
ATOM      4  C   UNL     1       1.514   9.209  20.108  0.00  0.00    +0.000 A 
ATOM      5  C   UNL     1       1.963   9.137  18.788  0.00  0.00    +0.000 A 
ATOM      6  C   UNL     1       2.205   7.902  18.192  0.00  0.00    +0.000 A 
ATOM      7  O   UNL     1       2.144  10.225  17.976  0.00  0.00    +0.000 OA
ATOM      8  C   UNL     1       1.935  11.501  18.589  0.00  0.00    +0.000 C 
ATOM      9  C   UNL     1       0.760  11.529  19.578  0.00  0.00    +0.000 C 
ATOM     10  C   UNL     1       1.122  10.533  20.697  0.00  0.00    +0.000 C 
ENDROOT
BRANCH   9  11
ATOM     11  C   UNL     1      -0.625  11.273  18.977  0.00  0.00    +0.000 A 
ATOM     12  C   UNL     1      -0.881  10.287  18.011  0.00  0.00    +0.000 A 
ATOM     13  C   UNL     1      -2.177  10.061  17.532  0.00  0.00    +0.000 A 
ATOM     14  C   UNL     1      -3.247  10.812  18.010  0.00  0.00    +0.000 A 
ATOM     15  C   UNL     1      -3.007  11.831  18.927  0.00  0.00    +0.000 A 
ATOM     16  C   UNL     1      -1.710  12.062  19.397  0.00  0.00    +0.000 A 
BRANCH  14  17
ATOM     17  O   UNL     1      -4.471  10.494  17.491  0.00  0.00    +0.000 OA
ATOM     18  C   UNL     1      -5.141  11.565  16.836  0.00  0.00    +0.000 C 
ENDBRANCH  14  17
ENDBRANCH   9  11
BRANCH   1  19
ATOM     19  O   UNL     1       2.216   5.462  18.422  0.00  0.00    +0.000 OA
BRANCH  19  20
ATOM     20  C   UNL     1       2.891   4.549  19.286  0.00  0.00    +0.000 C 
BRANCH  20  21
ATOM     21  C   UNL     1       3.738   3.610  18.442  0.00  0.00    +0.000 C 
BRANCH  21  22
ATOM     22  C   UNL     1       3.651   3.993  16.967  0.00  0.00    +0.000 C 
BRANCH  22  23
ATOM     23  C   UNL     1       5.040   4.063  16.346  0.00  0.00    +0.000 C 
BRANCH  23  24
ATOM     24  C   UNL     1       5.585   5.487  16.345  0.00  0.00    +0.000 C 
BRANCH  24  25
ATOM     25  C   UNL     1       7.078   5.482  16.136  0.00  0.00    +0.000 C 
ATOM     26  O   UNL     1       7.750   4.495  15.870  0.00  0.00    +0.000 OA
BRANCH  25  27
ATOM     27  O   UNL     1       7.570   6.729  16.374  0.00  0.00    +0.000 OA
BRANCH  27  29
ATOM     28  C   UNL     1       8.021   8.574  17.819  0.00  0.00    +0.000 C 
ATOM     29  C   UNL     1       7.519   7.142  17.745  0.00  0.00    +0.000 C 
ENDBRANCH  27  29
ENDBRANCH  25  27
ENDBRANCH  24  25
ENDBRANCH  23  24
ENDBRANCH  22  23
ENDBRANCH  21  22
ENDBRANCH  20  21
ENDBRANCH  19  20
ENDBRANCH   1  19
TORSDOF 11
ENDMDL
MODEL 6
REMARK VINA RESULT:      -6.7      1.552      1.726
REMARK  Name = 
REMARK  13 active torsions:
REMARK  status: ('A' for Active; 'I' for Inactive)
REMARK    1  A    between atoms: C_1  and  C_2
REMARK    2  A    between atoms: C_2  and  O_3
REMARK    3  A    between atoms: O_3  and  C_4
REMARK    4  A    between atoms: C_4  and  C_6
REMARK    5  A    between atoms: C_6  and  C_7
REMARK    6  A    between atoms: C_7  and  C_8
REMARK    7  A    between atoms: C_8  and  C_9
REMARK    8  A    between atoms: C_9  and  C_10
REMARK    9  A    between atoms: C_10  and  O_11
REMARK   10  A    between atoms: O_11  and  C_12
REMARK   11  A    between atoms: C_20  and  C_21
REMARK   12  A    between atoms: C_24  and  O_25
REMARK   13  A    between atoms: O_25  and  C_26
REMARK                            x       y       z     vdW  Elec       q    Type
REMARK                         _______ _______ _______ _____ _____    ______ ____
ROOT
ATOM      1  C   UNL     1       7.699   7.117  18.181  0.00  0.00    +0.000 A 
ATOM      2  C   UNL     1       7.094   7.317  16.939  0.00  0.00    +0.000 A 
ATOM      3  C   UNL     1       6.039   6.501  16.528  0.00  0.00    +0.000 A 
ATOM      4  C   UNL     1       5.569   5.484  17.368  0.00  0.00    +0.000 A 
ATOM      5  C   UNL     1       6.221   5.245  18.579  0.00  0.00    +0.000 A 
ATOM      6  C   UNL     1       7.261   6.073  18.994  0.00  0.00    +0.000 A 
ATOM      7  O   UNL     1       5.876   4.252  19.456  0.00  0.00    +0.000 OA
ATOM      8  C   UNL     1       4.834   3.372  19.022  0.00  0.00    +0.000 C 
ATOM      9  C   UNL     1       3.706   4.078  18.255  0.00  0.00    +0.000 C 
ATOM     10  C   UNL     1       4.360   4.676  16.993  0.00  0.00    +0.000 C 
ENDROOT
BRANCH   9  11
ATOM     11  C   UNL     1       2.896   5.105  19.050  0.00  0.00    +0.000 A 
ATOM     12  C   UNL     1       2.200   4.797  20.230  0.00  0.00    +0.000 A 
ATOM     13  C   UNL     1       1.516   5.787  20.946  0.00  0.00    +0.000 A 
ATOM     14  C   UNL     1       1.517   7.107  20.504  0.00  0.00    +0.000 A 
ATOM     15  C   UNL     1       2.156   7.422  19.308  0.00  0.00    +0.000 A 
ATOM     16  C   UNL     1       2.830   6.430  18.588  0.00  0.00    +0.000 A 
BRANCH  14  17
ATOM     17  O   UNL     1       0.838   7.995  21.290  0.00  0.00    +0.000 OA
ATOM     18  C   UNL     1       0.770   9.320  20.776  0.00  0.00    +0.000 C 
ENDBRANCH  14  17
ENDBRANCH   9  11
BRANCH   1  19
ATOM     19  O   UNL     1       8.674   8.018  18.515  0.00  0.00    +0.000 OA
BRANCH  19  20
ATOM     20  C   UNL     1       8.389   9.373  18.170  0.00  0.00    +0.000 C 
BRANCH  20  21
ATOM     21  C   UNL     1       9.316  10.285  18.959  0.00  0.00    +0.000 C 
BRANCH  21  22
ATOM     22  C   UNL     1      10.239  11.052  18.018  0.00  0.00    +0.000 C 
BRANCH  22  23
ATOM     23  C   UNL     1      10.508  12.454  18.549  0.00  0.00    +0.000 C 
BRANCH  23  24
ATOM     24  C   UNL     1       9.372  13.412  18.208  0.00  0.00    +0.000 C 
BRANCH  24  25
ATOM     25  C   UNL     1       8.879  14.110  19.450  0.00  0.00    +0.000 C 
ATOM     26  O   UNL     1       7.704  14.304  19.732  0.00  0.00    +0.000 OA
BRANCH  25  27
ATOM     27  O   UNL     1       9.945  14.565  20.164  0.00  0.00    +0.000 OA
BRANCH  27  29
ATOM     28  C   UNL     1      10.253  15.513  22.332  0.00  0.00    +0.000 C 
ATOM     29  C   UNL     1       9.689  15.742  20.940  0.00  0.00    +0.000 C 
ENDBRANCH  27  29
ENDBRANCH  25  27
ENDBRANCH  24  25
ENDBRANCH  23  24
ENDBRANCH  22  23
ENDBRANCH  21  22
ENDBRANCH  20  21
ENDBRANCH  19  20
ENDBRANCH   1  19
TORSDOF 11
ENDMDL
MODEL 7
REMARK VINA RESULT:      -6.7      3.444      9.813
REMARK  Name = 
REMARK  13 active torsions:
REMARK  status: ('A' for Active; 'I' for Inactive)
REMARK    1  A    between atoms: C_1  and  C_2
REMARK    2  A    between atoms: C_2  and  O_3
REMARK    3  A    between atoms: O_3  and  C_4
REMARK    4  A    between atoms: C_4  and  C_6
REMARK    5  A    between atoms: C_6  and  C_7
REMARK    6  A    between atoms: C_7  and  C_8
REMARK    7  A    between atoms: C_8  and  C_9
REMARK    8  A    between atoms: C_9  and  C_10
REMARK    9  A    between atoms: C_10  and  O_11
REMARK   10  A    between atoms: O_11  and  C_12
REMARK   11  A    between atoms: C_20  and  C_21
REMARK   12  A    between atoms: C_24  and  O_25
REMARK   13  A    between atoms: O_25  and  C_26
REMARK                            x       y       z     vdW  Elec       q    Type
REMARK                         _______ _______ _______ _____ _____    ______ ____
ROOT
ATOM      1  C   UNL     1       9.150  10.093  19.090  0.00  0.00    +0.000 A 
ATOM      2  C   UNL     1       9.357  10.408  20.434  0.00  0.00    +0.000 A 
ATOM      3  C   UNL     1       9.606  11.725  20.821  0.00  0.00    +0.000 A 
ATOM      4  C   UNL     1       9.632  12.745  19.862  0.00  0.00    +0.000 A 
ATOM      5  C   UNL     1       9.493  12.416  18.513  0.00  0.00    +0.000 A 
ATOM      6  C   UNL     1       9.226  11.103  18.133  0.00  0.00    +0.000 A 
ATOM      7  O   UNL     1       9.546  13.324  17.489  0.00  0.00    +0.000 OA
ATOM      8  C   UNL     1       9.857  14.669  17.866  0.00  0.00    +0.000 C 
ATOM      9  C   UNL     1       9.206  15.110  19.185  0.00  0.00    +0.000 C 
ATOM     10  C   UNL     1       9.780  14.182  20.274  0.00  0.00    +0.000 C 
ENDROOT
BRANCH   9  11
ATOM     11  C   UNL     1       7.676  15.161  19.191  0.00  0.00    +0.000 A 
ATOM     12  C   UNL     1       6.912  15.378  20.349  0.00  0.00    +0.000 A 
ATOM     13  C   UNL     1       5.516  15.466  20.289  0.00  0.00    +0.000 A 
ATOM     14  C   UNL     1       4.852  15.343  19.071  0.00  0.00    +0.000 A 
ATOM     15  C   UNL     1       5.586  15.074  17.920  0.00  0.00    +0.000 A 
ATOM     16  C   UNL     1       6.980  14.977  17.983  0.00  0.00    +0.000 A 
BRANCH  14  17
ATOM     17  O   UNL     1       3.491  15.467  19.125  0.00  0.00    +0.000 OA
ATOM     18  C   UNL     1       2.926  16.297  18.117  0.00  0.00    +0.000 C 
ENDBRANCH  14  17
ENDBRANCH   9  11
BRANCH   1  19
ATOM     19  O   UNL     1       8.843   8.785  18.830  0.00  0.00    +0.000 OA
BRANCH  19  20
ATOM     20  C   UNL     1       7.955   8.578  17.732  0.00  0.00    +0.000 C 
BRANCH  20  21
ATOM     21  C   UNL     1       7.564   7.109  17.688  0.00  0.00    +0.000 C 
BRANCH  21  22
ATOM     22  C   UNL     1       6.200   6.940  17.024  0.00  0.00    +0.000 C 
BRANCH  22  23
ATOM     23  C   UNL     1       5.696   5.512  17.184  0.00  0.00    +0.000 C 
BRANCH  23  24
ATOM     24  C   UNL     1       5.405   5.177  18.643  0.00  0.00    +0.000 C 
BRANCH  24  25
ATOM     25  C   UNL     1       4.820   3.793  18.761  0.00  0.00    +0.000 C 
ATOM     26  O   UNL     1       4.968   3.043  19.716  0.00  0.00    +0.000 OA
BRANCH  25  27
ATOM     27  O   UNL     1       4.174   3.478  17.604  0.00  0.00    +0.000 OA
BRANCH  27  29
ATOM     28  C   UNL     1       1.915   4.225  17.780  0.00  0.00    +0.000 C 
ATOM     29  C   UNL     1       2.829   3.012  17.776  0.00  0.00    +0.000 C 
ENDBRANCH  27  29
ENDBRANCH  25  27
ENDBRANCH  24  25
ENDBRANCH  23  24
ENDBRANCH  22  23
ENDBRANCH  21  22
ENDBRANCH  20  21
ENDBRANCH  19  20
ENDBRANCH   1  19
TORSDOF 11
ENDMDL
MODEL 8
REMARK VINA RESULT:      -6.7      1.483      1.871
REMARK  Name = 
REMARK  13 active torsions:
REMARK  status: ('A' for Active; 'I' for Inactive)
REMARK    1  A    between atoms: C_1  and  C_2
REMARK    2  A    between atoms: C_2  and  O_3
REMARK    3  A    between atoms: O_3  and  C_4
REMARK    4  A    between atoms: C_4  and  C_6
REMARK    5  A    between atoms: C_6  and  C_7
REMARK    6  A    between atoms: C_7  and  C_8
REMARK    7  A    between atoms: C_8  and  C_9
REMARK    8  A    between atoms: C_9  and  C_10
REMARK    9  A    between atoms: C_10  and  O_11
REMARK   10  A    between atoms: O_11  and  C_12
REMARK   11  A    between atoms: C_20  and  C_21
REMARK   12  A    between atoms: C_24  and  O_25
REMARK   13  A    between atoms: O_25  and  C_26
REMARK                            x       y       z     vdW  Elec       q    Type
REMARK                         _______ _______ _______ _____ _____    ______ ____
ROOT
ATOM      1  C   UNL     1       7.878   7.247  18.388  0.00  0.00    +0.000 A 
ATOM      2  C   UNL     1       7.312   7.547  17.147  0.00  0.00    +0.000 A 
ATOM      3  C   UNL     1       6.247   6.791  16.656  0.00  0.00    +0.000 A 
ATOM      4  C   UNL     1       5.726   5.735  17.414  0.00  0.00    +0.000 A 
ATOM      5  C   UNL     1       6.340   5.397  18.622  0.00  0.00    +0.000 A 
ATOM      6  C   UNL     1       7.390   6.165  19.117  0.00  0.00    +0.000 A 
ATOM      7  O   UNL     1       5.944   4.359  19.422  0.00  0.00    +0.000 OA
ATOM      8  C   UNL     1       4.890   3.541  18.904  0.00  0.00    +0.000 C 
ATOM      9  C   UNL     1       3.803   4.328  18.157  0.00  0.00    +0.000 C 
ATOM     10  C   UNL     1       4.506   4.989  16.956  0.00  0.00    +0.000 C 
ENDROOT
BRANCH   9  11
ATOM     11  C   UNL     1       3.001   5.323  19.000  0.00  0.00    +0.000 A 
ATOM     12  C   UNL     1       2.783   6.659  18.625  0.00  0.00    +0.000 A 
ATOM     13  C   UNL     1       1.999   7.512  19.409  0.00  0.00    +0.000 A 
ATOM     14  C   UNL     1       1.410   7.051  20.583  0.00  0.00    +0.000 A 
ATOM     15  C   UNL     1       1.657   5.746  21.001  0.00  0.00    +0.000 A 
ATOM     16  C   UNL     1       2.449   4.897  20.221  0.00  0.00    +0.000 A 
BRANCH  14  17
ATOM     17  O   UNL     1       0.646   7.962  21.260  0.00  0.00    +0.000 OA
ATOM     18  C   UNL     1       1.329   9.151  21.639  0.00  0.00    +0.000 C 
ENDBRANCH  14  17
ENDBRANCH   9  11
BRANCH   1  19
ATOM     19  O   UNL     1       8.868   8.095  18.806  0.00  0.00    +0.000 OA
BRANCH  19  20
ATOM     20  C   UNL     1       8.653   9.473  18.504  0.00  0.00    +0.000 C 
BRANCH  20  21
ATOM     21  C   UNL     1       9.430  10.320  19.499  0.00  0.00    +0.000 C 
BRANCH  21  22
ATOM     22  C   UNL     1      10.431  11.213  18.772  0.00  0.00    +0.000 C 
BRANCH  22  23
ATOM     23  C   UNL     1      11.228  12.050  19.765  0.00  0.00    +0.000 C 
BRANCH  23  24
ATOM     24  C   UNL     1      10.331  12.656  20.838  0.00  0.00    +0.000 C 
BRANCH  24  25
ATOM     25  C   UNL     1       9.712  13.940  20.346  0.00  0.00    +0.000 C 
ATOM     26  O   UNL     1       8.540  14.081  20.026  0.00  0.00    +0.000 OA
BRANCH  25  27
ATOM     27  O   UNL     1      10.680  14.892  20.233  0.00  0.00    +0.000 OA
BRANCH  27  29
ATOM     28  C   UNL     1      10.656  16.546  21.952  0.00  0.00    +0.000 C 
ATOM     29  C   UNL     1      10.246  16.226  20.526  0.00  0.00    +0.000 C 
ENDBRANCH  27  29
ENDBRANCH  25  27
ENDBRANCH  24  25
ENDBRANCH  23  24
ENDBRANCH  22  23
ENDBRANCH  21  22
ENDBRANCH  20  21
ENDBRANCH  19  20
ENDBRANCH   1  19
TORSDOF 11
ENDMDL
MODEL 9
REMARK VINA RESULT:      -6.7      2.241     10.640
REMARK  Name = 
REMARK  13 active torsions:
REMARK  status: ('A' for Active; 'I' for Inactive)
REMARK    1  A    between atoms: C_1  and  C_2
REMARK    2  A    between atoms: C_2  and  O_3
REMARK    3  A    between atoms: O_3  and  C_4
REMARK    4  A    between atoms: C_4  and  C_6
REMARK    5  A    between atoms: C_6  and  C_7
REMARK    6  A    between atoms: C_7  and  C_8
REMARK    7  A    between atoms: C_8  and  C_9
REMARK    8  A    between atoms: C_9  and  C_10
REMARK    9  A    between atoms: C_10  and  O_11
REMARK   10  A    between atoms: O_11  and  C_12
REMARK   11  A    between atoms: C_20  and  C_21
REMARK   12  A    between atoms: C_24  and  O_25
REMARK   13  A    between atoms: O_25  and  C_26
REMARK                            x       y       z     vdW  Elec       q    Type
REMARK                         _______ _______ _______ _____ _____    ______ ____
ROOT
ATOM      1  C   UNL     1       9.221  10.385  18.391  0.00  0.00    +0.000 A 
ATOM      2  C   UNL     1       9.291  10.446  19.784  0.00  0.00    +0.000 A 
ATOM      3  C   UNL     1      10.081  11.411  20.409  0.00  0.00    +0.000 A 
ATOM      4  C   UNL     1      10.797  12.338  19.642  0.00  0.00    +0.000 A 
ATOM      5  C   UNL     1      10.778  12.230  18.250  0.00  0.00    +0.000 A 
ATOM      6  C   UNL     1       9.974  11.278  17.629  0.00  0.00    +0.000 A 
ATOM      7  O   UNL     1      11.473  13.052  17.404  0.00  0.00    +0.000 OA
ATOM      8  C   UNL     1      12.332  14.009  18.033  0.00  0.00    +0.000 C 
ATOM      9  C   UNL     1      11.745  14.625  19.311  0.00  0.00    +0.000 C 
ATOM     10  C   UNL     1      11.557  13.456  20.298  0.00  0.00    +0.000 C 
ENDROOT
BRANCH   9  11
ATOM     11  C   UNL     1      10.475  15.460  19.128  0.00  0.00    +0.000 A 
ATOM     12  C   UNL     1      10.172  16.162  17.950  0.00  0.00    +0.000 A 
ATOM     13  C   UNL     1       8.972  16.870  17.818  0.00  0.00    +0.000 A 
ATOM     14  C   UNL     1       8.045  16.890  18.857  0.00  0.00    +0.000 A 
ATOM     15  C   UNL     1       8.350  16.245  20.052  0.00  0.00    +0.000 A 
ATOM     16  C   UNL     1       9.554  15.547  20.187  0.00  0.00    +0.000 A 
BRANCH  14  17
ATOM     17  O   UNL     1       6.898  17.592  18.613  0.00  0.00    +0.000 OA
ATOM     18  C   UNL     1       5.852  17.376  19.554  0.00  0.00    +0.000 C 
ENDBRANCH  14  17
ENDBRANCH   9  11
BRANCH   1  19
ATOM     19  O   UNL     1       8.362   9.449  17.883  0.00  0.00    +0.000 OA
BRANCH  19  20
ATOM     20  C   UNL     1       8.387   8.184  18.541  0.00  0.00    +0.000 C 
BRANCH  20  21
ATOM     21  C   UNL     1       7.569   7.191  17.730  0.00  0.00    +0.000 C 
BRANCH  21  22
ATOM     22  C   UNL     1       7.645   5.801  18.353  0.00  0.00    +0.000 C 
BRANCH  22  23
ATOM     23  C   UNL     1       6.313   5.419  18.984  0.00  0.00    +0.000 C 
BRANCH  23  24
ATOM     24  C   UNL     1       5.205   5.314  17.942  0.00  0.00    +0.000 C 
BRANCH  24  25
ATOM     25  C   UNL     1       4.425   4.037  18.126  0.00  0.00    +0.000 C 
ATOM     26  O   UNL     1       3.958   3.359  17.221  0.00  0.00    +0.000 OA
BRANCH  25  27
ATOM     27  O   UNL     1       4.248   3.806  19.456  0.00  0.00    +0.000 OA
BRANCH  27  29
ATOM     28  C   UNL     1       2.427   4.793  20.639  0.00  0.00    +0.000 C 
ATOM     29  C   UNL     1       2.889   3.581  19.850  0.00  0.00    +0.000 C 
ENDBRANCH  27  29
ENDBRANCH  25  27
ENDBRANCH  24  25
ENDBRANCH  23  24
ENDBRANCH  22  23
ENDBRANCH  21  22
ENDBRANCH  20  21
ENDBRANCH  19  20
ENDBRANCH   1  19
TORSDOF 11
ENDMDL
