MODEL 1
REMARK VINA RESULT:      -6.8      0.000      0.000
REMARK  Name = 
REMARK  9 active torsions:
REMARK  status: ('A' for Active; 'I' for Inactive)
REMARK    1  A    between atoms: C_1  and  C_2
REMARK    2  A    between atoms: C_2  and  C_3
REMARK    3  A    between atoms: C_3  and  N_4
REMARK    4  A    between atoms: N_4  and  C_5
REMARK    5  A    between atoms: N_4  and  C_8
REMARK    6  A    between atoms: C_5  and  C_6
REMARK    7  A    between atoms: C_6  and  C_7
REMARK    8  A    between atoms: C_14  and  O_15
REMARK    9  A    between atoms: O_15  and  C_16
REMARK                            x       y       z     vdW  Elec       q    Type
REMARK                         _______ _______ _______ _____ _____    ______ ____
ROOT
ATOM      1  C   UNL     1       4.332   4.879  17.077  0.00  0.00    +0.000 C 
ATOM      2  C   UNL     1       3.741   3.439  17.169  0.00  0.00    +0.000 C 
ATOM      3  C   UNL     1       2.637   3.578  18.182  0.00  0.00    +0.000 A 
ATOM      4  C   UNL     1       1.646   2.659  18.482  0.00  0.00    +0.000 A 
ATOM      5  C   UNL     1       0.784   2.936  19.542  0.00  0.00    +0.000 A 
ATOM      6  C   UNL     1       0.931   4.116  20.294  0.00  0.00    +0.000 A 
ATOM      7  C   UNL     1       1.930   5.046  20.000  0.00  0.00    +0.000 A 
ATOM      8  C   UNL     1       2.762   4.763  18.925  0.00  0.00    +0.000 A 
ATOM      9  C   UNL     1       3.945   5.506  18.428  0.00  0.00    +0.000 C 
ENDROOT
BRANCH   7  10
ATOM     10  O   UNL     1       1.954   6.110  20.858  0.00  0.00    +0.000 OA
ATOM     11  C   UNL     1       1.702   7.418  20.376  0.00  0.00    +0.000 C 
ENDBRANCH   7  10
BRANCH   1  12
ATOM     12  N   UNL     1       5.794   4.966  16.732  0.00  0.00    +0.000 NA
BRANCH  12  13
ATOM     13  C   UNL     1       6.578   4.770  17.984  0.00  0.00    +0.000 C 
BRANCH  13  15
ATOM     14  C   UNL     1       7.493   7.133  17.583  0.00  0.00    +0.000 C 
ATOM     15  C   UNL     1       7.609   5.843  18.380  0.00  0.00    +0.000 C 
ENDBRANCH  13  15
ENDBRANCH  12  13
BRANCH  12  16
ATOM     16  C   UNL     1       6.222   3.989  15.683  0.00  0.00    +0.000 C 
BRANCH  16  17
ATOM     17  C   UNL     1       6.588   4.551  14.295  0.00  0.00    +0.000 C 
ATOM     18  C   UNL     1       6.132   3.685  13.131  0.00  0.00    +0.000 C 
ENDBRANCH  16  17
ENDBRANCH  12  16
ENDBRANCH   1  12
TORSDOF 6
ENDMDL
MODEL 2
REMARK VINA RESULT:      -6.7      0.547      2.612
REMARK  Name = 
REMARK  9 active torsions:
REMARK  status: ('A' for Active; 'I' for Inactive)
REMARK    1  A    between atoms: C_1  and  C_2
REMARK    2  A    between atoms: C_2  and  C_3
REMARK    3  A    between atoms: C_3  and  N_4
REMARK    4  A    between atoms: N_4  and  C_5
REMARK    5  A    between atoms: N_4  and  C_8
REMARK    6  A    between atoms: C_5  and  C_6
REMARK    7  A    between atoms: C_6  and  C_7
REMARK    8  A    between atoms: C_14  and  O_15
REMARK    9  A    between atoms: O_15  and  C_16
REMARK                            x       y       z     vdW  Elec       q    Type
REMARK                         _______ _______ _______ _____ _____    ______ ____
ROOT
ATOM      1  C   UNL     1       4.360   4.622  17.151  0.00  0.00    +0.000 C 
ATOM      2  C   UNL     1       3.710   3.210  17.269  0.00  0.00    +0.000 C 
ATOM      3  C   UNL     1       2.600   3.417  18.263  0.00  0.00    +0.000 A 
ATOM      4  C   UNL     1       1.569   2.547  18.572  0.00  0.00    +0.000 A 
ATOM      5  C   UNL     1       0.706   2.883  19.614  0.00  0.00    +0.000 A 
ATOM      6  C   UNL     1       0.892   4.074  20.340  0.00  0.00    +0.000 A 
ATOM      7  C   UNL     1       1.931   4.956  20.037  0.00  0.00    +0.000 A 
ATOM      8  C   UNL     1       2.764   4.614  18.981  0.00  0.00    +0.000 A 
ATOM      9  C   UNL     1       3.982   5.297  18.481  0.00  0.00    +0.000 C 
ENDROOT
BRANCH   7  10
ATOM     10  O   UNL     1       1.988   6.038  20.871  0.00  0.00    +0.000 OA
ATOM     11  C   UNL     1       1.753   7.340  20.363  0.00  0.00    +0.000 C 
ENDBRANCH   7  10
BRANCH   1  12
ATOM     12  N   UNL     1       5.828   4.642  16.823  0.00  0.00    +0.000 NA
BRANCH  12  13
ATOM     13  C   UNL     1       6.043   3.808  15.607  0.00  0.00    +0.000 C 
BRANCH  13  15
ATOM     14  C   UNL     1       6.192   3.692  13.048  0.00  0.00    +0.000 C 
ATOM     15  C   UNL     1       6.465   4.508  14.303  0.00  0.00    +0.000 C 
ENDBRANCH  13  15
ENDBRANCH  12  13
BRANCH  12  16
ATOM     16  C   UNL     1       6.379   6.019  16.624  0.00  0.00    +0.000 C 
BRANCH  16  17
ATOM     17  C   UNL     1       7.389   6.540  17.665  0.00  0.00    +0.000 C 
ATOM     18  C   UNL     1       7.703   8.023  17.544  0.00  0.00    +0.000 C 
ENDBRANCH  16  17
ENDBRANCH  12  16
ENDBRANCH   1  12
TORSDOF 6
ENDMDL
MODEL 3
REMARK VINA RESULT:      -6.5      2.250      5.592
REMARK  Name = 
REMARK  9 active torsions:
REMARK  status: ('A' for Active; 'I' for Inactive)
REMARK    1  A    between atoms: C_1  and  C_2
REMARK    2  A    between atoms: C_2  and  C_3
REMARK    3  A    between atoms: C_3  and  N_4
REMARK    4  A    between atoms: N_4  and  C_5
REMARK    5  A    between atoms: N_4  and  C_8
REMARK    6  A    between atoms: C_5  and  C_6
REMARK    7  A    between atoms: C_6  and  C_7
REMARK    8  A    between atoms: C_14  and  O_15
REMARK    9  A    between atoms: O_15  and  C_16
REMARK                            x       y       z     vdW  Elec       q    Type
REMARK                         _______ _______ _______ _____ _____    ______ ____
ROOT
ATOM      1  C   UNL     1       4.197   4.253  19.091  0.00  0.00    +0.000 C 
ATOM      2  C   UNL     1       3.701   3.942  17.646  0.00  0.00    +0.000 C 
ATOM      3  C   UNL     1       4.890   4.278  16.788  0.00  0.00    +0.000 A 
ATOM      4  C   UNL     1       5.074   3.982  15.448  0.00  0.00    +0.000 A 
ATOM      5  C   UNL     1       6.204   4.489  14.806  0.00  0.00    +0.000 A 
ATOM      6  C   UNL     1       7.123   5.293  15.506  0.00  0.00    +0.000 A 
ATOM      7  C   UNL     1       6.943   5.597  16.856  0.00  0.00    +0.000 A 
ATOM      8  C   UNL     1       5.825   5.063  17.482  0.00  0.00    +0.000 A 
ATOM      9  C   UNL     1       5.328   5.271  18.864  0.00  0.00    +0.000 C 
ENDROOT
BRANCH   7  10
ATOM     10  O   UNL     1       7.908   6.423  17.362  0.00  0.00    +0.000 OA
ATOM     11  C   UNL     1       7.633   7.799  17.561  0.00  0.00    +0.000 C 
ENDBRANCH   7  10
BRANCH   1  12
ATOM     12  N   UNL     1       3.138   4.688  20.067  0.00  0.00    +0.000 NA
BRANCH  12  13
ATOM     13  C   UNL     1       2.190   5.588  19.353  0.00  0.00    +0.000 C 
BRANCH  13  15
ATOM     14  C   UNL     1       2.643   7.792  18.120  0.00  0.00    +0.000 C 
ATOM     15  C   UNL     1       2.402   7.109  19.457  0.00  0.00    +0.000 C 
ENDBRANCH  13  15
ENDBRANCH  12  13
BRANCH  12  16
ATOM     16  C   UNL     1       2.407   3.549  20.705  0.00  0.00    +0.000 C 
BRANCH  16  17
ATOM     17  C   UNL     1       0.932   3.339  20.308  0.00  0.00    +0.000 C 
ATOM     18  C   UNL     1       0.730   2.388  19.139  0.00  0.00    +0.000 C 
ENDBRANCH  16  17
ENDBRANCH  12  16
ENDBRANCH   1  12
TORSDOF 6
ENDMDL
MODEL 4
REMARK VINA RESULT:      -6.5      1.147      1.278
REMARK  Name = 
REMARK  9 active torsions:
REMARK  status: ('A' for Active; 'I' for Inactive)
REMARK    1  A    between atoms: C_1  and  C_2
REMARK    2  A    between atoms: C_2  and  C_3
REMARK    3  A    between atoms: C_3  and  N_4
REMARK    4  A    between atoms: N_4  and  C_5
REMARK    5  A    between atoms: N_4  and  C_8
REMARK    6  A    between atoms: C_5  and  C_6
REMARK    7  A    between atoms: C_6  and  C_7
REMARK    8  A    between atoms: C_14  and  O_15
REMARK    9  A    between atoms: O_15  and  C_16
REMARK                            x       y       z     vdW  Elec       q    Type
REMARK                         _______ _______ _______ _____ _____    ______ ____
ROOT
ATOM      1  C   UNL     1       4.598   5.381  16.916  0.00  0.00    +0.000 C 
ATOM      2  C   UNL     1       4.481   4.115  17.819  0.00  0.00    +0.000 C 
ATOM      3  C   UNL     1       3.407   4.487  18.805  0.00  0.00    +0.000 A 
ATOM      4  C   UNL     1       2.752   3.653  19.695  0.00  0.00    +0.000 A 
ATOM      5  C   UNL     1       1.867   4.222  20.609  0.00  0.00    +0.000 A 
ATOM      6  C   UNL     1       1.659   5.613  20.632  0.00  0.00    +0.000 A 
ATOM      7  C   UNL     1       2.317   6.462  19.739  0.00  0.00    +0.000 A 
ATOM      8  C   UNL     1       3.175   5.872  18.822  0.00  0.00    +0.000 A 
ATOM      9  C   UNL     1       4.063   6.508  17.817  0.00  0.00    +0.000 C 
ENDROOT
BRANCH   7  10
ATOM     10  O   UNL     1       2.029   7.784  19.932  0.00  0.00    +0.000 OA
ATOM     11  C   UNL     1       1.303   8.194  21.078  0.00  0.00    +0.000 C 
ENDBRANCH   7  10
BRANCH   1  12
ATOM     12  N   UNL     1       5.955   5.636  16.320  0.00  0.00    +0.000 NA
BRANCH  12  13
ATOM     13  C   UNL     1       6.952   4.821  17.070  0.00  0.00    +0.000 C 
BRANCH  13  15
ATOM     14  C   UNL     1       7.749   7.016  18.134  0.00  0.00    +0.000 C 
ATOM     15  C   UNL     1       7.749   5.496  18.201  0.00  0.00    +0.000 C 
ENDBRANCH  13  15
ENDBRANCH  12  13
BRANCH  12  16
ATOM     16  C   UNL     1       6.031   5.345  14.854  0.00  0.00    +0.000 C 
BRANCH  16  17
ATOM     17  C   UNL     1       6.312   3.890  14.431  0.00  0.00    +0.000 C 
ATOM     18  C   UNL     1       6.019   3.596  12.968  0.00  0.00    +0.000 C 
ENDBRANCH  16  17
ENDBRANCH  12  16
ENDBRANCH   1  12
TORSDOF 6
ENDMDL
MODEL 5
REMARK VINA RESULT:      -6.5      0.982      2.762
REMARK  Name = 
REMARK  9 active torsions:
REMARK  status: ('A' for Active; 'I' for Inactive)
REMARK    1  A    between atoms: C_1  and  C_2
REMARK    2  A    between atoms: C_2  and  C_3
REMARK    3  A    between atoms: C_3  and  N_4
REMARK    4  A    between atoms: N_4  and  C_5
REMARK    5  A    between atoms: N_4  and  C_8
REMARK    6  A    between atoms: C_5  and  C_6
REMARK    7  A    between atoms: C_6  and  C_7
REMARK    8  A    between atoms: C_14  and  O_15
REMARK    9  A    between atoms: O_15  and  C_16
REMARK                            x       y       z     vdW  Elec       q    Type
REMARK                         _______ _______ _______ _____ _____    ______ ____
ROOT
ATOM      1  C   UNL     1       4.575   4.662  17.294  0.00  0.00    +0.000 C 
ATOM      2  C   UNL     1       4.202   3.452  18.204  0.00  0.00    +0.000 C 
ATOM      3  C   UNL     1       3.104   3.996  19.076  0.00  0.00    +0.000 A 
ATOM      4  C   UNL     1       2.262   3.286  19.915  0.00  0.00    +0.000 A 
ATOM      5  C   UNL     1       1.383   3.998  20.731  0.00  0.00    +0.000 A 
ATOM      6  C   UNL     1       1.367   5.405  20.708  0.00  0.00    +0.000 A 
ATOM      7  C   UNL     1       2.215   6.128  19.867  0.00  0.00    +0.000 A 
ATOM      8  C   UNL     1       3.064   5.400  19.046  0.00  0.00    +0.000 A 
ATOM      9  C   UNL     1       4.119   5.878  18.119  0.00  0.00    +0.000 C 
ENDROOT
BRANCH   7  10
ATOM     10  O   UNL     1       2.095   7.483  20.007  0.00  0.00    +0.000 OA
ATOM     11  C   UNL     1       1.304   8.023  21.051  0.00  0.00    +0.000 C 
ENDBRANCH   7  10
BRANCH   1  12
ATOM     12  N   UNL     1       6.003   4.713  16.824  0.00  0.00    +0.000 NA
BRANCH  12  13
ATOM     13  C   UNL     1       6.124   3.850  15.615  0.00  0.00    +0.000 C 
BRANCH  13  15
ATOM     14  C   UNL     1       6.158   3.679  13.055  0.00  0.00    +0.000 C 
ATOM     15  C   UNL     1       6.510   4.511  14.278  0.00  0.00    +0.000 C 
ENDBRANCH  13  15
ENDBRANCH  12  13
BRANCH  12  16
ATOM     16  C   UNL     1       6.491   6.097  16.537  0.00  0.00    +0.000 C 
BRANCH  16  17
ATOM     17  C   UNL     1       7.469   6.732  17.545  0.00  0.00    +0.000 C 
ATOM     18  C   UNL     1       7.754   5.870  18.766  0.00  0.00    +0.000 C 
ENDBRANCH  16  17
ENDBRANCH  12  16
ENDBRANCH   1  12
TORSDOF 6
ENDMDL
MODEL 6
REMARK VINA RESULT:      -6.4      1.218      3.090
REMARK  Name = 
REMARK  9 active torsions:
REMARK  status: ('A' for Active; 'I' for Inactive)
REMARK    1  A    between atoms: C_1  and  C_2
REMARK    2  A    between atoms: C_2  and  C_3
REMARK    3  A    between atoms: C_3  and  N_4
REMARK    4  A    between atoms: N_4  and  C_5
REMARK    5  A    between atoms: N_4  and  C_8
REMARK    6  A    between atoms: C_5  and  C_6
REMARK    7  A    between atoms: C_6  and  C_7
REMARK    8  A    between atoms: C_14  and  O_15
REMARK    9  A    between atoms: O_15  and  C_16
REMARK                            x       y       z     vdW  Elec       q    Type
REMARK                         _______ _______ _______ _____ _____    ______ ____
ROOT
ATOM      1  C   UNL     1       4.394   4.461  16.612  0.00  0.00    +0.000 C 
ATOM      2  C   UNL     1       4.042   3.357  17.654  0.00  0.00    +0.000 C 
ATOM      3  C   UNL     1       3.110   4.058  18.605  0.00  0.00    +0.000 A 
ATOM      4  C   UNL     1       2.325   3.487  19.592  0.00  0.00    +0.000 A 
ATOM      5  C   UNL     1       1.617   4.331  20.447  0.00  0.00    +0.000 A 
ATOM      6  C   UNL     1       1.713   5.729  20.313  0.00  0.00    +0.000 A 
ATOM      7  C   UNL     1       2.504   6.312  19.321  0.00  0.00    +0.000 A 
ATOM      8  C   UNL     1       3.181   5.454  18.466  0.00  0.00    +0.000 A 
ATOM      9  C   UNL     1       4.147   5.768  17.384  0.00  0.00    +0.000 C 
ENDROOT
BRANCH   7  10
ATOM     10  O   UNL     1       2.514   7.678  19.365  0.00  0.00    +0.000 OA
ATOM     11  C   UNL     1       1.921   8.428  18.319  0.00  0.00    +0.000 C 
ENDBRANCH   7  10
BRANCH   1  12
ATOM     12  N   UNL     1       5.752   4.348  15.972  0.00  0.00    +0.000 NA
BRANCH  12  13
ATOM     13  C   UNL     1       5.604   4.635  14.518  0.00  0.00    +0.000 C 
BRANCH  13  15
ATOM     14  C   UNL     1       5.398   3.422  12.266  0.00  0.00    +0.000 C 
ATOM     15  C   UNL     1       6.241   3.662  13.509  0.00  0.00    +0.000 C 
ENDBRANCH  13  15
ENDBRANCH  12  13
BRANCH  12  16
ATOM     16  C   UNL     1       6.780   5.246  16.586  0.00  0.00    +0.000 C 
BRANCH  16  17
ATOM     17  C   UNL     1       7.595   4.690  17.769  0.00  0.00    +0.000 C 
ATOM     18  C   UNL     1       7.688   5.630  18.961  0.00  0.00    +0.000 C 
ENDBRANCH  16  17
ENDBRANCH  12  16
ENDBRANCH   1  12
TORSDOF 6
ENDMDL
MODEL 7
REMARK VINA RESULT:      -6.4      1.716      3.399
REMARK  Name = 
REMARK  9 active torsions:
REMARK  status: ('A' for Active; 'I' for Inactive)
REMARK    1  A    between atoms: C_1  and  C_2
REMARK    2  A    between atoms: C_2  and  C_3
REMARK    3  A    between atoms: C_3  and  N_4
REMARK    4  A    between atoms: N_4  and  C_5
REMARK    5  A    between atoms: N_4  and  C_8
REMARK    6  A    between atoms: C_5  and  C_6
REMARK    7  A    between atoms: C_6  and  C_7
REMARK    8  A    between atoms: C_14  and  O_15
REMARK    9  A    between atoms: O_15  and  C_16
REMARK                            x       y       z     vdW  Elec       q    Type
REMARK                         _______ _______ _______ _____ _____    ______ ____
ROOT
ATOM      1  C   UNL     1       5.434   5.589  18.238  0.00  0.00    +0.000 C 
ATOM      2  C   UNL     1       4.314   5.473  17.160  0.00  0.00    +0.000 C 
ATOM      3  C   UNL     1       3.204   4.760  17.884  0.00  0.00    +0.000 A 
ATOM      4  C   UNL     1       1.895   4.592  17.466  0.00  0.00    +0.000 A 
ATOM      5  C   UNL     1       1.050   3.793  18.236  0.00  0.00    +0.000 A 
ATOM      6  C   UNL     1       1.527   3.164  19.402  0.00  0.00    +0.000 A 
ATOM      7  C   UNL     1       2.847   3.326  19.828  0.00  0.00    +0.000 A 
ATOM      8  C   UNL     1       3.664   4.144  19.060  0.00  0.00    +0.000 A 
ATOM      9  C   UNL     1       5.110   4.441  19.210  0.00  0.00    +0.000 C 
ENDROOT
BRANCH   7  10
ATOM     10  O   UNL     1       3.148   2.609  20.952  0.00  0.00    +0.000 OA
ATOM     11  C   UNL     1       2.177   2.442  21.971  0.00  0.00    +0.000 C 
ENDBRANCH   7  10
BRANCH   1  12
ATOM     12  N   UNL     1       6.845   5.600  17.717  0.00  0.00    +0.000 NA
BRANCH  12  13
ATOM     13  C   UNL     1       6.790   5.661  16.229  0.00  0.00    +0.000 C 
BRANCH  13  15
ATOM     14  C   UNL     1       6.172   4.125  14.269  0.00  0.00    +0.000 C 
ATOM     15  C   UNL     1       7.120   4.387  15.430  0.00  0.00    +0.000 C 
ENDBRANCH  13  15
ENDBRANCH  12  13
BRANCH  12  16
ATOM     16  C   UNL     1       7.677   6.719  18.261  0.00  0.00    +0.000 C 
BRANCH  16  17
ATOM     17  C   UNL     1       7.688   8.044  17.474  0.00  0.00    +0.000 C 
ATOM     18  C   UNL     1       8.404   9.184  18.182  0.00  0.00    +0.000 C 
ENDBRANCH  16  17
ENDBRANCH  12  16
ENDBRANCH   1  12
TORSDOF 6
ENDMDL
MODEL 8
REMARK VINA RESULT:      -6.3      1.069      1.359
REMARK  Name = 
REMARK  9 active torsions:
REMARK  status: ('A' for Active; 'I' for Inactive)
REMARK    1  A    between atoms: C_1  and  C_2
REMARK    2  A    between atoms: C_2  and  C_3
REMARK    3  A    between atoms: C_3  and  N_4
REMARK    4  A    between atoms: N_4  and  C_5
REMARK    5  A    between atoms: N_4  and  C_8
REMARK    6  A    between atoms: C_5  and  C_6
REMARK    7  A    between atoms: C_6  and  C_7
REMARK    8  A    between atoms: C_14  and  O_15
REMARK    9  A    between atoms: O_15  and  C_16
REMARK                            x       y       z     vdW  Elec       q    Type
REMARK                         _______ _______ _______ _____ _____    ______ ____
ROOT
ATOM      1  C   UNL     1       4.897   5.476  16.050  0.00  0.00    +0.000 C 
ATOM      2  C   UNL     1       4.646   3.953  16.268  0.00  0.00    +0.000 C 
ATOM      3  C   UNL     1       3.467   3.923  17.202  0.00  0.00    +0.000 A 
ATOM      4  C   UNL     1       2.693   2.829  17.549  0.00  0.00    +0.000 A 
ATOM      5  C   UNL     1       1.714   2.993  18.529  0.00  0.00    +0.000 A 
ATOM      6  C   UNL     1       1.531   4.240  19.156  0.00  0.00    +0.000 A 
ATOM      7  C   UNL     1       2.310   5.347  18.813  0.00  0.00    +0.000 A 
ATOM      8  C   UNL     1       3.262   5.168  17.819  0.00  0.00    +0.000 A 
ATOM      9  C   UNL     1       4.277   6.119  17.304  0.00  0.00    +0.000 C 
ENDROOT
BRANCH   7  10
ATOM     10  O   UNL     1       2.026   6.462  19.551  0.00  0.00    +0.000 OA
ATOM     11  C   UNL     1       1.616   6.335  20.902  0.00  0.00    +0.000 C 
ENDBRANCH   7  10
BRANCH   1  12
ATOM     12  N   UNL     1       6.321   5.872  15.772  0.00  0.00    +0.000 NA
BRANCH  12  13
ATOM     13  C   UNL     1       6.941   6.303  17.057  0.00  0.00    +0.000 C 
BRANCH  13  15
ATOM     14  C   UNL     1       7.813   5.688  19.390  0.00  0.00    +0.000 C 
ATOM     15  C   UNL     1       7.583   5.232  17.958  0.00  0.00    +0.000 C 
ENDBRANCH  13  15
ENDBRANCH  12  13
BRANCH  12  16
ATOM     16  C   UNL     1       7.131   4.789  15.132  0.00  0.00    +0.000 C 
BRANCH  16  17
ATOM     17  C   UNL     1       7.136   4.719  13.592  0.00  0.00    +0.000 C 
ATOM     18  C   UNL     1       6.156   3.712  13.010  0.00  0.00    +0.000 C 
ENDBRANCH  16  17
ENDBRANCH  12  16
ENDBRANCH   1  12
TORSDOF 6
ENDMDL
MODEL 9
REMARK VINA RESULT:      -6.3      2.163      5.729
REMARK  Name = 
REMARK  9 active torsions:
REMARK  status: ('A' for Active; 'I' for Inactive)
REMARK    1  A    between atoms: C_1  and  C_2
REMARK    2  A    between atoms: C_2  and  C_3
REMARK    3  A    between atoms: C_3  and  N_4
REMARK    4  A    between atoms: N_4  and  C_5
REMARK    5  A    between atoms: N_4  and  C_8
REMARK    6  A    between atoms: C_5  and  C_6
REMARK    7  A    between atoms: C_6  and  C_7
REMARK    8  A    between atoms: C_14  and  O_15
REMARK    9  A    between atoms: O_15  and  C_16
REMARK                            x       y       z     vdW  Elec       q    Type
REMARK                         _______ _______ _______ _____ _____    ______ ____
ROOT
ATOM      1  C   UNL     1       3.144   4.165  18.426  0.00  0.00    +0.000 C 
ATOM      2  C   UNL     1       3.232   4.336  16.880  0.00  0.00    +0.000 C 
ATOM      3  C   UNL     1       4.712   4.295  16.606  0.00  0.00    +0.000 A 
ATOM      4  C   UNL     1       5.340   4.183  15.378  0.00  0.00    +0.000 A 
ATOM      5  C   UNL     1       6.731   4.282  15.333  0.00  0.00    +0.000 A 
ATOM      6  C   UNL     1       7.470   4.505  16.510  0.00  0.00    +0.000 A 
ATOM      7  C   UNL     1       6.843   4.621  17.752  0.00  0.00    +0.000 A 
ATOM      8  C   UNL     1       5.461   4.495  17.778  0.00  0.00    +0.000 A 
ATOM      9  C   UNL     1       4.521   4.650  18.915  0.00  0.00    +0.000 C 
ENDROOT
BRANCH   7  10
ATOM     10  O   UNL     1       7.709   4.878  18.778  0.00  0.00    +0.000 OA
ATOM     11  C   UNL     1       8.051   6.215  19.102  0.00  0.00    +0.000 C 
ENDBRANCH   7  10
BRANCH   1  12
ATOM     12  N   UNL     1       1.967   4.823  19.092  0.00  0.00    +0.000 NA
BRANCH  12  13
ATOM     13  C   UNL     1       1.136   3.758  19.721  0.00  0.00    +0.000 C 
BRANCH  13  15
ATOM     14  C   UNL     1       2.501   2.536  21.517  0.00  0.00    +0.000 C 
ATOM     15  C   UNL     1       1.332   3.462  21.219  0.00  0.00    +0.000 C 
ENDBRANCH  13  15
ENDBRANCH  12  13
BRANCH  12  16
ATOM     16  C   UNL     1       2.350   5.858  20.102  0.00  0.00    +0.000 C 
BRANCH  16  17
ATOM     17  C   UNL     1       2.189   7.338  19.701  0.00  0.00    +0.000 C 
ATOM     18  C   UNL     1       2.211   7.584  18.200  0.00  0.00    +0.000 C 
ENDBRANCH  16  17
ENDBRANCH  12  16
ENDBRANCH   1  12
TORSDOF 6
ENDMDL
