MODEL 1
REMARK VINA RESULT:      -6.3      0.000      0.000
REMARK  Name = 
REMARK  17 active torsions:
REMARK  status: ('A' for Active; 'I' for Inactive)
REMARK    1  A    between atoms: C_1  and  C_2
REMARK    2  A    between atoms: C_2  and  C_3
REMARK    3  A    between atoms: C_3  and  C_4
REMARK    4  A    between atoms: C_4  and  C_5
REMARK    5  A    between atoms: C_5  and  C_6
REMARK    6  A    between atoms: C_6  and  C_7
REMARK    7  A    between atoms: C_7  and  C_8
REMARK    8  A    between atoms: C_8  and  C_9
REMARK    9  A    between atoms: C_9  and  C_10
REMARK   10  A    between atoms: C_10  and  C_11
REMARK   11  A    between atoms: C_11  and  C_12
REMARK   12  A    between atoms: C_15  and  C_16
REMARK   13  A    between atoms: C_16  and  N_17
REMARK   14  A    between atoms: C_21  and  C_22
REMARK   15  A    between atoms: C_22  and  O_23
REMARK   16  A    between atoms: O_23  and  C_24
REMARK   17  A    between atoms: C_24  and  C_25
REMARK                            x       y       z     vdW  Elec       q    Type
REMARK                         _______ _______ _______ _____ _____    ______ ____
ROOT
ATOM      1  C   UNL     1       3.306   7.380  17.872  0.00  0.00    +0.000 A 
ATOM      2  C   UNL     1       2.919   8.632  17.379  0.00  0.00    +0.000 A 
ATOM      3  C   UNL     1       2.012   9.420  18.093  0.00  0.00    +0.000 A 
ATOM      4  C   UNL     1       1.442   8.951  19.285  0.00  0.00    +0.000 A 
ATOM      5  C   UNL     1       1.767   7.655  19.720  0.00  0.00    +0.000 A 
ATOM      6  C   UNL     1       2.708   6.892  19.037  0.00  0.00    +0.000 A 
ENDROOT
BRANCH   1   7
ATOM      7  C   UNL     1       4.359   6.558  17.179  0.00  0.00    +0.000 C 
BRANCH   7   8
ATOM      8  C   UNL     1       5.228   5.779  18.166  0.00  0.00    +0.000 C 
BRANCH   8   9
ATOM      9  C   UNL     1       5.717   4.485  17.527  0.00  0.00    +0.000 C 
BRANCH   9  10
ATOM     10  C   UNL     1       4.553   3.673  16.983  0.00  0.00    +0.000 C 
BRANCH  10  11
ATOM     11  C   UNL     1       3.870   2.905  18.100  0.00  0.00    +0.000 C 
BRANCH  11  12
ATOM     12  C   UNL     1       2.499   2.423  17.667  0.00  0.00    +0.000 C 
BRANCH  12  13
ATOM     13  C   UNL     1       1.424   3.400  18.117  0.00  0.00    +0.000 C 
BRANCH  13  14
ATOM     14  C   UNL     1       0.863   2.992  19.474  0.00  0.00    +0.000 C 
BRANCH  14  15
ATOM     15  C   UNL     1       0.987   4.135  20.472  0.00  0.00    +0.000 C 
BRANCH  15  17
ATOM     16  C   UNL     1       2.540   2.550  21.641  0.00  0.00    +0.000 C 
ATOM     17  C   UNL     1       2.262   4.003  21.297  0.00  0.00    +0.000 C 
ENDBRANCH  15  17
ENDBRANCH  14  15
ENDBRANCH  13  14
ENDBRANCH  12  13
ENDBRANCH  11  12
ENDBRANCH  10  11
ENDBRANCH   9  10
ENDBRANCH   8   9
ENDBRANCH   7   8
ENDBRANCH   1   7
BRANCH   4  18
ATOM     18  C   UNL     1       0.516   9.822  20.131  0.00  0.00    +0.000 C 
BRANCH  18  19
ATOM     19  N   UNL     1       0.490  11.218  19.720  0.00  0.00    +0.000 NA
ATOM     20  C   UNL     1       0.940  12.182  20.721  0.00  0.00    +0.000 C 
ATOM     21  C   UNL     1      -0.278  12.986  21.113  0.00  0.00    +0.000 C 
ATOM     22  C   UNL     1      -1.113  13.019  19.852  0.00  0.00    +0.000 C 
ATOM     23  C   UNL     1      -0.701  11.774  19.046  0.00  0.00    +0.000 C 
BRANCH  23  24
ATOM     24  C   UNL     1      -1.959  10.928  18.695  0.00  0.00    +0.000 C 
BRANCH  24  25
ATOM     25  O   UNL     1      -1.926  10.353  17.377  0.00  0.00    +0.000 OA
BRANCH  25  26
ATOM     26  C   UNL     1      -3.067  10.467  16.646  0.00  0.00    +0.000 C 
ATOM     27  C   UNL     1      -2.781  10.409  15.171  0.00  0.00    +0.000 C 
ATOM     28  O   UNL     1      -4.194  10.578  17.108  0.00  0.00    +0.000 OA
ENDBRANCH  25  26
ENDBRANCH  24  25
ENDBRANCH  23  24
ENDBRANCH  18  19
ENDBRANCH   4  18
TORSDOF 15
ENDMDL
MODEL 2
REMARK VINA RESULT:      -6.2      2.379      4.584
REMARK  Name = 
REMARK  17 active torsions:
REMARK  status: ('A' for Active; 'I' for Inactive)
REMARK    1  A    between atoms: C_1  and  C_2
REMARK    2  A    between atoms: C_2  and  C_3
REMARK    3  A    between atoms: C_3  and  C_4
REMARK    4  A    between atoms: C_4  and  C_5
REMARK    5  A    between atoms: C_5  and  C_6
REMARK    6  A    between atoms: C_6  and  C_7
REMARK    7  A    between atoms: C_7  and  C_8
REMARK    8  A    between atoms: C_8  and  C_9
REMARK    9  A    between atoms: C_9  and  C_10
REMARK   10  A    between atoms: C_10  and  C_11
REMARK   11  A    between atoms: C_11  and  C_12
REMARK   12  A    between atoms: C_15  and  C_16
REMARK   13  A    between atoms: C_16  and  N_17
REMARK   14  A    between atoms: C_21  and  C_22
REMARK   15  A    between atoms: C_22  and  O_23
REMARK   16  A    between atoms: O_23  and  C_24
REMARK   17  A    between atoms: C_24  and  C_25
REMARK                            x       y       z     vdW  Elec       q    Type
REMARK                         _______ _______ _______ _____ _____    ______ ____
ROOT
ATOM      1  C   UNL     1       2.176   6.264  20.065  0.00  0.00    +0.000 A 
ATOM      2  C   UNL     1       1.654   7.338  20.795  0.00  0.00    +0.000 A 
ATOM      3  C   UNL     1       1.407   8.562  20.165  0.00  0.00    +0.000 A 
ATOM      4  C   UNL     1       1.720   8.746  18.811  0.00  0.00    +0.000 A 
ATOM      5  C   UNL     1       2.330   7.690  18.114  0.00  0.00    +0.000 A 
ATOM      6  C   UNL     1       2.530   6.456  18.726  0.00  0.00    +0.000 A 
ENDROOT
BRANCH   1   7
ATOM      7  C   UNL     1       2.353   4.906  20.689  0.00  0.00    +0.000 C 
BRANCH   7   8
ATOM      8  C   UNL     1       1.110   4.032  20.537  0.00  0.00    +0.000 C 
BRANCH   8   9
ATOM      9  C   UNL     1       1.506   2.626  20.101  0.00  0.00    +0.000 C 
BRANCH   9  10
ATOM     10  C   UNL     1       1.051   2.350  18.677  0.00  0.00    +0.000 C 
BRANCH  10  11
ATOM     11  C   UNL     1       2.059   2.893  17.680  0.00  0.00    +0.000 C 
BRANCH  11  12
ATOM     12  C   UNL     1       3.444   2.338  17.953  0.00  0.00    +0.000 C 
BRANCH  12  13
ATOM     13  C   UNL     1       4.477   3.453  17.940  0.00  0.00    +0.000 C 
BRANCH  13  14
ATOM     14  C   UNL     1       4.455   4.189  16.606  0.00  0.00    +0.000 C 
BRANCH  14  15
ATOM     15  C   UNL     1       5.656   5.118  16.485  0.00  0.00    +0.000 C 
BRANCH  15  17
ATOM     16  C   UNL     1       7.205   6.564  17.827  0.00  0.00    +0.000 C 
ATOM     17  C   UNL     1       6.319   5.331  17.841  0.00  0.00    +0.000 C 
ENDBRANCH  15  17
ENDBRANCH  14  15
ENDBRANCH  13  14
ENDBRANCH  12  13
ENDBRANCH  11  12
ENDBRANCH  10  11
ENDBRANCH   9  10
ENDBRANCH   8   9
ENDBRANCH   7   8
ENDBRANCH   1   7
BRANCH   4  18
ATOM     18  C   UNL     1       1.383  10.041  18.076  0.00  0.00    +0.000 C 
BRANCH  18  19
ATOM     19  N   UNL     1       0.485  10.916  18.816  0.00  0.00    +0.000 NA
ATOM     20  C   UNL     1      -0.938  10.749  18.534  0.00  0.00    +0.000 C 
ATOM     21  C   UNL     1      -1.384  12.014  17.838  0.00  0.00    +0.000 C 
ATOM     22  C   UNL     1      -0.500  13.087  18.435  0.00  0.00    +0.000 C 
ATOM     23  C   UNL     1       0.769  12.363  18.917  0.00  0.00    +0.000 C 
BRANCH  23  24
ATOM     24  C   UNL     1       2.030  13.031  18.298  0.00  0.00    +0.000 C 
BRANCH  24  25
ATOM     25  O   UNL     1       2.946  13.564  19.273  0.00  0.00    +0.000 OA
BRANCH  25  26
ATOM     26  C   UNL     1       2.554  14.702  19.903  0.00  0.00    +0.000 C 
ATOM     27  C   UNL     1       2.618  14.551  21.398  0.00  0.00    +0.000 C 
ATOM     28  O   UNL     1       2.214  15.737  19.346  0.00  0.00    +0.000 OA
ENDBRANCH  25  26
ENDBRANCH  24  25
ENDBRANCH  23  24
ENDBRANCH  18  19
ENDBRANCH   4  18
TORSDOF 15
ENDMDL
MODEL 3
REMARK VINA RESULT:      -6.1      3.666      9.108
REMARK  Name = 
REMARK  17 active torsions:
REMARK  status: ('A' for Active; 'I' for Inactive)
REMARK    1  A    between atoms: C_1  and  C_2
REMARK    2  A    between atoms: C_2  and  C_3
REMARK    3  A    between atoms: C_3  and  C_4
REMARK    4  A    between atoms: C_4  and  C_5
REMARK    5  A    between atoms: C_5  and  C_6
REMARK    6  A    between atoms: C_6  and  C_7
REMARK    7  A    between atoms: C_7  and  C_8
REMARK    8  A    between atoms: C_8  and  C_9
REMARK    9  A    between atoms: C_9  and  C_10
REMARK   10  A    between atoms: C_10  and  C_11
REMARK   11  A    between atoms: C_11  and  C_12
REMARK   12  A    between atoms: C_15  and  C_16
REMARK   13  A    between atoms: C_16  and  N_17
REMARK   14  A    between atoms: C_21  and  C_22
REMARK   15  A    between atoms: C_22  and  O_23
REMARK   16  A    between atoms: O_23  and  C_24
REMARK   17  A    between atoms: C_24  and  C_25
REMARK                            x       y       z     vdW  Elec       q    Type
REMARK                         _______ _______ _______ _____ _____    ______ ____
ROOT
ATOM      1  C   UNL     1       0.808   9.884  19.146  0.00  0.00    +0.000 A 
ATOM      2  C   UNL     1       1.006   9.087  20.279  0.00  0.00    +0.000 A 
ATOM      3  C   UNL     1       1.799   7.937  20.202  0.00  0.00    +0.000 A 
ATOM      4  C   UNL     1       2.368   7.542  18.982  0.00  0.00    +0.000 A 
ATOM      5  C   UNL     1       2.085   8.299  17.833  0.00  0.00    +0.000 A 
ATOM      6  C   UNL     1       1.338   9.470  17.920  0.00  0.00    +0.000 A 
ENDROOT
BRANCH   1   7
ATOM      7  C   UNL     1       0.048  11.180  19.224  0.00  0.00    +0.000 C 
BRANCH   7   8
ATOM      8  C   UNL     1      -0.975  11.185  20.359  0.00  0.00    +0.000 C 
BRANCH   8   9
ATOM      9  C   UNL     1      -1.737  12.504  20.373  0.00  0.00    +0.000 C 
BRANCH   9  10
ATOM     10  C   UNL     1      -2.892  12.454  21.360  0.00  0.00    +0.000 C 
BRANCH  10  11
ATOM     11  C   UNL     1      -4.179  12.914  20.699  0.00  0.00    +0.000 C 
BRANCH  11  12
ATOM     12  C   UNL     1      -4.157  12.624  19.210  0.00  0.00    +0.000 C 
BRANCH  12  13
ATOM     13  C   UNL     1      -5.142  11.518  18.867  0.00  0.00    +0.000 C 
BRANCH  13  14
ATOM     14  C   UNL     1      -4.798  10.893  17.521  0.00  0.00    +0.000 C 
BRANCH  14  15
ATOM     15  C   UNL     1      -3.544  10.035  17.633  0.00  0.00    +0.000 C 
BRANCH  15  17
ATOM     16  C   UNL     1      -2.804  10.125  15.238  0.00  0.00    +0.000 C 
ATOM     17  C   UNL     1      -2.467  10.515  16.667  0.00  0.00    +0.000 C 
ENDBRANCH  15  17
ENDBRANCH  14  15
ENDBRANCH  13  14
ENDBRANCH  12  13
ENDBRANCH  11  12
ENDBRANCH  10  11
ENDBRANCH   9  10
ENDBRANCH   8   9
ENDBRANCH   7   8
ENDBRANCH   1   7
BRANCH   4  18
ATOM     18  C   UNL     1       3.307   6.343  18.885  0.00  0.00    +0.000 C 
BRANCH  18  19
ATOM     19  N   UNL     1       3.013   5.458  17.768  0.00  0.00    +0.000 NA
ATOM     20  C   UNL     1       1.835   4.609  17.925  0.00  0.00    +0.000 C 
ATOM     21  C   UNL     1       2.346   3.190  18.025  0.00  0.00    +0.000 C 
ATOM     22  C   UNL     1       3.593   3.193  17.169  0.00  0.00    +0.000 C 
ATOM     23  C   UNL     1       4.086   4.650  17.152  0.00  0.00    +0.000 C 
BRANCH  23  24
ATOM     24  C   UNL     1       5.572   4.714  17.608  0.00  0.00    +0.000 C 
BRANCH  24  25
ATOM     25  O   UNL     1       6.486   4.054  16.714  0.00  0.00    +0.000 OA
BRANCH  25  26
ATOM     26  C   UNL     1       6.816   4.736  15.586  0.00  0.00    +0.000 C 
ATOM     27  C   UNL     1       6.341   4.018  14.352  0.00  0.00    +0.000 C 
ATOM     28  O   UNL     1       7.402   5.810  15.554  0.00  0.00    +0.000 OA
ENDBRANCH  25  26
ENDBRANCH  24  25
ENDBRANCH  23  24
ENDBRANCH  18  19
ENDBRANCH   4  18
TORSDOF 15
ENDMDL
MODEL 4
REMARK VINA RESULT:      -6.1      2.529      4.825
REMARK  Name = 
REMARK  17 active torsions:
REMARK  status: ('A' for Active; 'I' for Inactive)
REMARK    1  A    between atoms: C_1  and  C_2
REMARK    2  A    between atoms: C_2  and  C_3
REMARK    3  A    between atoms: C_3  and  C_4
REMARK    4  A    between atoms: C_4  and  C_5
REMARK    5  A    between atoms: C_5  and  C_6
REMARK    6  A    between atoms: C_6  and  C_7
REMARK    7  A    between atoms: C_7  and  C_8
REMARK    8  A    between atoms: C_8  and  C_9
REMARK    9  A    between atoms: C_9  and  C_10
REMARK   10  A    between atoms: C_10  and  C_11
REMARK   11  A    between atoms: C_11  and  C_12
REMARK   12  A    between atoms: C_15  and  C_16
REMARK   13  A    between atoms: C_16  and  N_17
REMARK   14  A    between atoms: C_21  and  C_22
REMARK   15  A    between atoms: C_22  and  O_23
REMARK   16  A    between atoms: O_23  and  C_24
REMARK   17  A    between atoms: C_24  and  C_25
REMARK                            x       y       z     vdW  Elec       q    Type
REMARK                         _______ _______ _______ _____ _____    ______ ____
ROOT
ATOM      1  C   UNL     1       1.617   3.850  19.074  0.00  0.00    +0.000 A 
ATOM      2  C   UNL     1       1.826   4.680  17.966  0.00  0.00    +0.000 A 
ATOM      3  C   UNL     1       2.010   6.055  18.143  0.00  0.00    +0.000 A 
ATOM      4  C   UNL     1       1.941   6.627  19.421  0.00  0.00    +0.000 A 
ATOM      5  C   UNL     1       1.638   5.797  20.513  0.00  0.00    +0.000 A 
ATOM      6  C   UNL     1       1.506   4.422  20.345  0.00  0.00    +0.000 A 
ENDROOT
BRANCH   1   7
ATOM      7  C   UNL     1       1.523   2.356  18.924  0.00  0.00    +0.000 C 
BRANCH   7   8
ATOM      8  C   UNL     1       2.849   1.730  18.496  0.00  0.00    +0.000 C 
BRANCH   8   9
ATOM      9  C   UNL     1       3.969   2.187  19.422  0.00  0.00    +0.000 C 
BRANCH   9  10
ATOM     10  C   UNL     1       4.936   3.106  18.694  0.00  0.00    +0.000 C 
BRANCH  10  11
ATOM     11  C   UNL     1       5.091   4.419  19.442  0.00  0.00    +0.000 C 
BRANCH  11  12
ATOM     12  C   UNL     1       6.241   5.231  18.878  0.00  0.00    +0.000 C 
BRANCH  12  13
ATOM     13  C   UNL     1       5.728   6.271  17.895  0.00  0.00    +0.000 C 
BRANCH  13  14
ATOM     14  C   UNL     1       6.348   6.057  16.519  0.00  0.00    +0.000 C 
BRANCH  14  15
ATOM     15  C   UNL     1       5.368   5.346  15.594  0.00  0.00    +0.000 C 
BRANCH  15  17
ATOM     16  C   UNL     1       6.100   3.875  13.699  0.00  0.00    +0.000 C 
ATOM     17  C   UNL     1       5.892   3.969  15.200  0.00  0.00    +0.000 C 
ENDBRANCH  15  17
ENDBRANCH  14  15
ENDBRANCH  13  14
ENDBRANCH  12  13
ENDBRANCH  11  12
ENDBRANCH  10  11
ENDBRANCH   9  10
ENDBRANCH   8   9
ENDBRANCH   7   8
ENDBRANCH   1   7
BRANCH   4  18
ATOM     18  C   UNL     1       2.223   8.110  19.654  0.00  0.00    +0.000 C 
BRANCH  18  19
ATOM     19  N   UNL     1       1.276   8.996  18.994  0.00  0.00    +0.000 NA
ATOM     20  C   UNL     1       1.837   9.871  17.967  0.00  0.00    +0.000 C 
ATOM     21  C   UNL     1       1.730  11.279  18.506  0.00  0.00    +0.000 C 
ATOM     22  C   UNL     1       0.482  11.246  19.361  0.00  0.00    +0.000 C 
ATOM     23  C   UNL     1       0.307   9.778  19.788  0.00  0.00    +0.000 C 
BRANCH  23  24
ATOM     24  C   UNL     1       0.198   9.684  21.337  0.00  0.00    +0.000 C 
BRANCH  24  25
ATOM     25  O   UNL     1       0.328  10.950  22.009  0.00  0.00    +0.000 OA
BRANCH  25  26
ATOM     26  C   UNL     1      -0.757  11.367  22.715  0.00  0.00    +0.000 C 
ATOM     27  C   UNL     1      -0.909  12.862  22.655  0.00  0.00    +0.000 C 
ATOM     28  O   UNL     1      -1.537  10.635  23.309  0.00  0.00    +0.000 OA
ENDBRANCH  25  26
ENDBRANCH  24  25
ENDBRANCH  23  24
ENDBRANCH  18  19
ENDBRANCH   4  18
TORSDOF 15
ENDMDL
MODEL 5
REMARK VINA RESULT:      -6.1      2.490      3.504
REMARK  Name = 
REMARK  17 active torsions:
REMARK  status: ('A' for Active; 'I' for Inactive)
REMARK    1  A    between atoms: C_1  and  C_2
REMARK    2  A    between atoms: C_2  and  C_3
REMARK    3  A    between atoms: C_3  and  C_4
REMARK    4  A    between atoms: C_4  and  C_5
REMARK    5  A    between atoms: C_5  and  C_6
REMARK    6  A    between atoms: C_6  and  C_7
REMARK    7  A    between atoms: C_7  and  C_8
REMARK    8  A    between atoms: C_8  and  C_9
REMARK    9  A    between atoms: C_9  and  C_10
REMARK   10  A    between atoms: C_10  and  C_11
REMARK   11  A    between atoms: C_11  and  C_12
REMARK   12  A    between atoms: C_15  and  C_16
REMARK   13  A    between atoms: C_16  and  N_17
REMARK   14  A    between atoms: C_21  and  C_22
REMARK   15  A    between atoms: C_22  and  O_23
REMARK   16  A    between atoms: O_23  and  C_24
REMARK   17  A    between atoms: C_24  and  C_25
REMARK                            x       y       z     vdW  Elec       q    Type
REMARK                         _______ _______ _______ _____ _____    ______ ____
ROOT
ATOM      1  C   UNL     1       2.377   7.605  18.844  0.00  0.00    +0.000 A 
ATOM      2  C   UNL     1       2.103   8.511  17.813  0.00  0.00    +0.000 A 
ATOM      3  C   UNL     1       1.318   9.642  18.059  0.00  0.00    +0.000 A 
ATOM      4  C   UNL     1       0.758   9.861  19.325  0.00  0.00    +0.000 A 
ATOM      5  C   UNL     1       0.963   8.896  20.326  0.00  0.00    +0.000 A 
ATOM      6  C   UNL     1       1.785   7.798  20.096  0.00  0.00    +0.000 A 
ENDROOT
BRANCH   1   7
ATOM      7  C   UNL     1       3.303   6.438  18.635  0.00  0.00    +0.000 C 
BRANCH   7   8
ATOM      8  C   UNL     1       4.210   6.628  17.420  0.00  0.00    +0.000 C 
BRANCH   8   9
ATOM      9  C   UNL     1       4.657   5.274  16.882  0.00  0.00    +0.000 C 
BRANCH   9  10
ATOM     10  C   UNL     1       3.592   4.216  17.117  0.00  0.00    +0.000 C 
BRANCH  10  11
ATOM     11  C   UNL     1       4.223   2.919  17.590  0.00  0.00    +0.000 C 
BRANCH  11  12
ATOM     12  C   UNL     1       3.187   2.012  18.226  0.00  0.00    +0.000 C 
BRANCH  12  13
ATOM     13  C   UNL     1       1.787   2.559  17.996  0.00  0.00    +0.000 C 
BRANCH  13  14
ATOM     14  C   UNL     1       0.981   2.528  19.289  0.00  0.00    +0.000 C 
BRANCH  14  15
ATOM     15  C   UNL     1       0.870   3.926  19.885  0.00  0.00    +0.000 C 
BRANCH  15  17
ATOM     16  C   UNL     1       2.087   2.760  21.743  0.00  0.00    +0.000 C 
ATOM     17  C   UNL     1       1.822   4.093  21.064  0.00  0.00    +0.000 C 
ENDBRANCH  15  17
ENDBRANCH  14  15
ENDBRANCH  13  14
ENDBRANCH  12  13
ENDBRANCH  11  12
ENDBRANCH  10  11
ENDBRANCH   9  10
ENDBRANCH   8   9
ENDBRANCH   7   8
ENDBRANCH   1   7
BRANCH   4  18
ATOM     18  C   UNL     1      -0.030  11.128  19.648  0.00  0.00    +0.000 C 
BRANCH  18  19
ATOM     19  N   UNL     1       0.607  11.975  20.645  0.00  0.00    +0.000 NA
ATOM     20  C   UNL     1      -0.246  12.406  21.749  0.00  0.00    +0.000 C 
ATOM     21  C   UNL     1      -0.423  13.898  21.591  0.00  0.00    +0.000 C 
ATOM     22  C   UNL     1       0.876  14.353  20.963  0.00  0.00    +0.000 C 
ATOM     23  C   UNL     1       1.438  13.124  20.227  0.00  0.00    +0.000 C 
BRANCH  23  24
ATOM     24  C   UNL     1       1.721  13.478  18.739  0.00  0.00    +0.000 C 
BRANCH  24  25
ATOM     25  O   UNL     1       3.120  13.583  18.420  0.00  0.00    +0.000 OA
BRANCH  25  26
ATOM     26  C   UNL     1       3.606  14.842  18.268  0.00  0.00    +0.000 C 
ATOM     27  C   UNL     1       4.665  15.148  19.291  0.00  0.00    +0.000 C 
ATOM     28  O   UNL     1       3.261  15.634  17.401  0.00  0.00    +0.000 OA
ENDBRANCH  25  26
ENDBRANCH  24  25
ENDBRANCH  23  24
ENDBRANCH  18  19
ENDBRANCH   4  18
TORSDOF 15
ENDMDL
MODEL 6
REMARK VINA RESULT:      -6.0      2.462      4.889
REMARK  Name = 
REMARK  17 active torsions:
REMARK  status: ('A' for Active; 'I' for Inactive)
REMARK    1  A    between atoms: C_1  and  C_2
REMARK    2  A    between atoms: C_2  and  C_3
REMARK    3  A    between atoms: C_3  and  C_4
REMARK    4  A    between atoms: C_4  and  C_5
REMARK    5  A    between atoms: C_5  and  C_6
REMARK    6  A    between atoms: C_6  and  C_7
REMARK    7  A    between atoms: C_7  and  C_8
REMARK    8  A    between atoms: C_8  and  C_9
REMARK    9  A    between atoms: C_9  and  C_10
REMARK   10  A    between atoms: C_10  and  C_11
REMARK   11  A    between atoms: C_11  and  C_12
REMARK   12  A    between atoms: C_15  and  C_16
REMARK   13  A    between atoms: C_16  and  N_17
REMARK   14  A    between atoms: C_21  and  C_22
REMARK   15  A    between atoms: C_22  and  O_23
REMARK   16  A    between atoms: O_23  and  C_24
REMARK   17  A    between atoms: C_24  and  C_25
REMARK                            x       y       z     vdW  Elec       q    Type
REMARK                         _______ _______ _______ _____ _____    ______ ____
ROOT
ATOM      1  C   UNL     1       2.339   6.126  19.327  0.00  0.00    +0.000 A 
ATOM      2  C   UNL     1       1.891   6.818  20.458  0.00  0.00    +0.000 A 
ATOM      3  C   UNL     1       1.483   8.151  20.352  0.00  0.00    +0.000 A 
ATOM      4  C   UNL     1       1.560   8.826  19.125  0.00  0.00    +0.000 A 
ATOM      5  C   UNL     1       2.099   8.149  18.019  0.00  0.00    +0.000 A 
ATOM      6  C   UNL     1       2.457   6.808  18.112  0.00  0.00    +0.000 A 
ENDROOT
BRANCH   1   7
ATOM      7  C   UNL     1       2.683   4.663  19.390  0.00  0.00    +0.000 C 
BRANCH   7   8
ATOM      8  C   UNL     1       2.863   4.048  18.003  0.00  0.00    +0.000 C 
BRANCH   8   9
ATOM      9  C   UNL     1       4.257   3.448  17.870  0.00  0.00    +0.000 C 
BRANCH   9  10
ATOM     10  C   UNL     1       5.205   4.042  18.899  0.00  0.00    +0.000 C 
BRANCH  10  11
ATOM     11  C   UNL     1       5.963   5.217  18.308  0.00  0.00    +0.000 C 
BRANCH  11  12
ATOM     12  C   UNL     1       7.404   4.843  18.021  0.00  0.00    +0.000 C 
BRANCH  12  13
ATOM     13  C   UNL     1       7.592   4.537  16.543  0.00  0.00    +0.000 C 
BRANCH  13  14
ATOM     14  C   UNL     1       6.682   5.418  15.695  0.00  0.00    +0.000 C 
BRANCH  14  15
ATOM     15  C   UNL     1       6.736   4.994  14.233  0.00  0.00    +0.000 C 
BRANCH  15  17
ATOM     16  C   UNL     1       5.852   3.383  12.526  0.00  0.00    +0.000 C 
ATOM     17  C   UNL     1       5.929   3.721  14.004  0.00  0.00    +0.000 C 
ENDBRANCH  15  17
ENDBRANCH  14  15
ENDBRANCH  13  14
ENDBRANCH  12  13
ENDBRANCH  11  12
ENDBRANCH  10  11
ENDBRANCH   9  10
ENDBRANCH   8   9
ENDBRANCH   7   8
ENDBRANCH   1   7
BRANCH   4  18
ATOM     18  C   UNL     1       1.042  10.253  18.959  0.00  0.00    +0.000 C 
BRANCH  18  19
ATOM     19  N   UNL     1      -0.400  10.373  19.116  0.00  0.00    +0.000 NA
ATOM     20  C   UNL     1      -1.164  10.502  17.877  0.00  0.00    +0.000 C 
ATOM     21  C   UNL     1      -1.736  11.901  17.875  0.00  0.00    +0.000 C 
ATOM     22  C   UNL     1      -1.959  12.204  19.341  0.00  0.00    +0.000 C 
ATOM     23  C   UNL     1      -0.967  11.310  20.108  0.00  0.00    +0.000 C 
BRANCH  23  24
ATOM     24  C   UNL     1      -0.095  12.178  21.059  0.00  0.00    +0.000 C 
BRANCH  24  25
ATOM     25  O   UNL     1      -0.810  12.696  22.196  0.00  0.00    +0.000 OA
BRANCH  25  26
ATOM     26  C   UNL     1      -1.381  11.773  23.015  0.00  0.00    +0.000 C 
ATOM     27  C   UNL     1      -2.809  12.125  23.325  0.00  0.00    +0.000 C 
ATOM     28  O   UNL     1      -0.831  10.765  23.436  0.00  0.00    +0.000 OA
ENDBRANCH  25  26
ENDBRANCH  24  25
ENDBRANCH  23  24
ENDBRANCH  18  19
ENDBRANCH   4  18
TORSDOF 15
ENDMDL
MODEL 7
REMARK VINA RESULT:      -6.0      2.761      4.762
REMARK  Name = 
REMARK  17 active torsions:
REMARK  status: ('A' for Active; 'I' for Inactive)
REMARK    1  A    between atoms: C_1  and  C_2
REMARK    2  A    between atoms: C_2  and  C_3
REMARK    3  A    between atoms: C_3  and  C_4
REMARK    4  A    between atoms: C_4  and  C_5
REMARK    5  A    between atoms: C_5  and  C_6
REMARK    6  A    between atoms: C_6  and  C_7
REMARK    7  A    between atoms: C_7  and  C_8
REMARK    8  A    between atoms: C_8  and  C_9
REMARK    9  A    between atoms: C_9  and  C_10
REMARK   10  A    between atoms: C_10  and  C_11
REMARK   11  A    between atoms: C_11  and  C_12
REMARK   12  A    between atoms: C_15  and  C_16
REMARK   13  A    between atoms: C_16  and  N_17
REMARK   14  A    between atoms: C_21  and  C_22
REMARK   15  A    between atoms: C_22  and  O_23
REMARK   16  A    between atoms: O_23  and  C_24
REMARK   17  A    between atoms: C_24  and  C_25
REMARK                            x       y       z     vdW  Elec       q    Type
REMARK                         _______ _______ _______ _____ _____    ______ ____
ROOT
ATOM      1  C   UNL     1       2.075   6.520  20.038  0.00  0.00    +0.000 A 
ATOM      2  C   UNL     1       1.466   7.528  20.794  0.00  0.00    +0.000 A 
ATOM      3  C   UNL     1       1.240   8.789  20.232  0.00  0.00    +0.000 A 
ATOM      4  C   UNL     1       1.660   9.075  18.926  0.00  0.00    +0.000 A 
ATOM      5  C   UNL     1       2.354   8.084  18.211  0.00  0.00    +0.000 A 
ATOM      6  C   UNL     1       2.534   6.814  18.750  0.00  0.00    +0.000 A 
ENDROOT
BRANCH   1   7
ATOM      7  C   UNL     1       2.235   5.125  20.579  0.00  0.00    +0.000 C 
BRANCH   7   8
ATOM      8  C   UNL     1       0.955   4.301  20.448  0.00  0.00    +0.000 C 
BRANCH   8   9
ATOM      9  C   UNL     1       1.215   2.857  20.859  0.00  0.00    +0.000 C 
BRANCH   9  10
ATOM     10  C   UNL     1       2.301   2.233  19.999  0.00  0.00    +0.000 C 
BRANCH  10  11
ATOM     11  C   UNL     1       1.847   2.136  18.553  0.00  0.00    +0.000 C 
BRANCH  11  12
ATOM     12  C   UNL     1       3.034   2.152  17.610  0.00  0.00    +0.000 C 
BRANCH  12  13
ATOM     13  C   UNL     1       3.410   3.580  17.247  0.00  0.00    +0.000 C 
BRANCH  13  14
ATOM     14  C   UNL     1       4.723   3.973  17.912  0.00  0.00    +0.000 C 
BRANCH  14  15
ATOM     15  C   UNL     1       5.662   4.623  16.903  0.00  0.00    +0.000 C 
BRANCH  15  17
ATOM     16  C   UNL     1       6.327   4.099  14.543  0.00  0.00    +0.000 C 
ATOM     17  C   UNL     1       5.169   4.399  15.478  0.00  0.00    +0.000 C 
ENDBRANCH  15  17
ENDBRANCH  14  15
ENDBRANCH  13  14
ENDBRANCH  12  13
ENDBRANCH  11  12
ENDBRANCH  10  11
ENDBRANCH   9  10
ENDBRANCH   8   9
ENDBRANCH   7   8
ENDBRANCH   1   7
BRANCH   4  18
ATOM     18  C   UNL     1       1.351  10.412  18.256  0.00  0.00    +0.000 C 
BRANCH  18  19
ATOM     19  N   UNL     1       0.898  11.439  19.183  0.00  0.00    +0.000 NA
ATOM     20  C   UNL     1      -0.548  11.535  19.366  0.00  0.00    +0.000 C 
ATOM     21  C   UNL     1      -0.964  12.858  18.767  0.00  0.00    +0.000 C 
ATOM     22  C   UNL     1       0.235  13.753  18.995  0.00  0.00    +0.000 C 
ATOM     23  C   UNL     1       1.445  12.809  19.103  0.00  0.00    +0.000 C 
BRANCH  23  24
ATOM     24  C   UNL     1       2.543  13.233  18.085  0.00  0.00    +0.000 C 
BRANCH  24  25
ATOM     25  O   UNL     1       3.669  13.898  18.685  0.00  0.00    +0.000 OA
BRANCH  25  26
ATOM     26  C   UNL     1       3.596  15.254  18.755  0.00  0.00    +0.000 C 
ATOM     27  C   UNL     1       3.395  15.863  17.395  0.00  0.00    +0.000 C 
ATOM     28  O   UNL     1       3.657  15.913  19.784  0.00  0.00    +0.000 OA
ENDBRANCH  25  26
ENDBRANCH  24  25
ENDBRANCH  23  24
ENDBRANCH  18  19
ENDBRANCH   4  18
TORSDOF 15
ENDMDL
MODEL 8
REMARK VINA RESULT:      -6.0      2.488      4.431
REMARK  Name = 
REMARK  17 active torsions:
REMARK  status: ('A' for Active; 'I' for Inactive)
REMARK    1  A    between atoms: C_1  and  C_2
REMARK    2  A    between atoms: C_2  and  C_3
REMARK    3  A    between atoms: C_3  and  C_4
REMARK    4  A    between atoms: C_4  and  C_5
REMARK    5  A    between atoms: C_5  and  C_6
REMARK    6  A    between atoms: C_6  and  C_7
REMARK    7  A    between atoms: C_7  and  C_8
REMARK    8  A    between atoms: C_8  and  C_9
REMARK    9  A    between atoms: C_9  and  C_10
REMARK   10  A    between atoms: C_10  and  C_11
REMARK   11  A    between atoms: C_11  and  C_12
REMARK   12  A    between atoms: C_15  and  C_16
REMARK   13  A    between atoms: C_16  and  N_17
REMARK   14  A    between atoms: C_21  and  C_22
REMARK   15  A    between atoms: C_22  and  O_23
REMARK   16  A    between atoms: O_23  and  C_24
REMARK   17  A    between atoms: C_24  and  C_25
REMARK                            x       y       z     vdW  Elec       q    Type
REMARK                         _______ _______ _______ _____ _____    ______ ____
ROOT
ATOM      1  C   UNL     1       2.227   7.286  19.490  0.00  0.00    +0.000 A 
ATOM      2  C   UNL     1       1.643   7.975  20.559  0.00  0.00    +0.000 A 
ATOM      3  C   UNL     1       0.971   9.181  20.336  0.00  0.00    +0.000 A 
ATOM      4  C   UNL     1       0.911   9.738  19.051  0.00  0.00    +0.000 A 
ATOM      5  C   UNL     1       1.580   9.084  18.003  0.00  0.00    +0.000 A 
ATOM      6  C   UNL     1       2.205   7.859  18.215  0.00  0.00    +0.000 A 
ENDROOT
BRANCH   1   7
ATOM      7  C   UNL     1       2.864   5.936  19.684  0.00  0.00    +0.000 C 
BRANCH   7   8
ATOM      8  C   UNL     1       2.316   5.207  20.909  0.00  0.00    +0.000 C 
BRANCH   8   9
ATOM      9  C   UNL     1       1.084   4.395  20.531  0.00  0.00    +0.000 C 
BRANCH   9  10
ATOM     10  C   UNL     1       1.296   2.918  20.820  0.00  0.00    +0.000 C 
BRANCH  10  11
ATOM     11  C   UNL     1       1.730   2.185  19.563  0.00  0.00    +0.000 C 
BRANCH  11  12
ATOM     12  C   UNL     1       1.221   2.891  18.321  0.00  0.00    +0.000 C 
BRANCH  12  13
ATOM     13  C   UNL     1       2.361   3.151  17.349  0.00  0.00    +0.000 C 
BRANCH  13  14
ATOM     14  C   UNL     1       3.667   2.584  17.892  0.00  0.00    +0.000 C 
BRANCH  14  15
ATOM     15  C   UNL     1       4.779   3.622  17.810  0.00  0.00    +0.000 C 
BRANCH  15  17
ATOM     16  C   UNL     1       5.526   4.292  15.511  0.00  0.00    +0.000 C 
ATOM     17  C   UNL     1       4.551   4.573  16.640  0.00  0.00    +0.000 C 
ENDBRANCH  15  17
ENDBRANCH  14  15
ENDBRANCH  13  14
ENDBRANCH  12  13
ENDBRANCH  11  12
ENDBRANCH  10  11
ENDBRANCH   9  10
ENDBRANCH   8   9
ENDBRANCH   7   8
ENDBRANCH   1   7
BRANCH   4  18
ATOM     18  C   UNL     1       0.111  11.006  18.761  0.00  0.00    +0.000 C 
BRANCH  18  19
ATOM     19  N   UNL     1       0.061  11.935  19.881  0.00  0.00    +0.000 NA
ATOM     20  C   UNL     1      -1.250  12.112  20.500  0.00  0.00    +0.000 C 
ATOM     21  C   UNL     1      -1.676  13.529  20.193  0.00  0.00    +0.000 C 
ATOM     22  C   UNL     1      -0.372  14.296  20.139  0.00  0.00    +0.000 C 
ATOM     23  C   UNL     1       0.707  13.260  19.781  0.00  0.00    +0.000 C 
BRANCH  23  24
ATOM     24  C   UNL     1       1.501  13.731  18.528  0.00  0.00    +0.000 C 
BRANCH  24  25
ATOM     25  O   UNL     1       2.927  13.578  18.650  0.00  0.00    +0.000 OA
BRANCH  25  26
ATOM     26  C   UNL     1       3.595  14.620  19.210  0.00  0.00    +0.000 C 
ATOM     27  C   UNL     1       3.625  15.810  18.291  0.00  0.00    +0.000 C 
ATOM     28  O   UNL     1       4.095  14.621  20.327  0.00  0.00    +0.000 OA
ENDBRANCH  25  26
ENDBRANCH  24  25
ENDBRANCH  23  24
ENDBRANCH  18  19
ENDBRANCH   4  18
TORSDOF 15
ENDMDL
MODEL 9
REMARK VINA RESULT:      -5.9      2.815      5.227
REMARK  Name = 
REMARK  17 active torsions:
REMARK  status: ('A' for Active; 'I' for Inactive)
REMARK    1  A    between atoms: C_1  and  C_2
REMARK    2  A    between atoms: C_2  and  C_3
REMARK    3  A    between atoms: C_3  and  C_4
REMARK    4  A    between atoms: C_4  and  C_5
REMARK    5  A    between atoms: C_5  and  C_6
REMARK    6  A    between atoms: C_6  and  C_7
REMARK    7  A    between atoms: C_7  and  C_8
REMARK    8  A    between atoms: C_8  and  C_9
REMARK    9  A    between atoms: C_9  and  C_10
REMARK   10  A    between atoms: C_10  and  C_11
REMARK   11  A    between atoms: C_11  and  C_12
REMARK   12  A    between atoms: C_15  and  C_16
REMARK   13  A    between atoms: C_16  and  N_17
REMARK   14  A    between atoms: C_21  and  C_22
REMARK   15  A    between atoms: C_22  and  O_23
REMARK   16  A    between atoms: O_23  and  C_24
REMARK   17  A    between atoms: C_24  and  C_25
REMARK                            x       y       z     vdW  Elec       q    Type
REMARK                         _______ _______ _______ _____ _____    ______ ____
ROOT
ATOM      1  C   UNL     1       2.325   7.226  19.578  0.00  0.00    +0.000 A 
ATOM      2  C   UNL     1       1.640   7.869  20.615  0.00  0.00    +0.000 A 
ATOM      3  C   UNL     1       0.919   9.040  20.363  0.00  0.00    +0.000 A 
ATOM      4  C   UNL     1       0.909   9.612  19.083  0.00  0.00    +0.000 A 
ATOM      5  C   UNL     1       1.676   9.008  18.073  0.00  0.00    +0.000 A 
ATOM      6  C   UNL     1       2.352   7.816  18.310  0.00  0.00    +0.000 A 
ENDROOT
BRANCH   1   7
ATOM      7  C   UNL     1       3.020   5.910  19.797  0.00  0.00    +0.000 C 
BRANCH   7   8
ATOM      8  C   UNL     1       3.151   5.101  18.507  0.00  0.00    +0.000 C 
BRANCH   8   9
ATOM      9  C   UNL     1       4.220   4.027  18.666  0.00  0.00    +0.000 C 
BRANCH   9  10
ATOM     10  C   UNL     1       5.084   3.931  17.419  0.00  0.00    +0.000 C 
BRANCH  10  11
ATOM     11  C   UNL     1       4.754   5.056  16.454  0.00  0.00    +0.000 C 
BRANCH  11  12
ATOM     12  C   UNL     1       5.887   5.275  15.470  0.00  0.00    +0.000 C 
BRANCH  12  13
ATOM     13  C   UNL     1       6.160   4.006  14.679  0.00  0.00    +0.000 C 
BRANCH  13  14
ATOM     14  C   UNL     1       5.555   4.104  13.284  0.00  0.00    +0.000 C 
BRANCH  14  15
ATOM     15  C   UNL     1       6.455   3.427  12.259  0.00  0.00    +0.000 C 
BRANCH  15  17
ATOM     16  C   UNL     1       6.758   1.413  10.795  0.00  0.00    +0.000 C 
ATOM     17  C   UNL     1       5.820   2.141  11.741  0.00  0.00    +0.000 C 
ENDBRANCH  15  17
ENDBRANCH  14  15
ENDBRANCH  13  14
ENDBRANCH  12  13
ENDBRANCH  11  12
ENDBRANCH  10  11
ENDBRANCH   9  10
ENDBRANCH   8   9
ENDBRANCH   7   8
ENDBRANCH   1   7
BRANCH   4  18
ATOM     18  C   UNL     1       0.062  10.840  18.757  0.00  0.00    +0.000 C 
BRANCH  18  19
ATOM     19  N   UNL     1      -1.371  10.593  18.809  0.00  0.00    +0.000 NA
ATOM     20  C   UNL     1      -1.965  10.046  17.592  0.00  0.00    +0.000 C 
ATOM     21  C   UNL     1      -2.864  11.126  17.037  0.00  0.00    +0.000 C 
ATOM     22  C   UNL     1      -3.355  11.857  18.268  0.00  0.00    +0.000 C 
ATOM     23  C   UNL     1      -2.286  11.620  19.348  0.00  0.00    +0.000 C 
BRANCH  23  24
ATOM     24  C   UNL     1      -1.799  12.981  19.923  0.00  0.00    +0.000 C 
BRANCH  24  25
ATOM     25  O   UNL     1      -1.712  13.011  21.359  0.00  0.00    +0.000 OA
BRANCH  25  26
ATOM     26  C   UNL     1      -0.602  12.447  21.903  0.00  0.00    +0.000 C 
ATOM     27  C   UNL     1      -0.958  11.300  22.808  0.00  0.00    +0.000 C 
ATOM     28  O   UNL     1       0.550  12.794  21.679  0.00  0.00    +0.000 OA
ENDBRANCH  25  26
ENDBRANCH  24  25
ENDBRANCH  23  24
ENDBRANCH  18  19
ENDBRANCH   4  18
TORSDOF 15
ENDMDL
