MODEL 1
REMARK VINA RESULT:      -7.2      0.000      0.000
REMARK  Name = 
REMARK  18 active torsions:
REMARK  status: ('A' for Active; 'I' for Inactive)
REMARK    1  A    between atoms: C_1  and  C_2
REMARK    2  A    between atoms: C_2  and  C_3
REMARK    3  A    between atoms: C_3  and  C_4
REMARK    4  A    between atoms: C_4  and  C_5
REMARK    5  A    between atoms: C_5  and  C_6
REMARK    6  A    between atoms: C_6  and  N_7
REMARK    7  A    between atoms: N_7  and  C_8
REMARK    8  A    between atoms: C_8  and  C_9
REMARK    9  A    between atoms: C_9  and  C_10
REMARK   10  A    between atoms: C_10  and  C_11
REMARK   11  A    between atoms: C_11  and  C_12
REMARK   12  A    between atoms: C_12  and  S_13
REMARK   13  A    between atoms: S_13  and  C_14
REMARK   14  A    between atoms: N_19  and  C_20
REMARK   15  A    between atoms: N_23  and  C_24
REMARK   16  A    between atoms: N_29  and  C_30
REMARK   17  A    between atoms: C_30  and  C_31
REMARK   18  A    between atoms: C_30  and  C_32
REMARK                            x       y       z     vdW  Elec       q    Type
REMARK                         _______ _______ _______ _____ _____    ______ ____
ROOT
ATOM      1  C   UNL     1       3.143   7.032  17.837  0.00  0.00    +0.000 C 
ENDROOT
BRANCH   1   2
ATOM      2  C   UNL     1       4.335   6.621  16.941  0.00  0.00    +0.000 C 
BRANCH   2   3
ATOM      3  C   UNL     1       4.608   5.105  16.899  0.00  0.00    +0.000 C 
BRANCH   3   4
ATOM      4  N   UNL     1       5.063   4.505  18.170  0.00  0.00    +0.000 N 
ATOM      5  C   UNL     1       4.255   3.739  19.016  0.00  0.00    +0.000 C 
ATOM      6  O   UNL     1       4.681   3.199  20.036  0.00  0.00    +0.000 OA
ATOM      7  N   UNL     1       2.928   3.664  18.681  0.00  0.00    +0.000 N 
ATOM      8  H   UNL     1       2.680   3.783  17.714  0.00  0.00    +0.000 HD
BRANCH   7   9
ATOM      9  C   UNL     1       1.977   2.941  19.519  0.00  0.00    +0.000 C 
ATOM     10  C   UNL     1       1.438   3.863  20.607  0.00  0.00    +0.000 C 
ATOM     11  C   UNL     1       0.829   2.363  18.694  0.00  0.00    +0.000 C 
ENDBRANCH   7   9
BRANCH   4  12
ATOM     12  C   UNL     1       6.485   4.552  18.565  0.00  0.00    +0.000 C 
BRANCH  12  13
ATOM     13  C   UNL     1       7.479   5.397  17.754  0.00  0.00    +0.000 C 
BRANCH  13  14
ATOM     14  C   UNL     1       7.828   6.784  18.310  0.00  0.00    +0.000 C 
BRANCH  14  15
ATOM     15  C   UNL     1       7.732   7.885  17.255  0.00  0.00    +0.000 C 
BRANCH  15  17
ATOM     16  C   UNL     1       9.005   9.293  18.893  0.00  0.00    +0.000 C 
ATOM     17  C   UNL     1       7.891   9.279  17.857  0.00  0.00    +0.000 C 
ENDBRANCH  15  17
ENDBRANCH  14  15
ENDBRANCH  13  14
ENDBRANCH  12  13
ENDBRANCH   4  12
ENDBRANCH   3   4
ENDBRANCH   2   3
ENDBRANCH   1   2
BRANCH   1  18
ATOM     18  C   UNL     1       2.832   8.531  17.758  0.00  0.00    +0.000 C 
BRANCH  18  19
ATOM     19  C   UNL     1       1.524   8.896  18.459  0.00  0.00    +0.000 C 
BRANCH  19  20
ATOM     20  S   UNL     1       1.545  10.674  18.877  0.00  0.00    +0.000 S 
BRANCH  20  21
ATOM     21  C   UNL     1      -0.133  11.037  18.767  0.00  0.00    +0.000 A 
ATOM     22  N   UNL     1      -0.893  11.566  19.693  0.00  0.00    +0.000 NA
ATOM     23  C   UNL     1      -2.132  11.668  19.110  0.00  0.00    +0.000 A 
ATOM     24  C   UNL     1      -3.347  12.197  19.694  0.00  0.00    +0.000 A 
ATOM     25  O   UNL     1      -3.382  12.627  20.843  0.00  0.00    +0.000 OA
ATOM     26  N   UNL     1      -4.446  12.182  18.839  0.00  0.00    +0.000 N 
ATOM     27  C   UNL     1      -5.703  12.708  19.333  0.00  0.00    +0.000 C 
ATOM     28  C   UNL     1      -4.458  11.692  17.538  0.00  0.00    +0.000 A 
ATOM     29  O   UNL     1      -5.444  11.677  16.804  0.00  0.00    +0.000 OA
ATOM     30  N   UNL     1      -3.216  11.171  17.020  0.00  0.00    +0.000 N 
ATOM     31  C   UNL     1      -3.179  10.634  15.652  0.00  0.00    +0.000 C 
ATOM     32  C   UNL     1      -2.105  11.187  17.830  0.00  0.00    +0.000 A 
ATOM     33  N   UNL     1      -0.818  10.783  17.611  0.00  0.00    +0.000 N 
ATOM     34  H   UNL     1      -0.415  10.382  16.777  0.00  0.00    +0.000 HD
ENDBRANCH  20  21
ENDBRANCH  19  20
ENDBRANCH  18  19
ENDBRANCH   1  18
TORSDOF 13
ENDMDL
MODEL 2
REMARK VINA RESULT:      -7.1      1.679      4.818
REMARK  Name = 
REMARK  18 active torsions:
REMARK  status: ('A' for Active; 'I' for Inactive)
REMARK    1  A    between atoms: C_1  and  C_2
REMARK    2  A    between atoms: C_2  and  C_3
REMARK    3  A    between atoms: C_3  and  C_4
REMARK    4  A    between atoms: C_4  and  C_5
REMARK    5  A    between atoms: C_5  and  C_6
REMARK    6  A    between atoms: C_6  and  N_7
REMARK    7  A    between atoms: N_7  and  C_8
REMARK    8  A    between atoms: C_8  and  C_9
REMARK    9  A    between atoms: C_9  and  C_10
REMARK   10  A    between atoms: C_10  and  C_11
REMARK   11  A    between atoms: C_11  and  C_12
REMARK   12  A    between atoms: C_12  and  S_13
REMARK   13  A    between atoms: S_13  and  C_14
REMARK   14  A    between atoms: N_19  and  C_20
REMARK   15  A    between atoms: N_23  and  C_24
REMARK   16  A    between atoms: N_29  and  C_30
REMARK   17  A    between atoms: C_30  and  C_31
REMARK   18  A    between atoms: C_30  and  C_32
REMARK                            x       y       z     vdW  Elec       q    Type
REMARK                         _______ _______ _______ _____ _____    ______ ____
ROOT
ATOM      1  C   UNL     1       1.949   8.244  18.830  0.00  0.00    +0.000 C 
ENDROOT
BRANCH   1   2
ATOM      2  C   UNL     1       2.536   7.153  17.905  0.00  0.00    +0.000 C 
BRANCH   2   3
ATOM      3  C   UNL     1       2.851   5.820  18.611  0.00  0.00    +0.000 C 
BRANCH   3   4
ATOM      4  N   UNL     1       3.583   4.826  17.799  0.00  0.00    +0.000 N 
ATOM      5  C   UNL     1       4.970   4.812  17.628  0.00  0.00    +0.000 C 
ATOM      6  O   UNL     1       5.556   3.932  16.997  0.00  0.00    +0.000 OA
ATOM      7  N   UNL     1       5.656   5.875  18.158  0.00  0.00    +0.000 N 
ATOM      8  H   UNL     1       5.246   6.356  18.939  0.00  0.00    +0.000 HD
BRANCH   7   9
ATOM      9  C   UNL     1       7.101   5.998  17.994  0.00  0.00    +0.000 C 
ATOM     10  C   UNL     1       7.451   7.405  17.521  0.00  0.00    +0.000 C 
ATOM     11  C   UNL     1       7.841   5.672  19.289  0.00  0.00    +0.000 C 
ENDBRANCH   7   9
BRANCH   4  12
ATOM     12  C   UNL     1       2.887   3.659  17.219  0.00  0.00    +0.000 C 
BRANCH  12  13
ATOM     13  C   UNL     1       2.489   2.479  18.118  0.00  0.00    +0.000 C 
BRANCH  13  14
ATOM     14  C   UNL     1       1.024   2.408  18.566  0.00  0.00    +0.000 C 
BRANCH  14  15
ATOM     15  C   UNL     1       0.767   3.161  19.870  0.00  0.00    +0.000 C 
BRANCH  15  17
ATOM     16  C   UNL     1       2.299   3.752  21.765  0.00  0.00    +0.000 C 
ATOM     17  C   UNL     1       1.602   2.618  21.027  0.00  0.00    +0.000 C 
ENDBRANCH  15  17
ENDBRANCH  14  15
ENDBRANCH  13  14
ENDBRANCH  12  13
ENDBRANCH   4  12
ENDBRANCH   3   4
ENDBRANCH   2   3
ENDBRANCH   1   2
BRANCH   1  18
ATOM     18  C   UNL     1       1.693   9.567  18.098  0.00  0.00    +0.000 C 
BRANCH  18  19
ATOM     19  C   UNL     1       0.240  10.028  18.209  0.00  0.00    +0.000 C 
BRANCH  19  20
ATOM     20  S   UNL     1       0.187  11.629  19.085  0.00  0.00    +0.000 S 
BRANCH  20  21
ATOM     21  C   UNL     1      -1.514  11.866  19.193  0.00  0.00    +0.000 A 
ATOM     22  N   UNL     1      -2.410  11.612  18.272  0.00  0.00    +0.000 NA
ATOM     23  C   UNL     1      -3.608  11.953  18.851  0.00  0.00    +0.000 A 
ATOM     24  C   UNL     1      -4.932  11.862  18.270  0.00  0.00    +0.000 A 
ATOM     25  O   UNL     1      -5.114  11.448  17.129  0.00  0.00    +0.000 OA
ATOM     26  N   UNL     1      -5.957  12.270  19.119  0.00  0.00    +0.000 N 
ATOM     27  C   UNL     1      -7.320  12.198  18.628  0.00  0.00    +0.000 C 
ATOM     28  C   UNL     1      -5.799  12.759  20.410  0.00  0.00    +0.000 A 
ATOM     29  O   UNL     1      -6.719  13.126  21.138  0.00  0.00    +0.000 OA
ATOM     30  N   UNL     1      -4.453  12.833  20.925  0.00  0.00    +0.000 N 
ATOM     31  C   UNL     1      -4.232  13.351  22.283  0.00  0.00    +0.000 C 
ATOM     32  C   UNL     1      -3.416  12.421  20.122  0.00  0.00    +0.000 A 
ATOM     33  N   UNL     1      -2.069  12.363  20.340  0.00  0.00    +0.000 N 
ATOM     34  H   UNL     1      -1.551  12.617  21.168  0.00  0.00    +0.000 HD
ENDBRANCH  20  21
ENDBRANCH  19  20
ENDBRANCH  18  19
ENDBRANCH   1  18
TORSDOF 13
ENDMDL
MODEL 3
REMARK VINA RESULT:      -7.0      1.555      2.948
REMARK  Name = 
REMARK  18 active torsions:
REMARK  status: ('A' for Active; 'I' for Inactive)
REMARK    1  A    between atoms: C_1  and  C_2
REMARK    2  A    between atoms: C_2  and  C_3
REMARK    3  A    between atoms: C_3  and  C_4
REMARK    4  A    between atoms: C_4  and  C_5
REMARK    5  A    between atoms: C_5  and  C_6
REMARK    6  A    between atoms: C_6  and  N_7
REMARK    7  A    between atoms: N_7  and  C_8
REMARK    8  A    between atoms: C_8  and  C_9
REMARK    9  A    between atoms: C_9  and  C_10
REMARK   10  A    between atoms: C_10  and  C_11
REMARK   11  A    between atoms: C_11  and  C_12
REMARK   12  A    between atoms: C_12  and  S_13
REMARK   13  A    between atoms: S_13  and  C_14
REMARK   14  A    between atoms: N_19  and  C_20
REMARK   15  A    between atoms: N_23  and  C_24
REMARK   16  A    between atoms: N_29  and  C_30
REMARK   17  A    between atoms: C_30  and  C_31
REMARK   18  A    between atoms: C_30  and  C_32
REMARK                            x       y       z     vdW  Elec       q    Type
REMARK                         _______ _______ _______ _____ _____    ______ ____
ROOT
ATOM      1  C   UNL     1       2.194   7.994  17.715  0.00  0.00    +0.000 C 
ENDROOT
BRANCH   1   2
ATOM      2  C   UNL     1       3.062   7.099  18.631  0.00  0.00    +0.000 C 
BRANCH   2   3
ATOM      3  C   UNL     1       3.930   6.071  17.881  0.00  0.00    +0.000 C 
BRANCH   3   4
ATOM      4  N   UNL     1       4.659   5.110  18.734  0.00  0.00    +0.000 N 
ATOM      5  C   UNL     1       4.093   3.959  19.291  0.00  0.00    +0.000 C 
ATOM      6  O   UNL     1       4.745   3.144  19.944  0.00  0.00    +0.000 OA
ATOM      7  N   UNL     1       2.741   3.806  19.121  0.00  0.00    +0.000 N 
ATOM      8  H   UNL     1       2.315   4.245  18.323  0.00  0.00    +0.000 HD
BRANCH   7   9
ATOM      9  C   UNL     1       2.030   2.674  19.705  0.00  0.00    +0.000 C 
ATOM     10  C   UNL     1       1.444   3.071  21.055  0.00  0.00    +0.000 C 
ATOM     11  C   UNL     1       0.930   2.163  18.777  0.00  0.00    +0.000 C 
ENDBRANCH   7   9
BRANCH   4  12
ATOM     12  C   UNL     1       6.118   5.229  18.935  0.00  0.00    +0.000 C 
BRANCH  12  13
ATOM     13  C   UNL     1       6.934   6.199  18.068  0.00  0.00    +0.000 C 
BRANCH  13  14
ATOM     14  C   UNL     1       6.961   5.927  16.558  0.00  0.00    +0.000 C 
BRANCH  14  15
ATOM     15  C   UNL     1       7.089   4.441  16.227  0.00  0.00    +0.000 C 
BRANCH  15  17
ATOM     16  C   UNL     1       6.189   3.947  13.939  0.00  0.00    +0.000 C 
ATOM     17  C   UNL     1       5.894   3.919  15.432  0.00  0.00    +0.000 C 
ENDBRANCH  15  17
ENDBRANCH  14  15
ENDBRANCH  13  14
ENDBRANCH  12  13
ENDBRANCH   4  12
ENDBRANCH   3   4
ENDBRANCH   2   3
ENDBRANCH   1   2
BRANCH   1  18
ATOM     18  C   UNL     1       1.995   9.405  18.282  0.00  0.00    +0.000 C 
BRANCH  18  19
ATOM     19  C   UNL     1       0.523   9.814  18.332  0.00  0.00    +0.000 C 
BRANCH  19  20
ATOM     20  S   UNL     1       0.304  11.106  19.604  0.00  0.00    +0.000 S 
BRANCH  20  21
ATOM     21  C   UNL     1      -1.348  11.511  19.352  0.00  0.00    +0.000 A 
ATOM     22  N   UNL     1      -2.104  11.169  18.339  0.00  0.00    +0.000 NA
ATOM     23  C   UNL     1      -3.330  11.721  18.618  0.00  0.00    +0.000 A 
ATOM     24  C   UNL     1      -4.540  11.641  17.826  0.00  0.00    +0.000 A 
ATOM     25  O   UNL     1      -4.580  11.035  16.759  0.00  0.00    +0.000 OA
ATOM     26  N   UNL     1      -5.634  12.294  18.387  0.00  0.00    +0.000 N 
ATOM     27  C   UNL     1      -6.895  12.253  17.671  0.00  0.00    +0.000 C 
ATOM     28  C   UNL     1      -5.633  13.005  19.582  0.00  0.00    +0.000 A 
ATOM     29  O   UNL     1      -6.609  13.586  20.052  0.00  0.00    +0.000 OA
ATOM     30  N   UNL     1      -4.392  13.053  20.317  0.00  0.00    +0.000 N 
ATOM     31  C   UNL     1      -4.338  13.798  21.582  0.00  0.00    +0.000 C 
ATOM     32  C   UNL     1      -3.295  12.403  19.803  0.00  0.00    +0.000 A 
ATOM     33  N   UNL     1      -2.020  12.266  20.274  0.00  0.00    +0.000 N 
ATOM     34  H   UNL     1      -1.620  12.626  21.128  0.00  0.00    +0.000 HD
ENDBRANCH  20  21
ENDBRANCH  19  20
ENDBRANCH  18  19
ENDBRANCH   1  18
TORSDOF 13
ENDMDL
MODEL 4
REMARK VINA RESULT:      -6.8      2.204      3.355
REMARK  Name = 
REMARK  18 active torsions:
REMARK  status: ('A' for Active; 'I' for Inactive)
REMARK    1  A    between atoms: C_1  and  C_2
REMARK    2  A    between atoms: C_2  and  C_3
REMARK    3  A    between atoms: C_3  and  C_4
REMARK    4  A    between atoms: C_4  and  C_5
REMARK    5  A    between atoms: C_5  and  C_6
REMARK    6  A    between atoms: C_6  and  N_7
REMARK    7  A    between atoms: N_7  and  C_8
REMARK    8  A    between atoms: C_8  and  C_9
REMARK    9  A    between atoms: C_9  and  C_10
REMARK   10  A    between atoms: C_10  and  C_11
REMARK   11  A    between atoms: C_11  and  C_12
REMARK   12  A    between atoms: C_12  and  S_13
REMARK   13  A    between atoms: S_13  and  C_14
REMARK   14  A    between atoms: N_19  and  C_20
REMARK   15  A    between atoms: N_23  and  C_24
REMARK   16  A    between atoms: N_29  and  C_30
REMARK   17  A    between atoms: C_30  and  C_31
REMARK   18  A    between atoms: C_30  and  C_32
REMARK                            x       y       z     vdW  Elec       q    Type
REMARK                         _______ _______ _______ _____ _____    ______ ____
ROOT
ATOM      1  C   UNL     1       2.709   6.171  18.339  0.00  0.00    +0.000 C 
ENDROOT
BRANCH   1   2
ATOM      2  C   UNL     1       3.897   5.245  17.989  0.00  0.00    +0.000 C 
BRANCH   2   3
ATOM      3  C   UNL     1       4.429   5.405  16.552  0.00  0.00    +0.000 C 
BRANCH   3   4
ATOM      4  N   UNL     1       5.899   5.362  16.409  0.00  0.00    +0.000 N 
ATOM      5  C   UNL     1       6.570   4.891  15.276  0.00  0.00    +0.000 C 
ATOM      6  O   UNL     1       7.794   4.928  15.161  0.00  0.00    +0.000 OA
ATOM      7  N   UNL     1       5.788   4.324  14.302  0.00  0.00    +0.000 N 
ATOM      8  H   UNL     1       4.829   4.618  14.238  0.00  0.00    +0.000 HD
BRANCH   7   9
ATOM      9  C   UNL     1       6.380   3.747  13.100  0.00  0.00    +0.000 C 
ATOM     10  C   UNL     1       5.280   3.287  12.149  0.00  0.00    +0.000 C 
ATOM     11  C   UNL     1       7.307   4.739  12.400  0.00  0.00    +0.000 C 
ENDBRANCH   7   9
BRANCH   4  12
ATOM     12  C   UNL     1       6.779   5.971  17.427  0.00  0.00    +0.000 C 
BRANCH  12  13
ATOM     13  C   UNL     1       6.868   7.500  17.548  0.00  0.00    +0.000 C 
BRANCH  13  14
ATOM     14  C   UNL     1       8.268   8.104  17.715  0.00  0.00    +0.000 C 
BRANCH  14  15
ATOM     15  C   UNL     1       8.234   9.605  17.996  0.00  0.00    +0.000 C 
BRANCH  15  17
ATOM     16  C   UNL     1       9.782  11.365  18.888  0.00  0.00    +0.000 C 
ATOM     17  C   UNL     1       9.158  10.001  19.145  0.00  0.00    +0.000 C 
ENDBRANCH  15  17
ENDBRANCH  14  15
ENDBRANCH  13  14
ENDBRANCH  12  13
ENDBRANCH   4  12
ENDBRANCH   3   4
ENDBRANCH   2   3
ENDBRANCH   1   2
BRANCH   1  18
ATOM     18  C   UNL     1       2.959   7.631  17.944  0.00  0.00    +0.000 C 
BRANCH  18  19
ATOM     19  C   UNL     1       1.663   8.424  17.779  0.00  0.00    +0.000 C 
BRANCH  19  20
ATOM     20  S   UNL     1       1.924  10.127  18.384  0.00  0.00    +0.000 S 
BRANCH  20  21
ATOM     21  C   UNL     1       0.293  10.654  18.539  0.00  0.00    +0.000 A 
ATOM     22  N   UNL     1      -0.253  11.252  19.568  0.00  0.00    +0.000 NA
ATOM     23  C   UNL     1      -1.554  11.476  19.188  0.00  0.00    +0.000 A 
ATOM     24  C   UNL     1      -2.602  12.120  19.952  0.00  0.00    +0.000 A 
ATOM     25  O   UNL     1      -2.411  12.548  21.087  0.00  0.00    +0.000 OA
ATOM     26  N   UNL     1      -3.820  12.215  19.284  0.00  0.00    +0.000 N 
ATOM     27  C   UNL     1      -4.925  12.861  19.965  0.00  0.00    +0.000 C 
ATOM     28  C   UNL     1      -4.088  11.732  18.008  0.00  0.00    +0.000 A 
ATOM     29  O   UNL     1      -5.176  11.816  17.441  0.00  0.00    +0.000 OA
ATOM     30  N   UNL     1      -3.002  11.093  17.305  0.00  0.00    +0.000 N 
ATOM     31  C   UNL     1      -3.237  10.559  15.956  0.00  0.00    +0.000 C 
ATOM     32  C   UNL     1      -1.779  10.998  17.927  0.00  0.00    +0.000 A 
ATOM     33  N   UNL     1      -0.590  10.471  17.510  0.00  0.00    +0.000 N 
ATOM     34  H   UNL     1      -0.366  10.035  16.628  0.00  0.00    +0.000 HD
ENDBRANCH  20  21
ENDBRANCH  19  20
ENDBRANCH  18  19
ENDBRANCH   1  18
TORSDOF 13
ENDMDL
MODEL 5
REMARK VINA RESULT:      -6.8      1.946      2.771
REMARK  Name = 
REMARK  18 active torsions:
REMARK  status: ('A' for Active; 'I' for Inactive)
REMARK    1  A    between atoms: C_1  and  C_2
REMARK    2  A    between atoms: C_2  and  C_3
REMARK    3  A    between atoms: C_3  and  C_4
REMARK    4  A    between atoms: C_4  and  C_5
REMARK    5  A    between atoms: C_5  and  C_6
REMARK    6  A    between atoms: C_6  and  N_7
REMARK    7  A    between atoms: N_7  and  C_8
REMARK    8  A    between atoms: C_8  and  C_9
REMARK    9  A    between atoms: C_9  and  C_10
REMARK   10  A    between atoms: C_10  and  C_11
REMARK   11  A    between atoms: C_11  and  C_12
REMARK   12  A    between atoms: C_12  and  S_13
REMARK   13  A    between atoms: S_13  and  C_14
REMARK   14  A    between atoms: N_19  and  C_20
REMARK   15  A    between atoms: N_23  and  C_24
REMARK   16  A    between atoms: N_29  and  C_30
REMARK   17  A    between atoms: C_30  and  C_31
REMARK   18  A    between atoms: C_30  and  C_32
REMARK                            x       y       z     vdW  Elec       q    Type
REMARK                         _______ _______ _______ _____ _____    ______ ____
ROOT
ATOM      1  C   UNL     1       1.978   8.076  17.814  0.00  0.00    +0.000 C 
ENDROOT
BRANCH   1   2
ATOM      2  C   UNL     1       3.255   7.475  18.447  0.00  0.00    +0.000 C 
BRANCH   2   3
ATOM      3  C   UNL     1       3.856   6.289  17.669  0.00  0.00    +0.000 C 
BRANCH   3   4
ATOM      4  N   UNL     1       4.676   5.354  18.466  0.00  0.00    +0.000 N 
ATOM      5  C   UNL     1       4.186   4.196  19.078  0.00  0.00    +0.000 C 
ATOM      6  O   UNL     1       4.909   3.403  19.682  0.00  0.00    +0.000 OA
ATOM      7  N   UNL     1       2.829   4.010  19.022  0.00  0.00    +0.000 N 
ATOM      8  H   UNL     1       2.328   4.431  18.259  0.00  0.00    +0.000 HD
BRANCH   7   9
ATOM      9  C   UNL     1       2.196   2.868  19.674  0.00  0.00    +0.000 C 
ATOM     10  C   UNL     1       1.528   3.314  20.969  0.00  0.00    +0.000 C 
ATOM     11  C   UNL     1       1.180   2.192  18.756  0.00  0.00    +0.000 C 
ENDBRANCH   7   9
BRANCH   4  12
ATOM     12  C   UNL     1       6.143   5.509  18.545  0.00  0.00    +0.000 C 
BRANCH  12  13
ATOM     13  C   UNL     1       6.916   6.098  17.355  0.00  0.00    +0.000 C 
BRANCH  13  14
ATOM     14  C   UNL     1       7.097   7.621  17.329  0.00  0.00    +0.000 C 
BRANCH  14  15
ATOM     15  C   UNL     1       8.250   8.095  18.212  0.00  0.00    +0.000 C 
BRANCH  15  17
ATOM     16  C   UNL     1       9.258  10.115  19.304  0.00  0.00    +0.000 C 
ATOM     17  C   UNL     1       8.488   9.599  18.097  0.00  0.00    +0.000 C 
ENDBRANCH  15  17
ENDBRANCH  14  15
ENDBRANCH  13  14
ENDBRANCH  12  13
ENDBRANCH   4  12
ENDBRANCH   3   4
ENDBRANCH   2   3
ENDBRANCH   1   2
BRANCH   1  18
ATOM     18  C   UNL     1       1.928   9.604  17.919  0.00  0.00    +0.000 C 
BRANCH  18  19
ATOM     19  C   UNL     1       0.953  10.086  18.994  0.00  0.00    +0.000 C 
BRANCH  19  20
ATOM     20  S   UNL     1      -0.666  10.429  18.222  0.00  0.00    +0.000 S 
BRANCH  20  21
ATOM     21  C   UNL     1      -1.423  11.327  19.479  0.00  0.00    +0.000 A 
ATOM     22  N   UNL     1      -0.942  11.588  20.668  0.00  0.00    +0.000 NA
ATOM     23  C   UNL     1      -1.914  12.344  21.278  0.00  0.00    +0.000 A 
ATOM     24  C   UNL     1      -1.892  12.910  22.611  0.00  0.00    +0.000 A 
ATOM     25  O   UNL     1      -0.940  12.750  23.369  0.00  0.00    +0.000 OA
ATOM     26  N   UNL     1      -3.026  13.648  22.937  0.00  0.00    +0.000 N 
ATOM     27  C   UNL     1      -3.086  14.267  24.246  0.00  0.00    +0.000 C 
ATOM     28  C   UNL     1      -4.134  13.843  22.118  0.00  0.00    +0.000 A 
ATOM     29  O   UNL     1      -5.131  14.489  22.432  0.00  0.00    +0.000 OA
ATOM     30  N   UNL     1      -4.095  13.244  20.806  0.00  0.00    +0.000 N 
ATOM     31  C   UNL     1      -5.244  13.415  19.906  0.00  0.00    +0.000 C 
ATOM     32  C   UNL     1      -2.982  12.524  20.442  0.00  0.00    +0.000 A 
ATOM     33  N   UNL     1      -2.664  11.871  19.285  0.00  0.00    +0.000 N 
ATOM     34  H   UNL     1      -3.204  11.789  18.436  0.00  0.00    +0.000 HD
ENDBRANCH  20  21
ENDBRANCH  19  20
ENDBRANCH  18  19
ENDBRANCH   1  18
TORSDOF 13
ENDMDL
MODEL 6
REMARK VINA RESULT:      -6.8      2.029      3.394
REMARK  Name = 
REMARK  18 active torsions:
REMARK  status: ('A' for Active; 'I' for Inactive)
REMARK    1  A    between atoms: C_1  and  C_2
REMARK    2  A    between atoms: C_2  and  C_3
REMARK    3  A    between atoms: C_3  and  C_4
REMARK    4  A    between atoms: C_4  and  C_5
REMARK    5  A    between atoms: C_5  and  C_6
REMARK    6  A    between atoms: C_6  and  N_7
REMARK    7  A    between atoms: N_7  and  C_8
REMARK    8  A    between atoms: C_8  and  C_9
REMARK    9  A    between atoms: C_9  and  C_10
REMARK   10  A    between atoms: C_10  and  C_11
REMARK   11  A    between atoms: C_11  and  C_12
REMARK   12  A    between atoms: C_12  and  S_13
REMARK   13  A    between atoms: S_13  and  C_14
REMARK   14  A    between atoms: N_19  and  C_20
REMARK   15  A    between atoms: N_23  and  C_24
REMARK   16  A    between atoms: N_29  and  C_30
REMARK   17  A    between atoms: C_30  and  C_31
REMARK   18  A    between atoms: C_30  and  C_32
REMARK                            x       y       z     vdW  Elec       q    Type
REMARK                         _______ _______ _______ _____ _____    ______ ____
ROOT
ATOM      1  C   UNL     1       3.628   8.041  17.213  0.00  0.00    +0.000 C 
ENDROOT
BRANCH   1   2
ATOM      2  C   UNL     1       4.344   6.722  16.839  0.00  0.00    +0.000 C 
BRANCH   2   3
ATOM      3  C   UNL     1       4.570   5.762  18.022  0.00  0.00    +0.000 C 
BRANCH   3   4
ATOM      4  N   UNL     1       4.502   4.322  17.696  0.00  0.00    +0.000 N 
ATOM      5  C   UNL     1       3.649   3.409  18.321  0.00  0.00    +0.000 C 
ATOM      6  O   UNL     1       3.570   2.229  17.982  0.00  0.00    +0.000 OA
ATOM      7  N   UNL     1       2.931   3.885  19.388  0.00  0.00    +0.000 N 
ATOM      8  H   UNL     1       2.730   4.870  19.418  0.00  0.00    +0.000 HD
BRANCH   7   9
ATOM      9  C   UNL     1       2.049   3.011  20.155  0.00  0.00    +0.000 C 
ATOM     10  C   UNL     1       2.623   2.789  21.549  0.00  0.00    +0.000 C 
ATOM     11  C   UNL     1       0.635   3.581  20.246  0.00  0.00    +0.000 C 
ENDBRANCH   7   9
BRANCH   4  12
ATOM     12  C   UNL     1       5.250   3.768  16.548  0.00  0.00    +0.000 C 
BRANCH  12  13
ATOM     13  C   UNL     1       6.628   4.340  16.183  0.00  0.00    +0.000 C 
BRANCH  13  14
ATOM     14  C   UNL     1       6.874   4.671  14.706  0.00  0.00    +0.000 C 
BRANCH  14  15
ATOM     15  C   UNL     1       5.831   4.049  13.779  0.00  0.00    +0.000 C 
BRANCH  15  17
ATOM     16  C   UNL     1       5.459   2.683  11.709  0.00  0.00    +0.000 C 
ATOM     17  C   UNL     1       6.435   3.579  12.458  0.00  0.00    +0.000 C 
ENDBRANCH  15  17
ENDBRANCH  14  15
ENDBRANCH  13  14
ENDBRANCH  12  13
ENDBRANCH   4  12
ENDBRANCH   3   4
ENDBRANCH   2   3
ENDBRANCH   1   2
BRANCH   1  18
ATOM     18  C   UNL     1       2.376   7.814  18.068  0.00  0.00    +0.000 C 
BRANCH  18  19
ATOM     19  C   UNL     1       1.328   8.910  17.876  0.00  0.00    +0.000 C 
BRANCH  19  20
ATOM     20  S   UNL     1       1.026   9.734  19.477  0.00  0.00    +0.000 S 
BRANCH  20  21
ATOM     21  C   UNL     1      -0.528  10.413  19.187  0.00  0.00    +0.000 A 
ATOM     22  N   UNL     1      -1.320  10.178  18.171  0.00  0.00    +0.000 NA
ATOM     23  C   UNL     1      -2.434  10.942  18.414  0.00  0.00    +0.000 A 
ATOM     24  C   UNL     1      -3.630  11.050  17.605  0.00  0.00    +0.000 A 
ATOM     25  O   UNL     1      -3.762  10.430  16.554  0.00  0.00    +0.000 OA
ATOM     26  N   UNL     1      -4.601  11.899  18.130  0.00  0.00    +0.000 N 
ATOM     27  C   UNL     1      -5.841  12.057  17.395  0.00  0.00    +0.000 C 
ATOM     28  C   UNL     1      -4.491  12.633  19.306  0.00  0.00    +0.000 A 
ATOM     29  O   UNL     1      -5.356  13.388  19.744  0.00  0.00    +0.000 OA
ATOM     30  N   UNL     1      -3.269  12.487  20.060  0.00  0.00    +0.000 N 
ATOM     31  C   UNL     1      -3.101  13.247  21.306  0.00  0.00    +0.000 C 
ATOM     32  C   UNL     1      -2.296  11.642  19.582  0.00  0.00    +0.000 A 
ATOM     33  N   UNL     1      -1.070  11.299  20.078  0.00  0.00    +0.000 N 
ATOM     34  H   UNL     1      -0.623  11.609  20.928  0.00  0.00    +0.000 HD
ENDBRANCH  20  21
ENDBRANCH  19  20
ENDBRANCH  18  19
ENDBRANCH   1  18
TORSDOF 13
ENDMDL
MODEL 7
REMARK VINA RESULT:      -6.8      1.392      4.777
REMARK  Name = 
REMARK  18 active torsions:
REMARK  status: ('A' for Active; 'I' for Inactive)
REMARK    1  A    between atoms: C_1  and  C_2
REMARK    2  A    between atoms: C_2  and  C_3
REMARK    3  A    between atoms: C_3  and  C_4
REMARK    4  A    between atoms: C_4  and  C_5
REMARK    5  A    between atoms: C_5  and  C_6
REMARK    6  A    between atoms: C_6  and  N_7
REMARK    7  A    between atoms: N_7  and  C_8
REMARK    8  A    between atoms: C_8  and  C_9
REMARK    9  A    between atoms: C_9  and  C_10
REMARK   10  A    between atoms: C_10  and  C_11
REMARK   11  A    between atoms: C_11  and  C_12
REMARK   12  A    between atoms: C_12  and  S_13
REMARK   13  A    between atoms: S_13  and  C_14
REMARK   14  A    between atoms: N_19  and  C_20
REMARK   15  A    between atoms: N_23  and  C_24
REMARK   16  A    between atoms: N_29  and  C_30
REMARK   17  A    between atoms: C_30  and  C_31
REMARK   18  A    between atoms: C_30  and  C_32
REMARK                            x       y       z     vdW  Elec       q    Type
REMARK                         _______ _______ _______ _____ _____    ______ ____
ROOT
ATOM      1  C   UNL     1       2.145   7.752  18.510  0.00  0.00    +0.000 C 
ENDROOT
BRANCH   1   2
ATOM      2  C   UNL     1       2.614   6.286  18.361  0.00  0.00    +0.000 C 
BRANCH   2   3
ATOM      3  C   UNL     1       3.648   5.837  19.413  0.00  0.00    +0.000 C 
BRANCH   3   4
ATOM      4  N   UNL     1       4.582   4.779  18.977  0.00  0.00    +0.000 N 
ATOM      5  C   UNL     1       5.846   5.016  18.430  0.00  0.00    +0.000 C 
ATOM      6  O   UNL     1       6.627   4.111  18.136  0.00  0.00    +0.000 OA
ATOM      7  N   UNL     1       6.160   6.327  18.178  0.00  0.00    +0.000 N 
ATOM      8  H   UNL     1       5.706   7.034  18.730  0.00  0.00    +0.000 HD
BRANCH   7   9
ATOM      9  C   UNL     1       7.429   6.693  17.557  0.00  0.00    +0.000 C 
ATOM     10  C   UNL     1       7.405   6.329  16.076  0.00  0.00    +0.000 C 
ATOM     11  C   UNL     1       7.732   8.179  17.734  0.00  0.00    +0.000 C 
ENDBRANCH   7   9
BRANCH   4  12
ATOM     12  C   UNL     1       4.290   3.355  19.238  0.00  0.00    +0.000 C 
BRANCH  12  13
ATOM     13  C   UNL     1       3.262   2.611  18.371  0.00  0.00    +0.000 C 
BRANCH  13  14
ATOM     14  C   UNL     1       2.186   1.804  19.107  0.00  0.00    +0.000 C 
BRANCH  14  15
ATOM     15  C   UNL     1       0.871   2.567  19.255  0.00  0.00    +0.000 C 
BRANCH  15  17
ATOM     16  C   UNL     1       1.301   2.883  21.705  0.00  0.00    +0.000 C 
ATOM     17  C   UNL     1       0.908   3.570  20.405  0.00  0.00    +0.000 C 
ENDBRANCH  15  17
ENDBRANCH  14  15
ENDBRANCH  13  14
ENDBRANCH  12  13
ENDBRANCH   4  12
ENDBRANCH   3   4
ENDBRANCH   2   3
ENDBRANCH   1   2
BRANCH   1  18
ATOM     18  C   UNL     1       1.806   8.122  19.958  0.00  0.00    +0.000 C 
BRANCH  18  19
ATOM     19  C   UNL     1       0.920   9.364  20.055  0.00  0.00    +0.000 C 
BRANCH  19  20
ATOM     20  S   UNL     1       0.876  10.194  18.429  0.00  0.00    +0.000 S 
BRANCH  20  21
ATOM     21  C   UNL     1      -0.741  10.781  18.425  0.00  0.00    +0.000 A 
ATOM     22  N   UNL     1      -1.636  10.633  17.481  0.00  0.00    +0.000 NA
ATOM     23  C   UNL     1      -2.757  11.262  17.964  0.00  0.00    +0.000 A 
ATOM     24  C   UNL     1      -4.049  11.390  17.321  0.00  0.00    +0.000 A 
ATOM     25  O   UNL     1      -4.271  10.920  16.209  0.00  0.00    +0.000 OA
ATOM     26  N   UNL     1      -4.998  12.073  18.077  0.00  0.00    +0.000 N 
ATOM     27  C   UNL     1      -6.327  12.236  17.521  0.00  0.00    +0.000 C 
ATOM     28  C   UNL     1      -4.788  12.636  19.332  0.00  0.00    +0.000 A 
ATOM     29  O   UNL     1      -5.638  13.247  19.976  0.00  0.00    +0.000 OA
ATOM     30  N   UNL     1      -3.476  12.479  19.911  0.00  0.00    +0.000 N 
ATOM     31  C   UNL     1      -3.202  13.063  21.232  0.00  0.00    +0.000 C 
ATOM     32  C   UNL     1      -2.519  11.794  19.201  0.00  0.00    +0.000 A 
ATOM     33  N   UNL     1      -1.222  11.482  19.497  0.00  0.00    +0.000 N 
ATOM     34  H   UNL     1      -0.693  11.700  20.328  0.00  0.00    +0.000 HD
ENDBRANCH  20  21
ENDBRANCH  19  20
ENDBRANCH  18  19
ENDBRANCH   1  18
TORSDOF 13
ENDMDL
MODEL 8
REMARK VINA RESULT:      -6.7      3.511      5.860
REMARK  Name = 
REMARK  18 active torsions:
REMARK  status: ('A' for Active; 'I' for Inactive)
REMARK    1  A    between atoms: C_1  and  C_2
REMARK    2  A    between atoms: C_2  and  C_3
REMARK    3  A    between atoms: C_3  and  C_4
REMARK    4  A    between atoms: C_4  and  C_5
REMARK    5  A    between atoms: C_5  and  C_6
REMARK    6  A    between atoms: C_6  and  N_7
REMARK    7  A    between atoms: N_7  and  C_8
REMARK    8  A    between atoms: C_8  and  C_9
REMARK    9  A    between atoms: C_9  and  C_10
REMARK   10  A    between atoms: C_10  and  C_11
REMARK   11  A    between atoms: C_11  and  C_12
REMARK   12  A    between atoms: C_12  and  S_13
REMARK   13  A    between atoms: S_13  and  C_14
REMARK   14  A    between atoms: N_19  and  C_20
REMARK   15  A    between atoms: N_23  and  C_24
REMARK   16  A    between atoms: N_29  and  C_30
REMARK   17  A    between atoms: C_30  and  C_31
REMARK   18  A    between atoms: C_30  and  C_32
REMARK                            x       y       z     vdW  Elec       q    Type
REMARK                         _______ _______ _______ _____ _____    ______ ____
ROOT
ATOM      1  C   UNL     1       2.098   8.893  18.457  0.00  0.00    +0.000 C 
ENDROOT
BRANCH   1   2
ATOM      2  C   UNL     1       2.265   7.501  17.804  0.00  0.00    +0.000 C 
BRANCH   2   3
ATOM      3  C   UNL     1       3.039   6.482  18.664  0.00  0.00    +0.000 C 
BRANCH   3   4
ATOM      4  N   UNL     1       3.706   5.396  17.918  0.00  0.00    +0.000 N 
ATOM      5  C   UNL     1       5.087   5.305  17.719  0.00  0.00    +0.000 C 
ATOM      6  O   UNL     1       5.618   4.352  17.148  0.00  0.00    +0.000 OA
ATOM      7  N   UNL     1       5.832   6.373  18.148  0.00  0.00    +0.000 N 
ATOM      8  H   UNL     1       5.463   6.933  18.898  0.00  0.00    +0.000 HD
BRANCH   7   9
ATOM      9  C   UNL     1       7.276   6.417  17.945  0.00  0.00    +0.000 C 
ATOM     10  C   UNL     1       7.710   7.840  17.610  0.00  0.00    +0.000 C 
ATOM     11  C   UNL     1       8.030   5.905  19.170  0.00  0.00    +0.000 C 
ENDBRANCH   7   9
BRANCH   4  12
ATOM     12  C   UNL     1       2.946   4.220  17.447  0.00  0.00    +0.000 C 
BRANCH  12  13
ATOM     13  C   UNL     1       1.474   4.047  17.852  0.00  0.00    +0.000 C 
BRANCH  13  14
ATOM     14  C   UNL     1       1.119   2.796  18.665  0.00  0.00    +0.000 C 
BRANCH  14  15
ATOM     15  C   UNL     1       0.550   3.128  20.044  0.00  0.00    +0.000 C 
BRANCH  15  17
ATOM     16  C   UNL     1       2.363   4.042  21.515  0.00  0.00    +0.000 C 
ATOM     17  C   UNL     1       1.534   2.814  21.168  0.00  0.00    +0.000 C 
ENDBRANCH  15  17
ENDBRANCH  14  15
ENDBRANCH  13  14
ENDBRANCH  12  13
ENDBRANCH   4  12
ENDBRANCH   3   4
ENDBRANCH   2   3
ENDBRANCH   1   2
BRANCH   1  18
ATOM     18  C   UNL     1       0.897   8.960  19.408  0.00  0.00    +0.000 C 
BRANCH  18  19
ATOM     19  C   UNL     1       1.075  10.013  20.503  0.00  0.00    +0.000 C 
BRANCH  19  20
ATOM     20  S   UNL     1       0.031   9.568  21.934  0.00  0.00    +0.000 S 
BRANCH  20  21
ATOM     21  C   UNL     1      -0.571  11.120  22.371  0.00  0.00    +0.000 A 
ATOM     22  N   UNL     1      -0.031  12.283  22.108  0.00  0.00    +0.000 NA
ATOM     23  C   UNL     1      -0.899  13.199  22.649  0.00  0.00    +0.000 A 
ATOM     24  C   UNL     1      -0.787  14.643  22.637  0.00  0.00    +0.000 A 
ATOM     25  O   UNL     1       0.162  15.217  22.110  0.00  0.00    +0.000 OA
ATOM     26  N   UNL     1      -1.845  15.304  23.257  0.00  0.00    +0.000 N 
ATOM     27  C   UNL     1      -1.826  16.753  23.279  0.00  0.00    +0.000 C 
ATOM     28  C   UNL     1      -2.930  14.698  23.879  0.00  0.00    +0.000 A 
ATOM     29  O   UNL     1      -3.847  15.301  24.433  0.00  0.00    +0.000 OA
ATOM     30  N   UNL     1      -2.976  13.256  23.864  0.00  0.00    +0.000 N 
ATOM     31  C   UNL     1      -4.099  12.567  24.515  0.00  0.00    +0.000 C 
ATOM     32  C   UNL     1      -1.959  12.570  23.243  0.00  0.00    +0.000 A 
ATOM     33  N   UNL     1      -1.746  11.232  23.062  0.00  0.00    +0.000 N 
ATOM     34  H   UNL     1      -2.320  10.456  23.356  0.00  0.00    +0.000 HD
ENDBRANCH  20  21
ENDBRANCH  19  20
ENDBRANCH  18  19
ENDBRANCH   1  18
TORSDOF 13
ENDMDL
MODEL 9
REMARK VINA RESULT:      -6.7      2.193      4.770
REMARK  Name = 
REMARK  18 active torsions:
REMARK  status: ('A' for Active; 'I' for Inactive)
REMARK    1  A    between atoms: C_1  and  C_2
REMARK    2  A    between atoms: C_2  and  C_3
REMARK    3  A    between atoms: C_3  and  C_4
REMARK    4  A    between atoms: C_4  and  C_5
REMARK    5  A    between atoms: C_5  and  C_6
REMARK    6  A    between atoms: C_6  and  N_7
REMARK    7  A    between atoms: N_7  and  C_8
REMARK    8  A    between atoms: C_8  and  C_9
REMARK    9  A    between atoms: C_9  and  C_10
REMARK   10  A    between atoms: C_10  and  C_11
REMARK   11  A    between atoms: C_11  and  C_12
REMARK   12  A    between atoms: C_12  and  S_13
REMARK   13  A    between atoms: S_13  and  C_14
REMARK   14  A    between atoms: N_19  and  C_20
REMARK   15  A    between atoms: N_23  and  C_24
REMARK   16  A    between atoms: N_29  and  C_30
REMARK   17  A    between atoms: C_30  and  C_31
REMARK   18  A    between atoms: C_30  and  C_32
REMARK                            x       y       z     vdW  Elec       q    Type
REMARK                         _______ _______ _______ _____ _____    ______ ____
ROOT
ATOM      1  C   UNL     1       2.444   7.584  17.705  0.00  0.00    +0.000 C 
ENDROOT
BRANCH   1   2
ATOM      2  C   UNL     1       3.974   7.363  17.665  0.00  0.00    +0.000 C 
BRANCH   2   3
ATOM      3  C   UNL     1       4.474   6.581  16.435  0.00  0.00    +0.000 C 
BRANCH   3   4
ATOM      4  N   UNL     1       4.869   5.180  16.688  0.00  0.00    +0.000 N 
ATOM      5  C   UNL     1       5.590   4.387  15.792  0.00  0.00    +0.000 C 
ATOM      6  O   UNL     1       5.960   3.244  16.059  0.00  0.00    +0.000 OA
ATOM      7  N   UNL     1       5.824   4.931  14.555  0.00  0.00    +0.000 N 
ATOM      8  H   UNL     1       5.849   5.934  14.479  0.00  0.00    +0.000 HD
BRANCH   7   9
ATOM      9  C   UNL     1       6.518   4.176  13.517  0.00  0.00    +0.000 C 
ATOM     10  C   UNL     1       5.512   3.651  12.498  0.00  0.00    +0.000 C 
ATOM     11  C   UNL     1       7.582   5.024  12.824  0.00  0.00    +0.000 C 
ENDBRANCH   7   9
BRANCH   4  12
ATOM     12  C   UNL     1       4.647   4.557  18.009  0.00  0.00    +0.000 C 
BRANCH  12  13
ATOM     13  C   UNL     1       3.531   3.516  18.189  0.00  0.00    +0.000 C 
BRANCH  13  14
ATOM     14  C   UNL     1       2.087   4.022  18.092  0.00  0.00    +0.000 C 
BRANCH  14  15
ATOM     15  C   UNL     1       1.222   3.570  19.268  0.00  0.00    +0.000 C 
BRANCH  15  17
ATOM     16  C   UNL     1       1.302   2.741  21.633  0.00  0.00    +0.000 C 
ATOM     17  C   UNL     1       1.971   3.632  20.597  0.00  0.00    +0.000 C 
ENDBRANCH  15  17
ENDBRANCH  14  15
ENDBRANCH  13  14
ENDBRANCH  12  13
ENDBRANCH   4  12
ENDBRANCH   3   4
ENDBRANCH   2   3
ENDBRANCH   1   2
BRANCH   1  18
ATOM     18  C   UNL     1       2.058   9.067  17.660  0.00  0.00    +0.000 C 
BRANCH  18  19
ATOM     19  C   UNL     1       1.322   9.519  18.921  0.00  0.00    +0.000 C 
BRANCH  19  20
ATOM     20  S   UNL     1       1.220  11.343  18.933  0.00  0.00    +0.000 S 
BRANCH  20  21
ATOM     21  C   UNL     1      -0.486  11.557  18.900  0.00  0.00    +0.000 A 
ATOM     22  N   UNL     1      -1.319  11.154  17.973  0.00  0.00    +0.000 NA
ATOM     23  C   UNL     1      -2.555  11.551  18.421  0.00  0.00    +0.000 A 
ATOM     24  C   UNL     1      -3.838  11.349  17.779  0.00  0.00    +0.000 A 
ATOM     25  O   UNL     1      -3.942  10.771  16.702  0.00  0.00    +0.000 OA
ATOM     26  N   UNL     1      -4.920  11.854  18.495  0.00  0.00    +0.000 N 
ATOM     27  C   UNL     1      -6.248  11.684  17.937  0.00  0.00    +0.000 C 
ATOM     28  C   UNL     1      -4.850  12.529  19.709  0.00  0.00    +0.000 A 
ATOM     29  O   UNL     1      -5.819  12.979  20.317  0.00  0.00    +0.000 OA
ATOM     30  N   UNL     1      -3.541  12.704  20.289  0.00  0.00    +0.000 N 
ATOM     31  C   UNL     1      -3.413  13.418  21.567  0.00  0.00    +0.000 C 
ATOM     32  C   UNL     1      -2.450  12.201  19.620  0.00  0.00    +0.000 A 
ATOM     33  N   UNL     1      -1.119  12.203  19.926  0.00  0.00    +0.000 N 
ATOM     34  H   UNL     1      -0.658  12.586  20.739  0.00  0.00    +0.000 HD
ENDBRANCH  20  21
ENDBRANCH  19  20
ENDBRANCH  18  19
ENDBRANCH   1  18
TORSDOF 13
ENDMDL
