MODEL 1
REMARK VINA RESULT:      -8.0      0.000      0.000
REMARK  Name = 
REMARK  7 active torsions:
REMARK  status: ('A' for Active; 'I' for Inactive)
REMARK    1  A    between atoms: N_3  and  C_4
REMARK    2  A    between atoms: C_4  and  C_5
REMARK    3  A    between atoms: C_5  and  C_6
REMARK    4  A    between atoms: C_6  and  C_7
REMARK    5  A    between atoms: N_13  and  C_14
REMARK    6  A    between atoms: C_14  and  C_15
REMARK    7  A    between atoms: C_15  and  C_16
REMARK                            x       y       z     vdW  Elec       q    Type
REMARK                         _______ _______ _______ _____ _____    ______ ____
ROOT
ATOM      1  O   UNL     1       7.881   5.945  17.886  0.00  0.00    +0.000 OA
ATOM      2  C   UNL     1       7.220   6.728  17.210  0.00  0.00    +0.000 C 
ATOM      3  N   UNL     1       6.236   6.334  16.344  0.00  0.00    +0.000 N 
ATOM      4  N   UNL     1       7.378   8.088  17.262  0.00  0.00    +0.000 N 
ATOM      5  H   UNL     1       5.776   7.026  15.778  0.00  0.00    +0.000 HD
ATOM      6  H   UNL     1       6.863   8.663  16.616  0.00  0.00    +0.000 HD
ENDROOT
BRANCH   3   7
ATOM      7  C   UNL     1       5.881   4.935  16.169  0.00  0.00    +0.000 C 
BRANCH   7   8
ATOM      8  C   UNL     1       5.074   4.393  17.351  0.00  0.00    +0.000 C 
BRANCH   8   9
ATOM      9  C   UNL     1       3.664   3.960  16.923  0.00  0.00    +0.000 C 
BRANCH   9  10
ATOM     10  C   UNL     1       2.693   3.937  18.082  0.00  0.00    +0.000 A 
ATOM     11  C   UNL     1       2.687   4.973  19.026  0.00  0.00    +0.000 A 
ATOM     12  C   UNL     1       1.817   4.935  20.118  0.00  0.00    +0.000 A 
ATOM     13  C   UNL     1       0.940   3.864  20.277  0.00  0.00    +0.000 A 
ATOM     14  C   UNL     1       0.928   2.834  19.338  0.00  0.00    +0.000 A 
ATOM     15  C   UNL     1       1.798   2.870  18.246  0.00  0.00    +0.000 A 
ENDBRANCH   9  10
ENDBRANCH   8   9
ENDBRANCH   7   8
ENDBRANCH   3   7
BRANCH   4  16
ATOM     16  C   UNL     1       8.412   8.686  18.098  0.00  0.00    +0.000 C 
BRANCH  16  17
ATOM     17  C   UNL     1       8.276  10.207  18.213  0.00  0.00    +0.000 C 
BRANCH  17  18
ATOM     18  C   UNL     1       9.538  10.891  18.681  0.00  0.00    +0.000 A 
ATOM     19  C   UNL     1      10.565  11.215  17.785  0.00  0.00    +0.000 A 
ATOM     20  C   UNL     1      11.751  11.802  18.243  0.00  0.00    +0.000 A 
ATOM     21  C   UNL     1      11.917  12.085  19.599  0.00  0.00    +0.000 A 
ATOM     22  C   UNL     1      10.895  11.789  20.496  0.00  0.00    +0.000 A 
ATOM     23  C   UNL     1       9.718  11.202  20.032  0.00  0.00    +0.000 A 
ATOM     24  F   UNL     1       8.749  10.920  20.915  0.00  0.00    +0.000 F 
ENDBRANCH  17  18
ENDBRANCH  16  17
ENDBRANCH   4  16
TORSDOF 7
ENDMDL
MODEL 2
REMARK VINA RESULT:      -7.9      1.906      9.679
REMARK  Name = 
REMARK  7 active torsions:
REMARK  status: ('A' for Active; 'I' for Inactive)
REMARK    1  A    between atoms: N_3  and  C_4
REMARK    2  A    between atoms: C_4  and  C_5
REMARK    3  A    between atoms: C_5  and  C_6
REMARK    4  A    between atoms: C_6  and  C_7
REMARK    5  A    between atoms: N_13  and  C_14
REMARK    6  A    between atoms: C_14  and  C_15
REMARK    7  A    between atoms: C_15  and  C_16
REMARK                            x       y       z     vdW  Elec       q    Type
REMARK                         _______ _______ _______ _____ _____    ______ ____
ROOT
ATOM      1  O   UNL     1       6.062   6.536  16.128  0.00  0.00    +0.000 OA
ATOM      2  C   UNL     1       6.359   6.272  17.289  0.00  0.00    +0.000 C 
ATOM      3  N   UNL     1       7.270   6.988  18.017  0.00  0.00    +0.000 N 
ATOM      4  N   UNL     1       5.796   5.242  17.996  0.00  0.00    +0.000 N 
ATOM      5  H   UNL     1       7.508   6.680  18.944  0.00  0.00    +0.000 HD
ATOM      6  H   UNL     1       6.151   5.030  18.913  0.00  0.00    +0.000 HD
ENDROOT
BRANCH   3   7
ATOM      7  C   UNL     1       7.953   8.148  17.467  0.00  0.00    +0.000 C 
BRANCH   7   8
ATOM      8  C   UNL     1       8.537   9.046  18.560  0.00  0.00    +0.000 C 
BRANCH   8   9
ATOM      9  C   UNL     1       8.635  10.507  18.100  0.00  0.00    +0.000 C 
BRANCH   9  10
ATOM     10  C   UNL     1       9.867  11.198  18.639  0.00  0.00    +0.000 A 
ATOM     11  C   UNL     1      10.835  11.711  17.764  0.00  0.00    +0.000 A 
ATOM     12  C   UNL     1      11.992  12.317  18.260  0.00  0.00    +0.000 A 
ATOM     13  C   UNL     1      12.194  12.421  19.634  0.00  0.00    +0.000 A 
ATOM     14  C   UNL     1      11.232  11.927  20.514  0.00  0.00    +0.000 A 
ATOM     15  C   UNL     1      10.075  11.320  20.020  0.00  0.00    +0.000 A 
ENDBRANCH   9  10
ENDBRANCH   8   9
ENDBRANCH   7   8
ENDBRANCH   3   7
BRANCH   4  16
ATOM     16  C   UNL     1       4.837   4.343  17.364  0.00  0.00    +0.000 C 
BRANCH  16  17
ATOM     17  C   UNL     1       3.402   4.873  17.420  0.00  0.00    +0.000 C 
BRANCH  17  18
ATOM     18  C   UNL     1       2.588   4.288  18.550  0.00  0.00    +0.000 A 
ATOM     19  C   UNL     1       2.071   2.988  18.478  0.00  0.00    +0.000 A 
ATOM     20  C   UNL     1       1.276   2.479  19.511  0.00  0.00    +0.000 A 
ATOM     21  C   UNL     1       1.000   3.258  20.635  0.00  0.00    +0.000 A 
ATOM     22  C   UNL     1       1.527   4.543  20.730  0.00  0.00    +0.000 A 
ATOM     23  C   UNL     1       2.317   5.044  19.695  0.00  0.00    +0.000 A 
ATOM     24  F   UNL     1       2.808   6.286  19.804  0.00  0.00    +0.000 F 
ENDBRANCH  17  18
ENDBRANCH  16  17
ENDBRANCH   4  16
TORSDOF 7
ENDMDL
MODEL 3
REMARK VINA RESULT:      -7.7      2.648      9.826
REMARK  Name = 
REMARK  7 active torsions:
REMARK  status: ('A' for Active; 'I' for Inactive)
REMARK    1  A    between atoms: N_3  and  C_4
REMARK    2  A    between atoms: C_4  and  C_5
REMARK    3  A    between atoms: C_5  and  C_6
REMARK    4  A    between atoms: C_6  and  C_7
REMARK    5  A    between atoms: N_13  and  C_14
REMARK    6  A    between atoms: C_14  and  C_15
REMARK    7  A    between atoms: C_15  and  C_16
REMARK                            x       y       z     vdW  Elec       q    Type
REMARK                         _______ _______ _______ _____ _____    ______ ____
ROOT
ATOM      1  O   UNL     1       5.884   7.084  16.254  0.00  0.00    +0.000 OA
ATOM      2  C   UNL     1       6.226   6.738  17.381  0.00  0.00    +0.000 C 
ATOM      3  N   UNL     1       7.349   7.206  18.007  0.00  0.00    +0.000 N 
ATOM      4  N   UNL     1       5.509   5.859  18.150  0.00  0.00    +0.000 N 
ATOM      5  H   UNL     1       7.600   6.834  18.907  0.00  0.00    +0.000 HD
ATOM      6  H   UNL     1       5.894   5.553  19.027  0.00  0.00    +0.000 HD
ENDROOT
BRANCH   3   7
ATOM      7  C   UNL     1       8.229   8.181  17.382  0.00  0.00    +0.000 C 
BRANCH   7   8
ATOM      8  C   UNL     1       8.093   9.569  18.012  0.00  0.00    +0.000 C 
BRANCH   8   9
ATOM      9  C   UNL     1       9.036   9.741  19.211  0.00  0.00    +0.000 C 
BRANCH   9  10
ATOM     10  C   UNL     1       9.977  10.911  19.039  0.00  0.00    +0.000 A 
ATOM     11  C   UNL     1      10.555  11.530  20.156  0.00  0.00    +0.000 A 
ATOM     12  C   UNL     1      11.396  12.635  20.001  0.00  0.00    +0.000 A 
ATOM     13  C   UNL     1      11.672  13.132  18.729  0.00  0.00    +0.000 A 
ATOM     14  C   UNL     1      11.114  12.517  17.610  0.00  0.00    +0.000 A 
ATOM     15  C   UNL     1      10.272  11.412  17.762  0.00  0.00    +0.000 A 
ENDBRANCH   9  10
ENDBRANCH   8   9
ENDBRANCH   7   8
ENDBRANCH   3   7
BRANCH   4  16
ATOM     16  C   UNL     1       4.306   5.222  17.626  0.00  0.00    +0.000 C 
BRANCH  16  17
ATOM     17  C   UNL     1       3.023   5.774  18.253  0.00  0.00    +0.000 C 
BRANCH  17  18
ATOM     18  C   UNL     1       2.350   4.806  19.197  0.00  0.00    +0.000 A 
ATOM     19  C   UNL     1       2.666   4.783  20.562  0.00  0.00    +0.000 A 
ATOM     20  C   UNL     1       2.071   3.845  21.414  0.00  0.00    +0.000 A 
ATOM     21  C   UNL     1       1.143   2.931  20.916  0.00  0.00    +0.000 A 
ATOM     22  C   UNL     1       0.803   2.959  19.567  0.00  0.00    +0.000 A 
ATOM     23  C   UNL     1       1.401   3.895  18.723  0.00  0.00    +0.000 A 
ATOM     24  F   UNL     1       1.064   3.900  17.426  0.00  0.00    +0.000 F 
ENDBRANCH  17  18
ENDBRANCH  16  17
ENDBRANCH   4  16
TORSDOF 7
ENDMDL
MODEL 4
REMARK VINA RESULT:      -7.7      0.804      1.121
REMARK  Name = 
REMARK  7 active torsions:
REMARK  status: ('A' for Active; 'I' for Inactive)
REMARK    1  A    between atoms: N_3  and  C_4
REMARK    2  A    between atoms: C_4  and  C_5
REMARK    3  A    between atoms: C_5  and  C_6
REMARK    4  A    between atoms: C_6  and  C_7
REMARK    5  A    between atoms: N_13  and  C_14
REMARK    6  A    between atoms: C_14  and  C_15
REMARK    7  A    between atoms: C_15  and  C_16
REMARK                            x       y       z     vdW  Elec       q    Type
REMARK                         _______ _______ _______ _____ _____    ______ ____
ROOT
ATOM      1  O   UNL     1       7.845   6.180  17.772  0.00  0.00    +0.000 OA
ATOM      2  C   UNL     1       7.050   6.993  17.310  0.00  0.00    +0.000 C 
ATOM      3  N   UNL     1       5.898   6.639  16.661  0.00  0.00    +0.000 N 
ATOM      4  N   UNL     1       7.216   8.349  17.410  0.00  0.00    +0.000 N 
ATOM      5  H   UNL     1       5.323   7.357  16.256  0.00  0.00    +0.000 HD
ATOM      6  H   UNL     1       6.570   8.955  16.931  0.00  0.00    +0.000 HD
ENDROOT
BRANCH   3   7
ATOM      7  C   UNL     1       5.511   5.248  16.484  0.00  0.00    +0.000 C 
BRANCH   7   8
ATOM      8  C   UNL     1       4.087   4.978  16.974  0.00  0.00    +0.000 C 
BRANCH   8   9
ATOM      9  C   UNL     1       3.839   3.479  17.194  0.00  0.00    +0.000 C 
BRANCH   9  10
ATOM     10  C   UNL     1       2.996   3.210  18.420  0.00  0.00    +0.000 A 
ATOM     11  C   UNL     1       1.607   3.055  18.309  0.00  0.00    +0.000 A 
ATOM     12  C   UNL     1       0.823   2.844  19.445  0.00  0.00    +0.000 A 
ATOM     13  C   UNL     1       1.416   2.780  20.704  0.00  0.00    +0.000 A 
ATOM     14  C   UNL     1       2.797   2.919  20.825  0.00  0.00    +0.000 A 
ATOM     15  C   UNL     1       3.584   3.132  19.691  0.00  0.00    +0.000 A 
ENDBRANCH   9  10
ENDBRANCH   8   9
ENDBRANCH   7   8
ENDBRANCH   3   7
BRANCH   4  16
ATOM     16  C   UNL     1       8.411   8.910  18.029  0.00  0.00    +0.000 C 
BRANCH  16  17
ATOM     17  C   UNL     1       8.379  10.439  18.102  0.00  0.00    +0.000 C 
BRANCH  17  18
ATOM     18  C   UNL     1       9.664  11.043  18.616  0.00  0.00    +0.000 A 
ATOM     19  C   UNL     1      10.723  11.347  17.749  0.00  0.00    +0.000 A 
ATOM     20  C   UNL     1      11.926  11.859  18.247  0.00  0.00    +0.000 A 
ATOM     21  C   UNL     1      12.081  12.087  19.615  0.00  0.00    +0.000 A 
ATOM     22  C   UNL     1      11.029  11.811  20.483  0.00  0.00    +0.000 A 
ATOM     23  C   UNL     1       9.834  11.299  19.980  0.00  0.00    +0.000 A 
ATOM     24  F   UNL     1       8.836  11.034  20.835  0.00  0.00    +0.000 F 
ENDBRANCH  17  18
ENDBRANCH  16  17
ENDBRANCH   4  16
TORSDOF 7
ENDMDL
MODEL 5
REMARK VINA RESULT:      -7.7      1.755      2.289
REMARK  Name = 
REMARK  7 active torsions:
REMARK  status: ('A' for Active; 'I' for Inactive)
REMARK    1  A    between atoms: N_3  and  C_4
REMARK    2  A    between atoms: C_4  and  C_5
REMARK    3  A    between atoms: C_5  and  C_6
REMARK    4  A    between atoms: C_6  and  C_7
REMARK    5  A    between atoms: N_13  and  C_14
REMARK    6  A    between atoms: C_14  and  C_15
REMARK    7  A    between atoms: C_15  and  C_16
REMARK                            x       y       z     vdW  Elec       q    Type
REMARK                         _______ _______ _______ _____ _____    ______ ____
ROOT
ATOM      1  O   UNL     1       7.633   7.919  17.118  0.00  0.00    +0.000 OA
ATOM      2  C   UNL     1       8.102   7.726  18.236  0.00  0.00    +0.000 C 
ATOM      3  N   UNL     1       8.047   6.520  18.881  0.00  0.00    +0.000 N 
ATOM      4  N   UNL     1       8.753   8.692  18.957  0.00  0.00    +0.000 N 
ATOM      5  H   UNL     1       8.399   6.449  19.820  0.00  0.00    +0.000 HD
ATOM      6  H   UNL     1       9.033   8.489  19.902  0.00  0.00    +0.000 HD
ENDROOT
BRANCH   3   7
ATOM      7  C   UNL     1       7.436   5.350  18.272  0.00  0.00    +0.000 C 
BRANCH   7   8
ATOM      8  C   UNL     1       5.947   5.237  18.607  0.00  0.00    +0.000 C 
BRANCH   8   9
ATOM      9  C   UNL     1       5.102   4.989  17.349  0.00  0.00    +0.000 C 
BRANCH   9  10
ATOM     10  C   UNL     1       3.844   4.204  17.647  0.00  0.00    +0.000 A 
ATOM     11  C   UNL     1       2.642   4.866  17.931  0.00  0.00    +0.000 A 
ATOM     12  C   UNL     1       1.488   4.143  18.243  0.00  0.00    +0.000 A 
ATOM     13  C   UNL     1       1.521   2.751  18.272  0.00  0.00    +0.000 A 
ATOM     14  C   UNL     1       2.707   2.080  17.980  0.00  0.00    +0.000 A 
ATOM     15  C   UNL     1       3.863   2.801  17.668  0.00  0.00    +0.000 A 
ENDBRANCH   9  10
ENDBRANCH   8   9
ENDBRANCH   7   8
ENDBRANCH   3   7
BRANCH   4  16
ATOM     16  C   UNL     1       8.866  10.053  18.446  0.00  0.00    +0.000 C 
BRANCH  16  17
ATOM     17  C   UNL     1       9.894  10.891  19.212  0.00  0.00    +0.000 C 
BRANCH  17  18
ATOM     18  C   UNL     1      10.391  12.088  18.438  0.00  0.00    +0.000 A 
ATOM     19  C   UNL     1      11.602  12.048  17.734  0.00  0.00    +0.000 A 
ATOM     20  C   UNL     1      12.074  13.182  17.064  0.00  0.00    +0.000 A 
ATOM     21  C   UNL     1      11.335  14.365  17.077  0.00  0.00    +0.000 A 
ATOM     22  C   UNL     1      10.119  14.411  17.752  0.00  0.00    +0.000 A 
ATOM     23  C   UNL     1       9.656  13.278  18.420  0.00  0.00    +0.000 A 
ATOM     24  F   UNL     1       8.486  13.346  19.069  0.00  0.00    +0.000 F 
ENDBRANCH  17  18
ENDBRANCH  16  17
ENDBRANCH   4  16
TORSDOF 7
ENDMDL
MODEL 6
REMARK VINA RESULT:      -7.7      1.537      2.100
REMARK  Name = 
REMARK  7 active torsions:
REMARK  status: ('A' for Active; 'I' for Inactive)
REMARK    1  A    between atoms: N_3  and  C_4
REMARK    2  A    between atoms: C_4  and  C_5
REMARK    3  A    between atoms: C_5  and  C_6
REMARK    4  A    between atoms: C_6  and  C_7
REMARK    5  A    between atoms: N_13  and  C_14
REMARK    6  A    between atoms: C_14  and  C_15
REMARK    7  A    between atoms: C_15  and  C_16
REMARK                            x       y       z     vdW  Elec       q    Type
REMARK                         _______ _______ _______ _____ _____    ______ ____
ROOT
ATOM      1  O   UNL     1       7.474   6.437  18.652  0.00  0.00    +0.000 OA
ATOM      2  C   UNL     1       7.545   6.847  17.497  0.00  0.00    +0.000 C 
ATOM      3  N   UNL     1       7.346   6.054  16.400  0.00  0.00    +0.000 N 
ATOM      4  N   UNL     1       7.808   8.153  17.176  0.00  0.00    +0.000 N 
ATOM      5  H   UNL     1       7.478   6.444  15.482  0.00  0.00    +0.000 HD
ATOM      6  H   UNL     1       7.937   8.400  16.210  0.00  0.00    +0.000 HD
ENDROOT
BRANCH   3   7
ATOM      7  C   UNL     1       7.014   4.643  16.520  0.00  0.00    +0.000 C 
BRANCH   7   8
ATOM      8  C   UNL     1       5.591   4.343  16.044  0.00  0.00    +0.000 C 
BRANCH   8   9
ATOM      9  C   UNL     1       4.544   5.078  16.892  0.00  0.00    +0.000 C 
BRANCH   9  10
ATOM     10  C   UNL     1       3.506   4.139  17.465  0.00  0.00    +0.000 A 
ATOM     11  C   UNL     1       3.796   2.778  17.637  0.00  0.00    +0.000 A 
ATOM     12  C   UNL     1       2.826   1.902  18.131  0.00  0.00    +0.000 A 
ATOM     13  C   UNL     1       1.558   2.375  18.462  0.00  0.00    +0.000 A 
ATOM     14  C   UNL     1       1.263   3.728  18.308  0.00  0.00    +0.000 A 
ATOM     15  C   UNL     1       2.231   4.606  17.813  0.00  0.00    +0.000 A 
ENDBRANCH   9  10
ENDBRANCH   8   9
ENDBRANCH   7   8
ENDBRANCH   3   7
BRANCH   4  16
ATOM     16  C   UNL     1       8.090   9.133  18.218  0.00  0.00    +0.000 C 
BRANCH  16  17
ATOM     17  C   UNL     1       9.098  10.197  17.773  0.00  0.00    +0.000 C 
BRANCH  17  18
ATOM     18  C   UNL     1       9.346  11.263  18.814  0.00  0.00    +0.000 A 
ATOM     19  C   UNL     1       9.849  10.938  20.082  0.00  0.00    +0.000 A 
ATOM     20  C   UNL     1      10.025  11.931  21.053  0.00  0.00    +0.000 A 
ATOM     21  C   UNL     1       9.716  13.260  20.764  0.00  0.00    +0.000 A 
ATOM     22  C   UNL     1       9.239  13.599  19.501  0.00  0.00    +0.000 A 
ATOM     23  C   UNL     1       9.063  12.604  18.540  0.00  0.00    +0.000 A 
ATOM     24  F   UNL     1       8.596  12.951  17.332  0.00  0.00    +0.000 F 
ENDBRANCH  17  18
ENDBRANCH  16  17
ENDBRANCH   4  16
TORSDOF 7
ENDMDL
MODEL 7
REMARK VINA RESULT:      -7.6      1.421      1.472
REMARK  Name = 
REMARK  7 active torsions:
REMARK  status: ('A' for Active; 'I' for Inactive)
REMARK    1  A    between atoms: N_3  and  C_4
REMARK    2  A    between atoms: C_4  and  C_5
REMARK    3  A    between atoms: C_5  and  C_6
REMARK    4  A    between atoms: C_6  and  C_7
REMARK    5  A    between atoms: N_13  and  C_14
REMARK    6  A    between atoms: C_14  and  C_15
REMARK    7  A    between atoms: C_15  and  C_16
REMARK                            x       y       z     vdW  Elec       q    Type
REMARK                         _______ _______ _______ _____ _____    ______ ____
ROOT
ATOM      1  O   UNL     1       6.673   7.527  16.951  0.00  0.00    +0.000 OA
ATOM      2  C   UNL     1       7.468   7.108  17.787  0.00  0.00    +0.000 C 
ATOM      3  N   UNL     1       7.528   5.799  18.183  0.00  0.00    +0.000 N 
ATOM      4  N   UNL     1       8.401   7.900  18.403  0.00  0.00    +0.000 N 
ATOM      5  H   UNL     1       8.165   5.538  18.916  0.00  0.00    +0.000 HD
ATOM      6  H   UNL     1       8.961   7.508  19.141  0.00  0.00    +0.000 HD
ENDROOT
BRANCH   3   7
ATOM      7  C   UNL     1       6.652   4.785  17.621  0.00  0.00    +0.000 C 
BRANCH   7   8
ATOM      8  C   UNL     1       5.337   4.664  18.395  0.00  0.00    +0.000 C 
BRANCH   8   9
ATOM      9  C   UNL     1       4.392   3.641  17.749  0.00  0.00    +0.000 C 
BRANCH   9  10
ATOM     10  C   UNL     1       3.106   3.476  18.525  0.00  0.00    +0.000 A 
ATOM     11  C   UNL     1       2.898   4.185  19.716  0.00  0.00    +0.000 A 
ATOM     12  C   UNL     1       1.725   4.006  20.455  0.00  0.00    +0.000 A 
ATOM     13  C   UNL     1       0.746   3.121  20.010  0.00  0.00    +0.000 A 
ATOM     14  C   UNL     1       0.936   2.420  18.821  0.00  0.00    +0.000 A 
ATOM     15  C   UNL     1       2.108   2.597  18.081  0.00  0.00    +0.000 A 
ENDBRANCH   9  10
ENDBRANCH   8   9
ENDBRANCH   7   8
ENDBRANCH   3   7
BRANCH   4  16
ATOM     16  C   UNL     1       8.453   9.333  18.137  0.00  0.00    +0.000 C 
BRANCH  16  17
ATOM     17  C   UNL     1       9.196  10.111  19.227  0.00  0.00    +0.000 C 
BRANCH  17  18
ATOM     18  C   UNL     1       9.728  11.444  18.757  0.00  0.00    +0.000 A 
ATOM     19  C   UNL     1      10.581  11.538  17.649  0.00  0.00    +0.000 A 
ATOM     20  C   UNL     1      11.106  12.775  17.258  0.00  0.00    +0.000 A 
ATOM     21  C   UNL     1      10.774  13.934  17.960  0.00  0.00    +0.000 A 
ATOM     22  C   UNL     1       9.909  13.858  19.048  0.00  0.00    +0.000 A 
ATOM     23  C   UNL     1       9.392  12.621  19.433  0.00  0.00    +0.000 A 
ATOM     24  F   UNL     1       8.566  12.570  20.488  0.00  0.00    +0.000 F 
ENDBRANCH  17  18
ENDBRANCH  16  17
ENDBRANCH   4  16
TORSDOF 7
ENDMDL
MODEL 8
REMARK VINA RESULT:      -7.6      1.451      1.669
REMARK  Name = 
REMARK  7 active torsions:
REMARK  status: ('A' for Active; 'I' for Inactive)
REMARK    1  A    between atoms: N_3  and  C_4
REMARK    2  A    between atoms: C_4  and  C_5
REMARK    3  A    between atoms: C_5  and  C_6
REMARK    4  A    between atoms: C_6  and  C_7
REMARK    5  A    between atoms: N_13  and  C_14
REMARK    6  A    between atoms: C_14  and  C_15
REMARK    7  A    between atoms: C_15  and  C_16
REMARK                            x       y       z     vdW  Elec       q    Type
REMARK                         _______ _______ _______ _____ _____    ______ ____
ROOT
ATOM      1  O   UNL     1       8.140   6.580  18.786  0.00  0.00    +0.000 OA
ATOM      2  C   UNL     1       7.747   7.065  17.729  0.00  0.00    +0.000 C 
ATOM      3  N   UNL     1       7.156   6.333  16.735  0.00  0.00    +0.000 N 
ATOM      4  N   UNL     1       7.835   8.400  17.434  0.00  0.00    +0.000 N 
ATOM      5  H   UNL     1       6.912   6.787  15.871  0.00  0.00    +0.000 HD
ATOM      6  H   UNL     1       7.573   8.714  16.515  0.00  0.00    +0.000 HD
ENDROOT
BRANCH   3   7
ATOM      7  C   UNL     1       6.929   4.903  16.864  0.00  0.00    +0.000 C 
BRANCH   7   8
ATOM      8  C   UNL     1       5.440   4.550  16.831  0.00  0.00    +0.000 C 
BRANCH   8   9
ATOM      9  C   UNL     1       4.574   5.695  17.374  0.00  0.00    +0.000 C 
BRANCH   9  10
ATOM     10  C   UNL     1       3.423   5.196  18.216  0.00  0.00    +0.000 A 
ATOM     11  C   UNL     1       3.305   5.579  19.560  0.00  0.00    +0.000 A 
ATOM     12  C   UNL     1       2.262   5.088  20.350  0.00  0.00    +0.000 A 
ATOM     13  C   UNL     1       1.323   4.214  19.807  0.00  0.00    +0.000 A 
ATOM     14  C   UNL     1       1.422   3.837  18.469  0.00  0.00    +0.000 A 
ATOM     15  C   UNL     1       2.465   4.325  17.677  0.00  0.00    +0.000 A 
ENDBRANCH   9  10
ENDBRANCH   8   9
ENDBRANCH   7   8
ENDBRANCH   3   7
BRANCH   4  16
ATOM     16  C   UNL     1       8.478   9.326  18.359  0.00  0.00    +0.000 C 
BRANCH  16  17
ATOM     17  C   UNL     1       8.519  10.762  17.828  0.00  0.00    +0.000 C 
BRANCH  17  18
ATOM     18  C   UNL     1       9.474  11.655  18.583  0.00  0.00    +0.000 A 
ATOM     19  C   UNL     1      10.373  11.131  19.521  0.00  0.00    +0.000 A 
ATOM     20  C   UNL     1      11.216  11.978  20.250  0.00  0.00    +0.000 A 
ATOM     21  C   UNL     1      11.181  13.356  20.039  0.00  0.00    +0.000 A 
ATOM     22  C   UNL     1      10.308  13.887  19.094  0.00  0.00    +0.000 A 
ATOM     23  C   UNL     1       9.470  13.038  18.374  0.00  0.00    +0.000 A 
ATOM     24  F   UNL     1       8.633  13.571  17.473  0.00  0.00    +0.000 F 
ENDBRANCH  17  18
ENDBRANCH  16  17
ENDBRANCH   4  16
TORSDOF 7
ENDMDL
MODEL 9
REMARK VINA RESULT:      -7.6      1.407      2.012
REMARK  Name = 
REMARK  7 active torsions:
REMARK  status: ('A' for Active; 'I' for Inactive)
REMARK    1  A    between atoms: N_3  and  C_4
REMARK    2  A    between atoms: C_4  and  C_5
REMARK    3  A    between atoms: C_5  and  C_6
REMARK    4  A    between atoms: C_6  and  C_7
REMARK    5  A    between atoms: N_13  and  C_14
REMARK    6  A    between atoms: C_14  and  C_15
REMARK    7  A    between atoms: C_15  and  C_16
REMARK                            x       y       z     vdW  Elec       q    Type
REMARK                         _______ _______ _______ _____ _____    ______ ____
ROOT
ATOM      1  O   UNL     1       7.998   6.536  18.529  0.00  0.00    +0.000 OA
ATOM      2  C   UNL     1       7.479   7.202  17.638  0.00  0.00    +0.000 C 
ATOM      3  N   UNL     1       6.638   6.678  16.694  0.00  0.00    +0.000 N 
ATOM      4  N   UNL     1       7.666   8.553  17.502  0.00  0.00    +0.000 N 
ATOM      5  H   UNL     1       6.296   7.271  15.958  0.00  0.00    +0.000 HD
ATOM      6  H   UNL     1       7.280   9.018  16.697  0.00  0.00    +0.000 HD
ENDROOT
BRANCH   3   7
ATOM      7  C   UNL     1       6.275   5.270  16.685  0.00  0.00    +0.000 C 
BRANCH   7   8
ATOM      8  C   UNL     1       4.762   5.065  16.577  0.00  0.00    +0.000 C 
BRANCH   8   9
ATOM      9  C   UNL     1       4.369   3.605  16.843  0.00  0.00    +0.000 C 
BRANCH   9  10
ATOM     10  C   UNL     1       3.231   3.487  17.831  0.00  0.00    +0.000 A 
ATOM     11  C   UNL     1       2.557   2.269  17.999  0.00  0.00    +0.000 A 
ATOM     12  C   UNL     1       1.481   2.168  18.885  0.00  0.00    +0.000 A 
ATOM     13  C   UNL     1       1.067   3.280  19.614  0.00  0.00    +0.000 A 
ATOM     14  C   UNL     1       1.737   4.493  19.465  0.00  0.00    +0.000 A 
ATOM     15  C   UNL     1       2.813   4.597  18.580  0.00  0.00    +0.000 A 
ENDBRANCH   9  10
ENDBRANCH   8   9
ENDBRANCH   7   8
ENDBRANCH   3   7
BRANCH   4  16
ATOM     16  C   UNL     1       8.567   9.274  18.392  0.00  0.00    +0.000 C 
BRANCH  16  17
ATOM     17  C   UNL     1       9.021  10.617  17.816  0.00  0.00    +0.000 C 
BRANCH  17  18
ATOM     18  C   UNL     1       9.528  11.581  18.862  0.00  0.00    +0.000 A 
ATOM     19  C   UNL     1       9.398  11.304  20.230  0.00  0.00    +0.000 A 
ATOM     20  C   UNL     1       9.826  12.230  21.188  0.00  0.00    +0.000 A 
ATOM     21  C   UNL     1      10.402  13.437  20.791  0.00  0.00    +0.000 A 
ATOM     22  C   UNL     1      10.558  13.714  19.436  0.00  0.00    +0.000 A 
ATOM     23  C   UNL     1      10.127  12.787  18.487  0.00  0.00    +0.000 A 
ATOM     24  F   UNL     1      10.280  13.078  17.188  0.00  0.00    +0.000 F 
ENDBRANCH  17  18
ENDBRANCH  16  17
ENDBRANCH   4  16
TORSDOF 7
ENDMDL
