MODEL 1
REMARK VINA RESULT:      -7.6      0.000      0.000
REMARK  Name = 
REMARK  10 active torsions:
REMARK  status: ('A' for Active; 'I' for Inactive)
REMARK    1  A    between atoms: C_1  and  C_2
REMARK    2  A    between atoms: C_2  and  C_3
REMARK    3  A    between atoms: C_2  and  C_4
REMARK    4  A    between atoms: C_7  and  N_8
REMARK    5  A    between atoms: C_9  and  C_11
REMARK    6  A    between atoms: C_11  and  N_12
REMARK    7  A    between atoms: C_15  and  C_16
REMARK    8  A    between atoms: N_18  and  C_19
REMARK    9  A    between atoms: C_19  and  C_20
REMARK   10  A    between atoms: C_27  and  N_28
REMARK                            x       y       z     vdW  Elec       q    Type
REMARK                         _______ _______ _______ _____ _____    ______ ____
ROOT
ATOM      1  N   UNL     1       2.134   7.565  19.285  0.00  0.00    +0.000 N 
ATOM      2  N   UNL     1       2.178   8.016  18.015  0.00  0.00    +0.000 NA
ATOM      3  N   UNL     1       1.653   9.231  18.009  0.00  0.00    +0.000 NA
ATOM      4  C   UNL     1       1.293   9.560  19.302  0.00  0.00    +0.000 A 
ATOM      5  C   UNL     1       1.599   8.499  20.138  0.00  0.00    +0.000 A 
ENDROOT
BRANCH   4   6
ATOM      6  C   UNL     1       0.706  10.854  19.635  0.00  0.00    +0.000 C 
ATOM      7  O   UNL     1       0.293  11.142  20.756  0.00  0.00    +0.000 OA
ATOM      8  N   UNL     1       0.669  11.719  18.564  0.00  0.00    +0.000 N 
ATOM      9  H   UNL     1       1.053  11.387  17.686  0.00  0.00    +0.000 HD
BRANCH   8  10
ATOM     10  C   UNL     1       0.217  13.085  18.653  0.00  0.00    +0.000 C 
BRANCH  10  11
ATOM     11  C   UNL     1       1.392  14.030  18.662  0.00  0.00    +0.000 A 
ATOM     12  C   UNL     1       1.208  15.408  18.860  0.00  0.00    +0.000 A 
ATOM     13  C   UNL     1       2.298  16.282  18.829  0.00  0.00    +0.000 A 
ATOM     14  C   UNL     1       3.578  15.780  18.596  0.00  0.00    +0.000 A 
ATOM     15 CL   UNL     1       4.921  16.858  18.553  0.00  0.00    +0.000 Cl
ATOM     16  C   UNL     1       3.776  14.418  18.393  0.00  0.00    +0.000 A 
ATOM     17  C   UNL     1       2.687  13.547  18.421  0.00  0.00    +0.000 A 
ENDBRANCH  10  11
ENDBRANCH   8  10
ENDBRANCH   4   6
BRANCH   5  18
ATOM     18  N   UNL     1       1.446   8.294  21.467  0.00  0.00    +0.000 N 
ATOM     19  H   UNL     1       2.274   8.127  22.047  0.00  0.00    +0.000 HD
ATOM     20  H   UNL     1       0.588   7.950  21.896  0.00  0.00    +0.000 HD
ENDBRANCH   5  18
BRANCH   1  21
ATOM     21  C   UNL     1       2.589   6.225  19.566  0.00  0.00    +0.000 C 
BRANCH  21  23
ATOM     22  N   UNL     1       4.237   5.915  17.799  0.00  0.00    +0.000 N 
ATOM     23  C   UNL     1       3.012   5.507  18.307  0.00  0.00    +0.000 C 
ATOM     24  O   UNL     1       2.273   4.655  17.817  0.00  0.00    +0.000 OA
ATOM     25  H   UNL     1       4.821   6.488  18.404  0.00  0.00    +0.000 HD
BRANCH  22  29
ATOM     26  C   UNL     1       5.983   4.258  14.307  0.00  0.00    +0.000 A 
ATOM     27  C   UNL     1       5.682   5.625  14.357  0.00  0.00    +0.000 A 
ATOM     28  C   UNL     1       5.127   6.197  15.508  0.00  0.00    +0.000 A 
ATOM     29  C   UNL     1       4.860   5.417  16.634  0.00  0.00    +0.000 A 
ATOM     30  C   UNL     1       5.215   4.065  16.611  0.00  0.00    +0.000 A 
ATOM     31  C   UNL     1       5.756   3.488  15.456  0.00  0.00    +0.000 A 
BRANCH  26  33
ATOM     32  C   UNL     1       5.383   3.131  12.126  0.00  0.00    +0.000 C 
ATOM     33  C   UNL     1       6.511   3.648  13.021  0.00  0.00    +0.000 C 
ATOM     34  C   UNL     1       7.399   4.641  12.263  0.00  0.00    +0.000 C 
ENDBRANCH  26  33
ENDBRANCH  22  29
ENDBRANCH  21  23
ENDBRANCH   1  21
TORSDOF 8
ENDMDL
MODEL 2
REMARK VINA RESULT:      -7.6      3.212      4.102
REMARK  Name = 
REMARK  10 active torsions:
REMARK  status: ('A' for Active; 'I' for Inactive)
REMARK    1  A    between atoms: C_1  and  C_2
REMARK    2  A    between atoms: C_2  and  C_3
REMARK    3  A    between atoms: C_2  and  C_4
REMARK    4  A    between atoms: C_7  and  N_8
REMARK    5  A    between atoms: C_9  and  C_11
REMARK    6  A    between atoms: C_11  and  N_12
REMARK    7  A    between atoms: C_15  and  C_16
REMARK    8  A    between atoms: N_18  and  C_19
REMARK    9  A    between atoms: C_19  and  C_20
REMARK   10  A    between atoms: C_27  and  N_28
REMARK                            x       y       z     vdW  Elec       q    Type
REMARK                         _______ _______ _______ _____ _____    ______ ____
ROOT
ATOM      1  N   UNL     1       2.253   7.270  19.552  0.00  0.00    +0.000 N 
ATOM      2  N   UNL     1       2.266   7.627  18.251  0.00  0.00    +0.000 NA
ATOM      3  N   UNL     1       1.623   8.779  18.152  0.00  0.00    +0.000 NA
ATOM      4  C   UNL     1       1.219   9.167  19.415  0.00  0.00    +0.000 A 
ATOM      5  C   UNL     1       1.619   8.207  20.329  0.00  0.00    +0.000 A 
ENDROOT
BRANCH   4   6
ATOM      6  C   UNL     1       0.504  10.417  19.648  0.00  0.00    +0.000 C 
ATOM      7  O   UNL     1       0.442  10.968  20.745  0.00  0.00    +0.000 OA
ATOM      8  N   UNL     1      -0.091  10.917  18.510  0.00  0.00    +0.000 N 
ATOM      9  H   UNL     1       0.037  10.391  17.652  0.00  0.00    +0.000 HD
BRANCH   8  10
ATOM     10  C   UNL     1      -0.783  12.181  18.456  0.00  0.00    +0.000 C 
BRANCH  10  11
ATOM     11  C   UNL     1      -2.272  11.962  18.369  0.00  0.00    +0.000 A 
ATOM     12  C   UNL     1      -3.113  12.285  19.447  0.00  0.00    +0.000 A 
ATOM     13  C   UNL     1      -4.487  12.045  19.372  0.00  0.00    +0.000 A 
ATOM     14  C   UNL     1      -5.026  11.474  18.220  0.00  0.00    +0.000 A 
ATOM     15 CL   UNL     1      -6.720  11.173  18.130  0.00  0.00    +0.000 Cl
ATOM     16  C   UNL     1      -4.207  11.144  17.145  0.00  0.00    +0.000 A 
ATOM     17  C   UNL     1      -2.834  11.382  17.222  0.00  0.00    +0.000 A 
ENDBRANCH  10  11
ENDBRANCH   8  10
ENDBRANCH   4   6
BRANCH   5  18
ATOM     18  N   UNL     1       1.473   8.088  21.670  0.00  0.00    +0.000 N 
ATOM     19  H   UNL     1       2.050   8.664  22.290  0.00  0.00    +0.000 HD
ATOM     20  H   UNL     1       1.106   7.257  22.132  0.00  0.00    +0.000 HD
ENDBRANCH   5  18
BRANCH   1  21
ATOM     21  C   UNL     1       2.836   6.007  19.934  0.00  0.00    +0.000 C 
BRANCH  21  23
ATOM     22  N   UNL     1       3.673   5.564  17.690  0.00  0.00    +0.000 N 
ATOM     23  C   UNL     1       3.993   5.635  19.039  0.00  0.00    +0.000 C 
ATOM     24  O   UNL     1       5.096   5.410  19.533  0.00  0.00    +0.000 OA
ATOM     25  H   UNL     1       2.778   5.956  17.406  0.00  0.00    +0.000 HD
BRANCH  22  29
ATOM     26  C   UNL     1       6.211   4.409  14.494  0.00  0.00    +0.000 A 
ATOM     27  C   UNL     1       5.928   5.764  14.707  0.00  0.00    +0.000 A 
ATOM     28  C   UNL     1       5.111   6.169  15.770  0.00  0.00    +0.000 A 
ATOM     29  C   UNL     1       4.560   5.230  16.643  0.00  0.00    +0.000 A 
ATOM     30  C   UNL     1       4.888   3.882  16.471  0.00  0.00    +0.000 A 
ATOM     31  C   UNL     1       5.692   3.474  15.400  0.00  0.00    +0.000 A 
BRANCH  26  33
ATOM     32  C   UNL     1       6.170   3.364  12.194  0.00  0.00    +0.000 C 
ATOM     33  C   UNL     1       7.034   3.991  13.289  0.00  0.00    +0.000 C 
ATOM     34  C   UNL     1       7.845   5.169  12.738  0.00  0.00    +0.000 C 
ENDBRANCH  26  33
ENDBRANCH  22  29
ENDBRANCH  21  23
ENDBRANCH   1  21
TORSDOF 8
ENDMDL
MODEL 3
REMARK VINA RESULT:      -7.5      5.947     10.103
REMARK  Name = 
REMARK  10 active torsions:
REMARK  status: ('A' for Active; 'I' for Inactive)
REMARK    1  A    between atoms: C_1  and  C_2
REMARK    2  A    between atoms: C_2  and  C_3
REMARK    3  A    between atoms: C_2  and  C_4
REMARK    4  A    between atoms: C_7  and  N_8
REMARK    5  A    between atoms: C_9  and  C_11
REMARK    6  A    between atoms: C_11  and  N_12
REMARK    7  A    between atoms: C_15  and  C_16
REMARK    8  A    between atoms: N_18  and  C_19
REMARK    9  A    between atoms: C_19  and  C_20
REMARK   10  A    between atoms: C_27  and  N_28
REMARK                            x       y       z     vdW  Elec       q    Type
REMARK                         _______ _______ _______ _____ _____    ______ ____
ROOT
ATOM      1  N   UNL     1       7.798   6.950  17.972  0.00  0.00    +0.000 N 
ATOM      2  N   UNL     1       7.904   7.158  16.643  0.00  0.00    +0.000 NA
ATOM      3  N   UNL     1       7.143   6.258  16.041  0.00  0.00    +0.000 NA
ATOM      4  C   UNL     1       6.527   5.486  17.008  0.00  0.00    +0.000 A 
ATOM      5  C   UNL     1       6.936   5.920  18.257  0.00  0.00    +0.000 A 
ENDROOT
BRANCH   4   6
ATOM      6  C   UNL     1       5.595   4.416  16.665  0.00  0.00    +0.000 C 
ATOM      7  O   UNL     1       5.908   3.434  15.998  0.00  0.00    +0.000 OA
ATOM      8  N   UNL     1       4.332   4.622  17.174  0.00  0.00    +0.000 N 
ATOM      9  H   UNL     1       4.185   5.458  17.728  0.00  0.00    +0.000 HD
BRANCH   8  10
ATOM     10  C   UNL     1       3.254   3.671  17.051  0.00  0.00    +0.000 C 
BRANCH  10  11
ATOM     11  C   UNL     1       2.682   3.344  18.407  0.00  0.00    +0.000 A 
ATOM     12  C   UNL     1       3.521   3.011  19.482  0.00  0.00    +0.000 A 
ATOM     13  C   UNL     1       2.982   2.673  20.726  0.00  0.00    +0.000 A 
ATOM     14  C   UNL     1       1.598   2.662  20.898  0.00  0.00    +0.000 A 
ATOM     15 CL   UNL     1       0.933   2.240  22.430  0.00  0.00    +0.000 Cl
ATOM     16  C   UNL     1       0.753   2.985  19.841  0.00  0.00    +0.000 A 
ATOM     17  C   UNL     1       1.293   3.320  18.599  0.00  0.00    +0.000 A 
ENDBRANCH  10  11
ENDBRANCH   8  10
ENDBRANCH   4   6
BRANCH   5  18
ATOM     18  N   UNL     1       6.653   5.513  19.517  0.00  0.00    +0.000 N 
ATOM     19  H   UNL     1       6.247   6.180  20.180  0.00  0.00    +0.000 HD
ATOM     20  H   UNL     1       7.109   4.727  19.978  0.00  0.00    +0.000 HD
ENDBRANCH   5  18
BRANCH   1  21
ATOM     21  C   UNL     1       8.585   7.760  18.869  0.00  0.00    +0.000 C 
BRANCH  21  23
ATOM     22  N   UNL     1       9.535   9.995  19.068  0.00  0.00    +0.000 N 
ATOM     23  C   UNL     1       8.545   9.219  18.481  0.00  0.00    +0.000 C 
ATOM     24  O   UNL     1       7.669   9.621  17.717  0.00  0.00    +0.000 OA
ATOM     25  H   UNL     1      10.299   9.502  19.524  0.00  0.00    +0.000 HD
BRANCH  22  29
ATOM     26  C   UNL     1      10.018  14.142  18.328  0.00  0.00    +0.000 A 
ATOM     27  C   UNL     1       9.464  13.708  19.538  0.00  0.00    +0.000 A 
ATOM     28  C   UNL     1       9.316  12.344  19.812  0.00  0.00    +0.000 A 
ATOM     29  C   UNL     1       9.719  11.383  18.885  0.00  0.00    +0.000 A 
ATOM     30  C   UNL     1      10.329  11.809  17.701  0.00  0.00    +0.000 A 
ATOM     31  C   UNL     1      10.464  13.173  17.418  0.00  0.00    +0.000 A 
BRANCH  26  33
ATOM     32  C   UNL     1      10.986  15.920  16.814  0.00  0.00    +0.000 C 
ATOM     33  C   UNL     1      10.095  15.628  18.022  0.00  0.00    +0.000 C 
ATOM     34  C   UNL     1       8.696  16.223  17.826  0.00  0.00    +0.000 C 
ENDBRANCH  26  33
ENDBRANCH  22  29
ENDBRANCH  21  23
ENDBRANCH   1  21
TORSDOF 8
ENDMDL
MODEL 4
REMARK VINA RESULT:      -7.5      3.930      7.772
REMARK  Name = 
REMARK  10 active torsions:
REMARK  status: ('A' for Active; 'I' for Inactive)
REMARK    1  A    between atoms: C_1  and  C_2
REMARK    2  A    between atoms: C_2  and  C_3
REMARK    3  A    between atoms: C_2  and  C_4
REMARK    4  A    between atoms: C_7  and  N_8
REMARK    5  A    between atoms: C_9  and  C_11
REMARK    6  A    between atoms: C_11  and  N_12
REMARK    7  A    between atoms: C_15  and  C_16
REMARK    8  A    between atoms: N_18  and  C_19
REMARK    9  A    between atoms: C_19  and  C_20
REMARK   10  A    between atoms: C_27  and  N_28
REMARK                            x       y       z     vdW  Elec       q    Type
REMARK                         _______ _______ _______ _____ _____    ______ ____
ROOT
ATOM      1  N   UNL     1       5.020   5.016  19.035  0.00  0.00    +0.000 N 
ATOM      2  N   UNL     1       6.059   4.916  19.889  0.00  0.00    +0.000 NA
ATOM      3  N   UNL     1       7.065   5.602  19.370  0.00  0.00    +0.000 NA
ATOM      4  C   UNL     1       6.644   6.164  18.180  0.00  0.00    +0.000 A 
ATOM      5  C   UNL     1       5.328   5.799  17.950  0.00  0.00    +0.000 A 
ENDROOT
BRANCH   4   6
ATOM      6  C   UNL     1       7.518   7.009  17.372  0.00  0.00    +0.000 C 
ATOM      7  O   UNL     1       7.938   6.686  16.263  0.00  0.00    +0.000 OA
ATOM      8  N   UNL     1       7.819   8.208  17.981  0.00  0.00    +0.000 N 
ATOM      9  H   UNL     1       7.405   8.383  18.890  0.00  0.00    +0.000 HD
BRANCH   8  10
ATOM     10  C   UNL     1       8.592   9.252  17.355  0.00  0.00    +0.000 C 
BRANCH  10  11
ATOM     11  C   UNL     1       8.882  10.356  18.341  0.00  0.00    +0.000 A 
ATOM     12  C   UNL     1       8.859  11.702  17.943  0.00  0.00    +0.000 A 
ATOM     13  C   UNL     1       9.166  12.717  18.852  0.00  0.00    +0.000 A 
ATOM     14  C   UNL     1       9.503  12.388  20.165  0.00  0.00    +0.000 A 
ATOM     15 CL   UNL     1       9.886  13.639  21.286  0.00  0.00    +0.000 Cl
ATOM     16  C   UNL     1       9.534  11.058  20.574  0.00  0.00    +0.000 A 
ATOM     17  C   UNL     1       9.231  10.046  19.664  0.00  0.00    +0.000 A 
ENDBRANCH  10  11
ENDBRANCH   8  10
ENDBRANCH   4   6
BRANCH   5  18
ATOM     18  N   UNL     1       4.457   6.059  16.947  0.00  0.00    +0.000 N 
ATOM     19  H   UNL     1       4.406   5.420  16.148  0.00  0.00    +0.000 HD
ATOM     20  H   UNL     1       4.095   6.988  16.732  0.00  0.00    +0.000 HD
ENDBRANCH   5  18
BRANCH   1  21
ATOM     21  C   UNL     1       3.803   4.300  19.330  0.00  0.00    +0.000 C 
BRANCH  21  23
ATOM     22  N   UNL     1       2.899   6.503  19.842  0.00  0.00    +0.000 N 
ATOM     23  C   UNL     1       2.612   5.227  19.379  0.00  0.00    +0.000 C 
ATOM     24  O   UNL     1       1.505   4.812  19.041  0.00  0.00    +0.000 OA
ATOM     25  H   UNL     1       3.881   6.762  19.906  0.00  0.00    +0.000 HD
BRANCH  22  29
ATOM     26  C   UNL     1       0.193   9.703  20.493  0.00  0.00    +0.000 A 
ATOM     27  C   UNL     1       0.860   9.591  19.267  0.00  0.00    +0.000 A 
ATOM     28  C   UNL     1       1.741   8.530  19.023  0.00  0.00    +0.000 A 
ATOM     29  C   UNL     1       1.973   7.558  19.996  0.00  0.00    +0.000 A 
ATOM     30  C   UNL     1       1.263   7.632  21.199  0.00  0.00    +0.000 A 
ATOM     31  C   UNL     1       0.394   8.700  21.451  0.00  0.00    +0.000 A 
BRANCH  26  33
ATOM     32  C   UNL     1       0.075  12.052  21.418  0.00  0.00    +0.000 C 
ATOM     33  C   UNL     1      -0.695  10.905  20.761  0.00  0.00    +0.000 C 
ATOM     34  C   UNL     1      -1.388  11.377  19.478  0.00  0.00    +0.000 C 
ENDBRANCH  26  33
ENDBRANCH  22  29
ENDBRANCH  21  23
ENDBRANCH   1  21
TORSDOF 8
ENDMDL
MODEL 5
REMARK VINA RESULT:      -7.5      4.490      9.715
REMARK  Name = 
REMARK  10 active torsions:
REMARK  status: ('A' for Active; 'I' for Inactive)
REMARK    1  A    between atoms: C_1  and  C_2
REMARK    2  A    between atoms: C_2  and  C_3
REMARK    3  A    between atoms: C_2  and  C_4
REMARK    4  A    between atoms: C_7  and  N_8
REMARK    5  A    between atoms: C_9  and  C_11
REMARK    6  A    between atoms: C_11  and  N_12
REMARK    7  A    between atoms: C_15  and  C_16
REMARK    8  A    between atoms: N_18  and  C_19
REMARK    9  A    between atoms: C_19  and  C_20
REMARK   10  A    between atoms: C_27  and  N_28
REMARK                            x       y       z     vdW  Elec       q    Type
REMARK                         _______ _______ _______ _____ _____    ______ ____
ROOT
ATOM      1  N   UNL     1       4.578   4.299  19.373  0.00  0.00    +0.000 N 
ATOM      2  N   UNL     1       5.598   4.839  20.070  0.00  0.00    +0.000 NA
ATOM      3  N   UNL     1       6.596   5.035  19.224  0.00  0.00    +0.000 NA
ATOM      4  C   UNL     1       6.189   4.634  17.966  0.00  0.00    +0.000 A 
ATOM      5  C   UNL     1       4.891   4.159  18.043  0.00  0.00    +0.000 A 
ENDROOT
BRANCH   4   6
ATOM      6  C   UNL     1       7.059   4.748  16.799  0.00  0.00    +0.000 C 
ATOM      7  O   UNL     1       8.152   4.195  16.712  0.00  0.00    +0.000 OA
ATOM      8  N   UNL     1       6.522   5.536  15.804  0.00  0.00    +0.000 N 
ATOM      9  H   UNL     1       5.603   5.931  15.971  0.00  0.00    +0.000 HD
BRANCH   8  10
ATOM     10  C   UNL     1       7.143   5.736  14.518  0.00  0.00    +0.000 C 
BRANCH  10  11
ATOM     11  C   UNL     1       6.713   4.661  13.553  0.00  0.00    +0.000 A 
ATOM     12  C   UNL     1       5.458   4.042  13.675  0.00  0.00    +0.000 A 
ATOM     13  C   UNL     1       5.082   3.020  12.800  0.00  0.00    +0.000 A 
ATOM     14  C   UNL     1       5.963   2.609  11.800  0.00  0.00    +0.000 A 
ATOM     15 CL   UNL     1       5.502   1.345  10.724  0.00  0.00    +0.000 Cl
ATOM     16  C   UNL     1       7.212   3.208  11.669  0.00  0.00    +0.000 A 
ATOM     17  C   UNL     1       7.588   4.226  12.546  0.00  0.00    +0.000 A 
ENDBRANCH  10  11
ENDBRANCH   8  10
ENDBRANCH   4   6
BRANCH   5  18
ATOM     18  N   UNL     1       4.038   3.644  17.127  0.00  0.00    +0.000 N 
ATOM     19  H   UNL     1       4.125   3.925  16.146  0.00  0.00    +0.000 HD
ATOM     20  H   UNL     1       3.112   3.279  17.351  0.00  0.00    +0.000 HD
ENDBRANCH   5  18
BRANCH   1  21
ATOM     21  C   UNL     1       3.375   3.922  20.074  0.00  0.00    +0.000 C 
BRANCH  21  23
ATOM     22  N   UNL     1       2.875   6.286  19.766  0.00  0.00    +0.000 N 
ATOM     23  C   UNL     1       2.354   5.034  20.062  0.00  0.00    +0.000 C 
ATOM     24  O   UNL     1       1.178   4.782  20.320  0.00  0.00    +0.000 OA
ATOM     25  H   UNL     1       3.820   6.317  19.392  0.00  0.00    +0.000 HD
BRANCH  22  29
ATOM     26  C   UNL     1       0.602   9.847  19.387  0.00  0.00    +0.000 A 
ATOM     27  C   UNL     1       0.694   9.205  20.628  0.00  0.00    +0.000 A 
ATOM     28  C   UNL     1       1.457   8.042  20.781  0.00  0.00    +0.000 A 
ATOM     29  C   UNL     1       2.146   7.494  19.698  0.00  0.00    +0.000 A 
ATOM     30  C   UNL     1       2.106   8.163  18.471  0.00  0.00    +0.000 A 
ATOM     31  C   UNL     1       1.332   9.319  18.313  0.00  0.00    +0.000 A 
BRANCH  26  33
ATOM     32  C   UNL     1      -1.427  10.814  18.232  0.00  0.00    +0.000 C 
ATOM     33  C   UNL     1      -0.295  11.062  19.231  0.00  0.00    +0.000 C 
ATOM     34  C   UNL     1      -0.850  11.516  20.584  0.00  0.00    +0.000 C 
ENDBRANCH  26  33
ENDBRANCH  22  29
ENDBRANCH  21  23
ENDBRANCH   1  21
TORSDOF 8
ENDMDL
MODEL 6
REMARK VINA RESULT:      -7.4      4.104     10.153
REMARK  Name = 
REMARK  10 active torsions:
REMARK  status: ('A' for Active; 'I' for Inactive)
REMARK    1  A    between atoms: C_1  and  C_2
REMARK    2  A    between atoms: C_2  and  C_3
REMARK    3  A    between atoms: C_2  and  C_4
REMARK    4  A    between atoms: C_7  and  N_8
REMARK    5  A    between atoms: C_9  and  C_11
REMARK    6  A    between atoms: C_11  and  N_12
REMARK    7  A    between atoms: C_15  and  C_16
REMARK    8  A    between atoms: N_18  and  C_19
REMARK    9  A    between atoms: C_19  and  C_20
REMARK   10  A    between atoms: C_27  and  N_28
REMARK                            x       y       z     vdW  Elec       q    Type
REMARK                         _______ _______ _______ _____ _____    ______ ____
ROOT
ATOM      1  N   UNL     1       1.668   9.415  19.052  0.00  0.00    +0.000 N 
ATOM      2  N   UNL     1       2.001   9.581  17.756  0.00  0.00    +0.000 NA
ATOM      3  N   UNL     1       2.524   8.441  17.333  0.00  0.00    +0.000 NA
ATOM      4  C   UNL     1       2.498   7.534  18.375  0.00  0.00    +0.000 A 
ATOM      5  C   UNL     1       1.947   8.144  19.489  0.00  0.00    +0.000 A 
ENDROOT
BRANCH   4   6
ATOM      6  C   UNL     1       2.983   6.166  18.221  0.00  0.00    +0.000 C 
ATOM      7  O   UNL     1       2.257   5.218  17.931  0.00  0.00    +0.000 OA
ATOM      8  N   UNL     1       4.340   6.050  18.430  0.00  0.00    +0.000 N 
ATOM      9  H   UNL     1       4.849   6.899  18.647  0.00  0.00    +0.000 HD
BRANCH   8  10
ATOM     10  C   UNL     1       5.075   4.822  18.254  0.00  0.00    +0.000 C 
BRANCH  10  11
ATOM     11  C   UNL     1       5.665   4.756  16.867  0.00  0.00    +0.000 A 
ATOM     12  C   UNL     1       6.873   5.405  16.566  0.00  0.00    +0.000 A 
ATOM     13  C   UNL     1       7.394   5.370  15.271  0.00  0.00    +0.000 A 
ATOM     14  C   UNL     1       6.704   4.690  14.268  0.00  0.00    +0.000 A 
ATOM     15 CL   UNL     1       7.343   4.652  12.668  0.00  0.00    +0.000 Cl
ATOM     16  C   UNL     1       5.503   4.046  14.548  0.00  0.00    +0.000 A 
ATOM     17  C   UNL     1       4.983   4.083  15.842  0.00  0.00    +0.000 A 
ENDBRANCH  10  11
ENDBRANCH   8  10
ENDBRANCH   4   6
BRANCH   5  18
ATOM     18  N   UNL     1       1.705   7.720  20.751  0.00  0.00    +0.000 N 
ATOM     19  H   UNL     1       1.043   6.953  20.905  0.00  0.00    +0.000 HD
ATOM     20  H   UNL     1       1.840   8.295  21.582  0.00  0.00    +0.000 HD
ENDBRANCH   5  18
BRANCH   1  21
ATOM     21  C   UNL     1       1.130  10.536  19.783  0.00  0.00    +0.000 C 
BRANCH  21  23
ATOM     22  N   UNL     1      -1.026  11.154  18.833  0.00  0.00    +0.000 N 
ATOM     23  C   UNL     1      -0.377  10.479  19.858  0.00  0.00    +0.000 C 
ATOM     24  O   UNL     1      -0.917   9.882  20.787  0.00  0.00    +0.000 OA
ATOM     25  H   UNL     1      -0.461  11.440  18.037  0.00  0.00    +0.000 HD
BRANCH  22  29
ATOM     26  C   UNL     1      -5.203  11.696  18.340  0.00  0.00    +0.000 A 
ATOM     27  C   UNL     1      -4.531  10.726  17.587  0.00  0.00    +0.000 A 
ATOM     28  C   UNL     1      -3.156  10.515  17.750  0.00  0.00    +0.000 A 
ATOM     29  C   UNL     1      -2.424  11.267  18.669  0.00  0.00    +0.000 A 
ATOM     30  C   UNL     1      -3.101  12.195  19.466  0.00  0.00    +0.000 A 
ATOM     31  C   UNL     1      -4.473  12.419  19.294  0.00  0.00    +0.000 A 
BRANCH  26  33
ATOM     32  C   UNL     1      -7.435  12.264  19.380  0.00  0.00    +0.000 C 
ATOM     33  C   UNL     1      -6.677  11.960  18.087  0.00  0.00    +0.000 C 
ATOM     34  C   UNL     1      -6.869  13.084  17.064  0.00  0.00    +0.000 C 
ENDBRANCH  26  33
ENDBRANCH  22  29
ENDBRANCH  21  23
ENDBRANCH   1  21
TORSDOF 8
ENDMDL
MODEL 7
REMARK VINA RESULT:      -7.4      3.881      9.888
REMARK  Name = 
REMARK  10 active torsions:
REMARK  status: ('A' for Active; 'I' for Inactive)
REMARK    1  A    between atoms: C_1  and  C_2
REMARK    2  A    between atoms: C_2  and  C_3
REMARK    3  A    between atoms: C_2  and  C_4
REMARK    4  A    between atoms: C_7  and  N_8
REMARK    5  A    between atoms: C_9  and  C_11
REMARK    6  A    between atoms: C_11  and  N_12
REMARK    7  A    between atoms: C_15  and  C_16
REMARK    8  A    between atoms: N_18  and  C_19
REMARK    9  A    between atoms: C_19  and  C_20
REMARK   10  A    between atoms: C_27  and  N_28
REMARK                            x       y       z     vdW  Elec       q    Type
REMARK                         _______ _______ _______ _____ _____    ______ ____
ROOT
ATOM      1  N   UNL     1       1.769   8.374  19.865  0.00  0.00    +0.000 N 
ATOM      2  N   UNL     1       1.478   7.562  20.902  0.00  0.00    +0.000 NA
ATOM      3  N   UNL     1       1.753   6.324  20.523  0.00  0.00    +0.000 NA
ATOM      4  C   UNL     1       2.249   6.359  19.234  0.00  0.00    +0.000 A 
ATOM      5  C   UNL     1       2.269   7.673  18.796  0.00  0.00    +0.000 A 
ENDROOT
BRANCH   4   6
ATOM      6  C   UNL     1       2.674   5.151  18.535  0.00  0.00    +0.000 C 
ATOM      7  O   UNL     1       1.977   4.564  17.711  0.00  0.00    +0.000 OA
ATOM      8  N   UNL     1       3.939   4.740  18.893  0.00  0.00    +0.000 N 
ATOM      9  H   UNL     1       4.436   5.307  19.571  0.00  0.00    +0.000 HD
BRANCH   8  10
ATOM     10  C   UNL     1       4.622   3.625  18.284  0.00  0.00    +0.000 C 
BRANCH  10  11
ATOM     11  C   UNL     1       5.388   4.078  17.067  0.00  0.00    +0.000 A 
ATOM     12  C   UNL     1       4.852   3.920  15.778  0.00  0.00    +0.000 A 
ATOM     13  C   UNL     1       5.583   4.307  14.653  0.00  0.00    +0.000 A 
ATOM     14  C   UNL     1       6.858   4.849  14.812  0.00  0.00    +0.000 A 
ATOM     15 CL   UNL     1       7.763   5.322  13.424  0.00  0.00    +0.000 Cl
ATOM     16  C   UNL     1       7.406   5.007  16.081  0.00  0.00    +0.000 A 
ATOM     17  C   UNL     1       6.675   4.618  17.204  0.00  0.00    +0.000 A 
ENDBRANCH  10  11
ENDBRANCH   8  10
ENDBRANCH   4   6
BRANCH   5  18
ATOM     18  N   UNL     1       2.641   8.255  17.632  0.00  0.00    +0.000 N 
ATOM     19  H   UNL     1       3.003   9.213  17.644  0.00  0.00    +0.000 HD
ATOM     20  H   UNL     1       2.285   7.980  16.717  0.00  0.00    +0.000 HD
ENDBRANCH   5  18
BRANCH   1  21
ATOM     21  C   UNL     1       1.499   9.786  19.988  0.00  0.00    +0.000 C 
BRANCH  21  23
ATOM     22  N   UNL     1      -0.507  10.385  18.743  0.00  0.00    +0.000 N 
ATOM     23  C   UNL     1       0.016  10.070  19.990  0.00  0.00    +0.000 C 
ATOM     24  O   UNL     1      -0.611  10.026  21.047  0.00  0.00    +0.000 OA
ATOM     25  H   UNL     1       0.082  10.201  17.935  0.00  0.00    +0.000 HD
BRANCH  22  29
ATOM     26  C   UNL     1      -4.601  11.136  17.929  0.00  0.00    +0.000 A 
ATOM     27  C   UNL     1      -3.890  11.990  18.780  0.00  0.00    +0.000 A 
ATOM     28  C   UNL     1      -2.532  11.774  19.045  0.00  0.00    +0.000 A 
ATOM     29  C   UNL     1      -1.855  10.701  18.464  0.00  0.00    +0.000 A 
ATOM     30  C   UNL     1      -2.545   9.880  17.566  0.00  0.00    +0.000 A 
ATOM     31  C   UNL     1      -3.906  10.086  17.312  0.00  0.00    +0.000 A 
BRANCH  26  33
ATOM     32  C   UNL     1      -6.914  10.821  18.899  0.00  0.00    +0.000 C 
ATOM     33  C   UNL     1      -6.091  11.346  17.721  0.00  0.00    +0.000 C 
ATOM     34  C   UNL     1      -6.407  12.820  17.446  0.00  0.00    +0.000 C 
ENDBRANCH  26  33
ENDBRANCH  22  29
ENDBRANCH  21  23
ENDBRANCH   1  21
TORSDOF 8
ENDMDL
MODEL 8
REMARK VINA RESULT:      -7.3      3.210      4.083
REMARK  Name = 
REMARK  10 active torsions:
REMARK  status: ('A' for Active; 'I' for Inactive)
REMARK    1  A    between atoms: C_1  and  C_2
REMARK    2  A    between atoms: C_2  and  C_3
REMARK    3  A    between atoms: C_2  and  C_4
REMARK    4  A    between atoms: C_7  and  N_8
REMARK    5  A    between atoms: C_9  and  C_11
REMARK    6  A    between atoms: C_11  and  N_12
REMARK    7  A    between atoms: C_15  and  C_16
REMARK    8  A    between atoms: N_18  and  C_19
REMARK    9  A    between atoms: C_19  and  C_20
REMARK   10  A    between atoms: C_27  and  N_28
REMARK                            x       y       z     vdW  Elec       q    Type
REMARK                         _______ _______ _______ _____ _____    ______ ____
ROOT
ATOM      1  N   UNL     1       2.049   7.663  19.597  0.00  0.00    +0.000 N 
ATOM      2  N   UNL     1       2.120   8.048  18.307  0.00  0.00    +0.000 NA
ATOM      3  N   UNL     1       1.648   9.283  18.237  0.00  0.00    +0.000 NA
ATOM      4  C   UNL     1       1.298   9.691  19.510  0.00  0.00    +0.000 A 
ATOM      5  C   UNL     1       1.552   8.660  20.399  0.00  0.00    +0.000 A 
ENDROOT
BRANCH   4   6
ATOM      6  C   UNL     1       0.767  11.025  19.776  0.00  0.00    +0.000 C 
ATOM      7  O   UNL     1       1.466  11.977  20.113  0.00  0.00    +0.000 OA
ATOM      8  N   UNL     1      -0.597  11.103  19.605  0.00  0.00    +0.000 N 
ATOM      9  H   UNL     1      -1.077  10.261  19.308  0.00  0.00    +0.000 HD
BRANCH   8  10
ATOM     10  C   UNL     1      -1.350  12.328  19.722  0.00  0.00    +0.000 C 
BRANCH  10  11
ATOM     11  C   UNL     1      -2.109  12.357  21.025  0.00  0.00    +0.000 A 
ATOM     12  C   UNL     1      -1.554  11.815  22.195  0.00  0.00    +0.000 A 
ATOM     13  C   UNL     1      -2.278  11.811  23.390  0.00  0.00    +0.000 A 
ATOM     14  C   UNL     1      -3.566  12.345  23.417  0.00  0.00    +0.000 A 
ATOM     15 CL   UNL     1      -4.462  12.336  24.888  0.00  0.00    +0.000 Cl
ATOM     16  C   UNL     1      -4.133  12.881  22.265  0.00  0.00    +0.000 A 
ATOM     17  C   UNL     1      -3.409  12.882  21.072  0.00  0.00    +0.000 A 
ENDBRANCH  10  11
ENDBRANCH   8  10
ENDBRANCH   4   6
BRANCH   5  18
ATOM     18  N   UNL     1       1.384   8.528  21.735  0.00  0.00    +0.000 N 
ATOM     19  H   UNL     1       1.300   9.368  22.316  0.00  0.00    +0.000 HD
ATOM     20  H   UNL     1       1.672   7.708  22.269  0.00  0.00    +0.000 HD
ENDBRANCH   5  18
BRANCH   1  21
ATOM     21  C   UNL     1       2.443   6.320  19.947  0.00  0.00    +0.000 C 
BRANCH  21  23
ATOM     22  N   UNL     1       3.400   5.831  17.760  0.00  0.00    +0.000 N 
ATOM     23  C   UNL     1       3.626   5.858  19.129  0.00  0.00    +0.000 C 
ATOM     24  O   UNL     1       4.666   5.530  19.697  0.00  0.00    +0.000 OA
ATOM     25  H   UNL     1       2.566   6.304  17.420  0.00  0.00    +0.000 HD
BRANCH  22  29
ATOM     26  C   UNL     1       6.049   4.503  14.726  0.00  0.00    +0.000 A 
ATOM     27  C   UNL     1       5.926   5.871  14.997  0.00  0.00    +0.000 A 
ATOM     28  C   UNL     1       5.075   6.330  16.009  0.00  0.00    +0.000 A 
ATOM     29  C   UNL     1       4.329   5.433  16.773  0.00  0.00    +0.000 A 
ATOM     30  C   UNL     1       4.492   4.063  16.548  0.00  0.00    +0.000 A 
ATOM     31  C   UNL     1       5.332   3.603  15.526  0.00  0.00    +0.000 A 
BRANCH  26  33
ATOM     32  C   UNL     1       6.101   3.337  12.485  0.00  0.00    +0.000 C 
ATOM     33  C   UNL     1       6.918   4.037  13.571  0.00  0.00    +0.000 C 
ATOM     34  C   UNL     1       7.725   5.200  12.984  0.00  0.00    +0.000 C 
ENDBRANCH  26  33
ENDBRANCH  22  29
ENDBRANCH  21  23
ENDBRANCH   1  21
TORSDOF 8
ENDMDL
MODEL 9
REMARK VINA RESULT:      -7.3      4.201      9.770
REMARK  Name = 
REMARK  10 active torsions:
REMARK  status: ('A' for Active; 'I' for Inactive)
REMARK    1  A    between atoms: C_1  and  C_2
REMARK    2  A    between atoms: C_2  and  C_3
REMARK    3  A    between atoms: C_2  and  C_4
REMARK    4  A    between atoms: C_7  and  N_8
REMARK    5  A    between atoms: C_9  and  C_11
REMARK    6  A    between atoms: C_11  and  N_12
REMARK    7  A    between atoms: C_15  and  C_16
REMARK    8  A    between atoms: N_18  and  C_19
REMARK    9  A    between atoms: C_19  and  C_20
REMARK   10  A    between atoms: C_27  and  N_28
REMARK                            x       y       z     vdW  Elec       q    Type
REMARK                         _______ _______ _______ _____ _____    ______ ____
ROOT
ATOM      1  N   UNL     1       4.532   4.304  19.353  0.00  0.00    +0.000 N 
ATOM      2  N   UNL     1       5.554   4.842  20.049  0.00  0.00    +0.000 NA
ATOM      3  N   UNL     1       6.550   5.038  19.201  0.00  0.00    +0.000 NA
ATOM      4  C   UNL     1       6.140   4.639  17.943  0.00  0.00    +0.000 A 
ATOM      5  C   UNL     1       4.841   4.166  18.023  0.00  0.00    +0.000 A 
ENDROOT
BRANCH   4   6
ATOM      6  C   UNL     1       7.006   4.754  16.774  0.00  0.00    +0.000 C 
ATOM      7  O   UNL     1       8.099   4.200  16.684  0.00  0.00    +0.000 OA
ATOM      8  N   UNL     1       6.467   5.543  15.781  0.00  0.00    +0.000 N 
ATOM      9  H   UNL     1       5.549   5.938  15.951  0.00  0.00    +0.000 HD
BRANCH   8  10
ATOM     10  C   UNL     1       7.085   5.744  14.494  0.00  0.00    +0.000 C 
BRANCH  10  11
ATOM     11  C   UNL     1       6.728   4.618  13.557  0.00  0.00    +0.000 A 
ATOM     12  C   UNL     1       7.605   4.228  12.531  0.00  0.00    +0.000 A 
ATOM     13  C   UNL     1       7.251   3.209  11.643  0.00  0.00    +0.000 A 
ATOM     14  C   UNL     1       6.014   2.579  11.774  0.00  0.00    +0.000 A 
ATOM     15 CL   UNL     1       5.574   1.326  10.676  0.00  0.00    +0.000 Cl
ATOM     16  C   UNL     1       5.132   2.957  12.782  0.00  0.00    +0.000 A 
ATOM     17  C   UNL     1       5.485   3.976  13.666  0.00  0.00    +0.000 A 
ENDBRANCH  10  11
ENDBRANCH   8  10
ENDBRANCH   4   6
BRANCH   5  18
ATOM     18  N   UNL     1       3.985   3.654  17.108  0.00  0.00    +0.000 N 
ATOM     19  H   UNL     1       4.352   3.299  16.220  0.00  0.00    +0.000 HD
ATOM     20  H   UNL     1       2.995   3.891  17.057  0.00  0.00    +0.000 HD
ENDBRANCH   5  18
BRANCH   1  21
ATOM     21  C   UNL     1       3.330   3.928  20.057  0.00  0.00    +0.000 C 
BRANCH  21  23
ATOM     22  N   UNL     1       2.844   6.303  19.823  0.00  0.00    +0.000 N 
ATOM     23  C   UNL     1       2.311   5.042  20.051  0.00  0.00    +0.000 C 
ATOM     24  O   UNL     1       1.127   4.784  20.257  0.00  0.00    +0.000 OA
ATOM     25  H   UNL     1       3.802   6.346  19.485  0.00  0.00    +0.000 HD
BRANCH  22  29
ATOM     26  C   UNL     1       0.583   9.878  19.506  0.00  0.00    +0.000 A 
ATOM     27  C   UNL     1       0.680   9.219  20.738  0.00  0.00    +0.000 A 
ATOM     28  C   UNL     1       1.439   8.050  20.870  0.00  0.00    +0.000 A 
ATOM     29  C   UNL     1       2.119   7.515  19.776  0.00  0.00    +0.000 A 
ATOM     30  C   UNL     1       2.075   8.201  18.559  0.00  0.00    +0.000 A 
ATOM     31  C   UNL     1       1.304   9.361  18.420  0.00  0.00    +0.000 A 
BRANCH  26  33
ATOM     32  C   UNL     1      -0.977  11.470  20.696  0.00  0.00    +0.000 C 
ATOM     33  C   UNL     1      -0.310  11.098  19.371  0.00  0.00    +0.000 C 
ATOM     34  C   UNL     1       0.464  12.288  18.795  0.00  0.00    +0.000 C 
ENDBRANCH  26  33
ENDBRANCH  22  29
ENDBRANCH  21  23
ENDBRANCH   1  21
TORSDOF 8
ENDMDL
