MODEL 1
REMARK VINA RESULT:      -6.9      0.000      0.000
REMARK  Name = 
REMARK  3 active torsions:
REMARK  status: ('A' for Active; 'I' for Inactive)
REMARK    1  A    between atoms: C_1  and  N_2
REMARK    2  A    between atoms: C_7  and  C_9
REMARK    3  A    between atoms: C_10  and  C_11
REMARK                            x       y       z     vdW  Elec       q    Type
REMARK                         _______ _______ _______ _____ _____    ______ ____
ROOT
ATOM      1  C   UNL     1       2.918   4.748  20.334  0.00  0.00    +0.000 C 
ATOM      2  N   UNL     1       3.359   5.167  19.002  0.00  0.00    +0.000 NA
ATOM      3  C   UNL     1       3.607   3.998  18.146  0.00  0.00    +0.000 C 
ATOM      4  C   UNL     1       4.375   4.265  16.845  0.00  0.00    +0.000 C 
ATOM      5  C   UNL     1       5.897   4.234  17.027  0.00  0.00    +0.000 C 
ATOM      6  N   UNL     1       6.437   5.351  17.799  0.00  0.00    +0.000 N 
ATOM      7  C   UNL     1       7.252   6.271  17.143  0.00  0.00    +0.000 C 
ATOM      8  O   UNL     1       7.561   6.182  15.957  0.00  0.00    +0.000 OA
ATOM      9  C   UNL     1       5.877   5.525  19.147  0.00  0.00    +0.000 C 
ATOM     10  C   UNL     1       4.465   6.134  19.088  0.00  0.00    +0.000 C 
ENDROOT
BRANCH   7  11
ATOM     11  C   UNL     1       7.798   7.392  17.953  0.00  0.00    +0.000 C 
ATOM     12  C   UNL     1       7.845   8.644  17.474  0.00  0.00    +0.000 C 
BRANCH  12  13
ATOM     13  C   UNL     1       8.450   9.757  18.226  0.00  0.00    +0.000 A 
ATOM     14  C   UNL     1       9.015   9.563  19.499  0.00  0.00    +0.000 A 
ATOM     15  C   UNL     1       9.589  10.626  20.195  0.00  0.00    +0.000 A 
ATOM     16  C   UNL     1       9.621  11.884  19.611  0.00  0.00    +0.000 A 
ATOM     17  F   UNL     1      10.173  12.907  20.277  0.00  0.00    +0.000 F 
ATOM     18  C   UNL     1       9.092  12.099  18.344  0.00  0.00    +0.000 A 
ATOM     19  C   UNL     1       8.508  11.033  17.648  0.00  0.00    +0.000 A 
ENDBRANCH  12  13
ENDBRANCH   7  11
TORSDOF 2
ENDMDL
MODEL 2
REMARK VINA RESULT:      -6.8      6.045      8.321
REMARK  Name = 
REMARK  3 active torsions:
REMARK  status: ('A' for Active; 'I' for Inactive)
REMARK    1  A    between atoms: C_1  and  N_2
REMARK    2  A    between atoms: C_7  and  C_9
REMARK    3  A    between atoms: C_10  and  C_11
REMARK                            x       y       z     vdW  Elec       q    Type
REMARK                         _______ _______ _______ _____ _____    ______ ____
ROOT
ATOM      1  C   UNL     1      -0.831  10.506  23.186  0.00  0.00    +0.000 C 
ATOM      2  N   UNL     1       0.291  10.833  22.303  0.00  0.00    +0.000 NA
ATOM      3  C   UNL     1      -0.053  11.958  21.422  0.00  0.00    +0.000 C 
ATOM      4  C   UNL     1       0.890  12.199  20.236  0.00  0.00    +0.000 C 
ATOM      5  C   UNL     1       0.538  11.356  19.004  0.00  0.00    +0.000 C 
ATOM      6  N   UNL     1       0.790   9.925  19.160  0.00  0.00    +0.000 N 
ATOM      7  C   UNL     1       1.791   9.345  18.383  0.00  0.00    +0.000 C 
ATOM      8  O   UNL     1       2.458   9.967  17.558  0.00  0.00    +0.000 OA
ATOM      9  C   UNL     1       0.116   9.278  20.294  0.00  0.00    +0.000 C 
ATOM     10  C   UNL     1       0.801   9.631  21.625  0.00  0.00    +0.000 C 
ENDROOT
BRANCH   7  11
ATOM     11  C   UNL     1       2.021   7.886  18.551  0.00  0.00    +0.000 C 
ATOM     12  C   UNL     1       2.828   7.204  17.725  0.00  0.00    +0.000 C 
BRANCH  12  13
ATOM     13  C   UNL     1       3.012   5.746  17.823  0.00  0.00    +0.000 A 
ATOM     14  C   UNL     1       1.914   4.867  17.855  0.00  0.00    +0.000 A 
ATOM     15  C   UNL     1       2.105   3.488  17.942  0.00  0.00    +0.000 A 
ATOM     16  C   UNL     1       3.396   2.981  17.975  0.00  0.00    +0.000 A 
ATOM     17  F   UNL     1       3.583   1.657  18.058  0.00  0.00    +0.000 F 
ATOM     18  C   UNL     1       4.499   3.826  17.920  0.00  0.00    +0.000 A 
ATOM     19  C   UNL     1       4.307   5.210  17.841  0.00  0.00    +0.000 A 
ENDBRANCH  12  13
ENDBRANCH   7  11
TORSDOF 2
ENDMDL
MODEL 3
REMARK VINA RESULT:      -6.8      5.334      6.464
REMARK  Name = 
REMARK  3 active torsions:
REMARK  status: ('A' for Active; 'I' for Inactive)
REMARK    1  A    between atoms: C_1  and  N_2
REMARK    2  A    between atoms: C_7  and  C_9
REMARK    3  A    between atoms: C_10  and  C_11
REMARK                            x       y       z     vdW  Elec       q    Type
REMARK                         _______ _______ _______ _____ _____    ______ ____
ROOT
ATOM      1  C   UNL     1       1.766   2.565  21.599  0.00  0.00    +0.000 C 
ATOM      2  N   UNL     1       2.177   2.939  20.243  0.00  0.00    +0.000 NA
ATOM      3  C   UNL     1       3.618   2.717  20.059  0.00  0.00    +0.000 C 
ATOM      4  C   UNL     1       4.247   3.358  18.815  0.00  0.00    +0.000 C 
ATOM      5  C   UNL     1       4.678   4.812  19.039  0.00  0.00    +0.000 C 
ATOM      6  N   UNL     1       3.571   5.754  19.200  0.00  0.00    +0.000 N 
ATOM      7  C   UNL     1       3.376   6.715  18.211  0.00  0.00    +0.000 C 
ATOM      8  O   UNL     1       4.098   6.830  17.223  0.00  0.00    +0.000 OA
ATOM      9  C   UNL     1       2.624   5.446  20.281  0.00  0.00    +0.000 C 
ATOM     10  C   UNL     1       1.694   4.284  19.893  0.00  0.00    +0.000 C 
ENDROOT
BRANCH   7  11
ATOM     11  C   UNL     1       2.251   7.668  18.403  0.00  0.00    +0.000 C 
ATOM     12  C   UNL     1       2.270   8.893  17.860  0.00  0.00    +0.000 C 
BRANCH  12  13
ATOM     13  C   UNL     1       1.205   9.882  18.099  0.00  0.00    +0.000 A 
ATOM     14  C   UNL     1      -0.148   9.573  17.875  0.00  0.00    +0.000 A 
ATOM     15  C   UNL     1      -1.146  10.519  18.111  0.00  0.00    +0.000 A 
ATOM     16  C   UNL     1      -0.795  11.771  18.593  0.00  0.00    +0.000 A 
ATOM     17  F   UNL     1      -1.752  12.682  18.822  0.00  0.00    +0.000 F 
ATOM     18  C   UNL     1       0.533  12.095  18.847  0.00  0.00    +0.000 A 
ATOM     19  C   UNL     1       1.535  11.148  18.602  0.00  0.00    +0.000 A 
ENDBRANCH  12  13
ENDBRANCH   7  11
TORSDOF 2
ENDMDL
MODEL 4
REMARK VINA RESULT:      -6.7      0.321      1.151
REMARK  Name = 
REMARK  3 active torsions:
REMARK  status: ('A' for Active; 'I' for Inactive)
REMARK    1  A    between atoms: C_1  and  N_2
REMARK    2  A    between atoms: C_7  and  C_9
REMARK    3  A    between atoms: C_10  and  C_11
REMARK                            x       y       z     vdW  Elec       q    Type
REMARK                         _______ _______ _______ _____ _____    ______ ____
ROOT
ATOM      1  C   UNL     1       2.422   4.980  19.803  0.00  0.00    +0.000 C 
ATOM      2  N   UNL     1       3.057   5.298  18.522  0.00  0.00    +0.000 NA
ATOM      3  C   UNL     1       3.420   4.067  17.804  0.00  0.00    +0.000 C 
ATOM      4  C   UNL     1       4.372   4.237  16.613  0.00  0.00    +0.000 C 
ATOM      5  C   UNL     1       5.851   4.228  17.018  0.00  0.00    +0.000 C 
ATOM      6  N   UNL     1       6.279   5.405  17.772  0.00  0.00    +0.000 N 
ATOM      7  C   UNL     1       7.186   6.276  17.174  0.00  0.00    +0.000 C 
ATOM      8  O   UNL     1       7.665   6.097  16.056  0.00  0.00    +0.000 OA
ATOM      9  C   UNL     1       5.528   5.679  19.005  0.00  0.00    +0.000 C 
ATOM     10  C   UNL     1       4.144   6.274  18.694  0.00  0.00    +0.000 C 
ENDROOT
BRANCH   7  11
ATOM     11  C   UNL     1       7.614   7.460  17.966  0.00  0.00    +0.000 C 
ATOM     12  C   UNL     1       8.017   8.592  17.371  0.00  0.00    +0.000 C 
BRANCH  12  13
ATOM     13  C   UNL     1       8.518   9.750  18.131  0.00  0.00    +0.000 A 
ATOM     14  C   UNL     1       8.366  11.064  17.653  0.00  0.00    +0.000 A 
ATOM     15  C   UNL     1       8.841  12.150  18.387  0.00  0.00    +0.000 A 
ATOM     16  C   UNL     1       9.450  11.929  19.613  0.00  0.00    +0.000 A 
ATOM     17  F   UNL     1       9.907  12.971  20.321  0.00  0.00    +0.000 F 
ATOM     18  C   UNL     1       9.591  10.642  20.121  0.00  0.00    +0.000 A 
ATOM     19  C   UNL     1       9.122   9.551  19.380  0.00  0.00    +0.000 A 
ENDBRANCH  12  13
ENDBRANCH   7  11
TORSDOF 2
ENDMDL
MODEL 5
REMARK VINA RESULT:      -6.7      5.880      8.183
REMARK  Name = 
REMARK  3 active torsions:
REMARK  status: ('A' for Active; 'I' for Inactive)
REMARK    1  A    between atoms: C_1  and  N_2
REMARK    2  A    between atoms: C_7  and  C_9
REMARK    3  A    between atoms: C_10  and  C_11
REMARK                            x       y       z     vdW  Elec       q    Type
REMARK                         _______ _______ _______ _____ _____    ______ ____
ROOT
ATOM      1  C   UNL     1      -0.845  10.496  23.149  0.00  0.00    +0.000 C 
ATOM      2  N   UNL     1       0.270  10.902  22.291  0.00  0.00    +0.000 NA
ATOM      3  C   UNL     1      -0.121  12.028  21.431  0.00  0.00    +0.000 C 
ATOM      4  C   UNL     1       0.825  12.348  20.266  0.00  0.00    +0.000 C 
ATOM      5  C   UNL     1       0.535  11.517  19.010  0.00  0.00    +0.000 C 
ATOM      6  N   UNL     1       0.860  10.098  19.135  0.00  0.00    +0.000 N 
ATOM      7  C   UNL     1       1.901   9.591  18.361  0.00  0.00    +0.000 C 
ATOM      8  O   UNL     1       2.545  10.266  17.560  0.00  0.00    +0.000 OA
ATOM      9  C   UNL     1       0.205   9.389  20.243  0.00  0.00    +0.000 C 
ATOM     10  C   UNL     1       0.853   9.745  21.592  0.00  0.00    +0.000 C 
ENDROOT
BRANCH   7  11
ATOM     11  C   UNL     1       2.205   8.141  18.497  0.00  0.00    +0.000 C 
ATOM     12  C   UNL     1       2.965   7.497  17.600  0.00  0.00    +0.000 C 
BRANCH  12  13
ATOM     13  C   UNL     1       3.217   6.048  17.671  0.00  0.00    +0.000 A 
ATOM     14  C   UNL     1       4.511   5.519  17.521  0.00  0.00    +0.000 A 
ATOM     15  C   UNL     1       4.734   4.144  17.596  0.00  0.00    +0.000 A 
ATOM     16  C   UNL     1       3.666   3.294  17.844  0.00  0.00    +0.000 A 
ATOM     17  F   UNL     1       3.877   1.973  17.918  0.00  0.00    +0.000 F 
ATOM     18  C   UNL     1       2.380   3.793  18.021  0.00  0.00    +0.000 A 
ATOM     19  C   UNL     1       2.155   5.172  17.937  0.00  0.00    +0.000 A 
ENDBRANCH  12  13
ENDBRANCH   7  11
TORSDOF 2
ENDMDL
MODEL 6
REMARK VINA RESULT:      -6.6      6.500      8.785
REMARK  Name = 
REMARK  3 active torsions:
REMARK  status: ('A' for Active; 'I' for Inactive)
REMARK    1  A    between atoms: C_1  and  N_2
REMARK    2  A    between atoms: C_7  and  C_9
REMARK    3  A    between atoms: C_10  and  C_11
REMARK                            x       y       z     vdW  Elec       q    Type
REMARK                         _______ _______ _______ _____ _____    ______ ____
ROOT
ATOM      1  C   UNL     1      -0.969  11.434  22.771  0.00  0.00    +0.000 C 
ATOM      2  N   UNL     1       0.292  11.410  22.026  0.00  0.00    +0.000 NA
ATOM      3  C   UNL     1       0.404  12.591  21.158  0.00  0.00    +0.000 C 
ATOM      4  C   UNL     1       1.504  12.541  20.090  0.00  0.00    +0.000 C 
ATOM      5  C   UNL     1       1.058  11.850  18.796  0.00  0.00    +0.000 C 
ATOM      6  N   UNL     1       0.850  10.409  18.921  0.00  0.00    +0.000 N 
ATOM      7  C   UNL     1       1.712   9.557  18.234  0.00  0.00    +0.000 C 
ATOM      8  O   UNL     1       2.624   9.952  17.510  0.00  0.00    +0.000 OA
ATOM      9  C   UNL     1      -0.112   9.990  19.951  0.00  0.00    +0.000 C 
ATOM     10  C   UNL     1       0.492  10.113  21.360  0.00  0.00    +0.000 C 
ENDROOT
BRANCH   7  11
ATOM     11  C   UNL     1       1.472   8.096  18.369  0.00  0.00    +0.000 C 
ATOM     12  C   UNL     1       2.336   7.301  19.017  0.00  0.00    +0.000 C 
BRANCH  12  13
ATOM     13  C   UNL     1       2.161   5.841  19.097  0.00  0.00    +0.000 A 
ATOM     14  C   UNL     1       1.833   5.206  20.308  0.00  0.00    +0.000 A 
ATOM     15  C   UNL     1       1.665   3.822  20.367  0.00  0.00    +0.000 A 
ATOM     16  C   UNL     1       1.802   3.071  19.209  0.00  0.00    +0.000 A 
ATOM     17  F   UNL     1       1.640   1.741  19.262  0.00  0.00    +0.000 F 
ATOM     18  C   UNL     1       2.101   3.676  17.994  0.00  0.00    +0.000 A 
ATOM     19  C   UNL     1       2.278   5.063  17.937  0.00  0.00    +0.000 A 
ENDBRANCH  12  13
ENDBRANCH   7  11
TORSDOF 2
ENDMDL
MODEL 7
REMARK VINA RESULT:      -6.6      5.475      6.785
REMARK  Name = 
REMARK  3 active torsions:
REMARK  status: ('A' for Active; 'I' for Inactive)
REMARK    1  A    between atoms: C_1  and  N_2
REMARK    2  A    between atoms: C_7  and  C_9
REMARK    3  A    between atoms: C_10  and  C_11
REMARK                            x       y       z     vdW  Elec       q    Type
REMARK                         _______ _______ _______ _____ _____    ______ ____
ROOT
ATOM      1  C   UNL     1       1.638   2.569  21.478  0.00  0.00    +0.000 C 
ATOM      2  N   UNL     1       2.160   2.948  20.163  0.00  0.00    +0.000 NA
ATOM      3  C   UNL     1       3.627   2.853  20.141  0.00  0.00    +0.000 C 
ATOM      4  C   UNL     1       4.328   3.521  18.950  0.00  0.00    +0.000 C 
ATOM      5  C   UNL     1       4.603   5.013  19.171  0.00  0.00    +0.000 C 
ATOM      6  N   UNL     1       3.406   5.853  19.182  0.00  0.00    +0.000 N 
ATOM      7  C   UNL     1       3.236   6.769  18.147  0.00  0.00    +0.000 C 
ATOM      8  O   UNL     1       4.049   6.927  17.238  0.00  0.00    +0.000 OA
ATOM      9  C   UNL     1       2.378   5.485  20.166  0.00  0.00    +0.000 C 
ATOM     10  C   UNL     1       1.602   4.234  19.718  0.00  0.00    +0.000 C 
ENDROOT
BRANCH   7  11
ATOM     11  C   UNL     1       2.017   7.620  18.187  0.00  0.00    +0.000 C 
ATOM     12  C   UNL     1       2.061   8.886  18.626  0.00  0.00    +0.000 C 
BRANCH  12  13
ATOM     13  C   UNL     1       0.855   9.724  18.748  0.00  0.00    +0.000 A 
ATOM     14  C   UNL     1       0.741  10.708  19.746  0.00  0.00    +0.000 A 
ATOM     15  C   UNL     1      -0.405  11.496  19.844  0.00  0.00    +0.000 A 
ATOM     16  C   UNL     1      -1.433  11.319  18.930  0.00  0.00    +0.000 A 
ATOM     17  F   UNL     1      -2.535  12.076  19.021  0.00  0.00    +0.000 F 
ATOM     18  C   UNL     1      -1.336  10.370  17.918  0.00  0.00    +0.000 A 
ATOM     19  C   UNL     1      -0.189   9.573  17.825  0.00  0.00    +0.000 A 
ENDBRANCH  12  13
ENDBRANCH   7  11
TORSDOF 2
ENDMDL
MODEL 8
REMARK VINA RESULT:      -6.6      5.238      6.478
REMARK  Name = 
REMARK  3 active torsions:
REMARK  status: ('A' for Active; 'I' for Inactive)
REMARK    1  A    between atoms: C_1  and  N_2
REMARK    2  A    between atoms: C_7  and  C_9
REMARK    3  A    between atoms: C_10  and  C_11
REMARK                            x       y       z     vdW  Elec       q    Type
REMARK                         _______ _______ _______ _____ _____    ______ ____
ROOT
ATOM      1  C   UNL     1       1.152   2.026  18.766  0.00  0.00    +0.000 C 
ATOM      2  N   UNL     1       1.914   2.817  17.797  0.00  0.00    +0.000 NA
ATOM      3  C   UNL     1       3.357   2.591  17.965  0.00  0.00    +0.000 C 
ATOM      4  C   UNL     1       4.283   3.583  17.248  0.00  0.00    +0.000 C 
ATOM      5  C   UNL     1       4.564   4.846  18.070  0.00  0.00    +0.000 C 
ATOM      6  N   UNL     1       3.414   5.736  18.223  0.00  0.00    +0.000 N 
ATOM      7  C   UNL     1       3.464   6.987  17.611  0.00  0.00    +0.000 C 
ATOM      8  O   UNL     1       4.432   7.392  16.970  0.00  0.00    +0.000 OA
ATOM      9  C   UNL     1       2.214   5.131  18.817  0.00  0.00    +0.000 C 
ATOM     10  C   UNL     1       1.489   4.225  17.807  0.00  0.00    +0.000 C 
ENDROOT
BRANCH   7  11
ATOM     11  C   UNL     1       2.287   7.878  17.791  0.00  0.00    +0.000 C 
ATOM     12  C   UNL     1       2.432   9.189  18.029  0.00  0.00    +0.000 C 
BRANCH  12  13
ATOM     13  C   UNL     1       1.286  10.078  18.286  0.00  0.00    +0.000 A 
ATOM     14  C   UNL     1       1.466  11.401  18.727  0.00  0.00    +0.000 A 
ATOM     15  C   UNL     1       0.371  12.232  18.962  0.00  0.00    +0.000 A 
ATOM     16  C   UNL     1      -0.910  11.749  18.734  0.00  0.00    +0.000 A 
ATOM     17  F   UNL     1      -1.964  12.546  18.957  0.00  0.00    +0.000 F 
ATOM     18  C   UNL     1      -1.116  10.454  18.274  0.00  0.00    +0.000 A 
ATOM     19  C   UNL     1      -0.016   9.617  18.047  0.00  0.00    +0.000 A 
ENDBRANCH  12  13
ENDBRANCH   7  11
TORSDOF 2
ENDMDL
MODEL 9
REMARK VINA RESULT:      -6.5      5.300      6.552
REMARK  Name = 
REMARK  3 active torsions:
REMARK  status: ('A' for Active; 'I' for Inactive)
REMARK    1  A    between atoms: C_1  and  N_2
REMARK    2  A    between atoms: C_7  and  C_9
REMARK    3  A    between atoms: C_10  and  C_11
REMARK                            x       y       z     vdW  Elec       q    Type
REMARK                         _______ _______ _______ _____ _____    ______ ____
ROOT
ATOM      1  C   UNL     1       0.429   2.110  18.644  0.00  0.00    +0.000 C 
ATOM      2  N   UNL     1       1.658   2.426  19.376  0.00  0.00    +0.000 NA
ATOM      3  C   UNL     1       1.416   3.488  20.363  0.00  0.00    +0.000 C 
ATOM      4  C   UNL     1       2.663   4.143  20.970  0.00  0.00    +0.000 C 
ATOM      5  C   UNL     1       3.211   5.297  20.122  0.00  0.00    +0.000 C 
ATOM      6  N   UNL     1       3.810   4.886  18.854  0.00  0.00    +0.000 N 
ATOM      7  C   UNL     1       5.182   5.059  18.688  0.00  0.00    +0.000 C 
ATOM      8  O   UNL     1       5.912   5.561  19.540  0.00  0.00    +0.000 OA
ATOM      9  C   UNL     1       2.939   4.111  17.960  0.00  0.00    +0.000 C 
ATOM     10  C   UNL     1       2.780   2.663  18.454  0.00  0.00    +0.000 C 
ENDROOT
BRANCH   7  11
ATOM     11  C   UNL     1       5.765   4.643  17.385  0.00  0.00    +0.000 C 
ATOM     12  C   UNL     1       5.530   5.334  16.260  0.00  0.00    +0.000 C 
BRANCH  12  13
ATOM     13  C   UNL     1       6.033   4.901  14.945  0.00  0.00    +0.000 A 
ATOM     14  C   UNL     1       7.257   5.368  14.436  0.00  0.00    +0.000 A 
ATOM     15  C   UNL     1       7.722   4.943  13.191  0.00  0.00    +0.000 A 
ATOM     16  C   UNL     1       6.973   4.032  12.460  0.00  0.00    +0.000 A 
ATOM     17  F   UNL     1       7.418   3.622  11.264  0.00  0.00    +0.000 F 
ATOM     18  C   UNL     1       5.771   3.536  12.951  0.00  0.00    +0.000 A 
ATOM     19  C   UNL     1       5.301   3.969  14.197  0.00  0.00    +0.000 A 
ENDBRANCH  12  13
ENDBRANCH   7  11
TORSDOF 2
ENDMDL
