MODEL 1
REMARK VINA RESULT:      -7.3      0.000      0.000
REMARK  Name = 
REMARK  7 active torsions:
REMARK  status: ('A' for Active; 'I' for Inactive)
REMARK    1  A    between atoms: C_1  and  C_2
REMARK    2  A    between atoms: C_2  and  O_3
REMARK    3  A    between atoms: O_3  and  C_4
REMARK    4  A    between atoms: C_9  and  C_10
REMARK    5  A    between atoms: C_10  and  C_11
REMARK    6  A    between atoms: C_11  and  N_12
REMARK    7  A    between atoms: C_13  and  C_15
REMARK                            x       y       z     vdW  Elec       q    Type
REMARK                         _______ _______ _______ _____ _____    ______ ____
ROOT
ATOM      1  N   UNL     1       2.611   5.881  18.009  0.00  0.00    +0.000 N 
ATOM      2  C   UNL     1       2.427   6.393  19.276  0.00  0.00    +0.000 C 
ATOM      3  O   UNL     1       2.702   5.752  20.290  0.00  0.00    +0.000 OA
ATOM      4  H   UNL     1       2.162   6.309  17.211  0.00  0.00    +0.000 HD
ENDROOT
BRANCH   2   5
ATOM      5  C   UNL     1       1.854   7.773  19.393  0.00  0.00    +0.000 A 
ATOM      6  C   UNL     1       1.798   8.722  18.283  0.00  0.00    +0.000 A 
ATOM      7  C   UNL     1       1.430   9.995  18.534  0.00  0.00    +0.000 A 
ATOM      8  N   UNL     1       1.102  10.378  19.832  0.00  0.00    +0.000 N 
ATOM      9  N   UNL     1       0.738  11.589  20.314  0.00  0.00    +0.000 NA
ATOM     10  N   UNL     1       0.548  11.427  21.616  0.00  0.00    +0.000 NA
ATOM     11  N   UNL     1       0.779  10.128  21.997  0.00  0.00    +0.000 NA
ATOM     12  C   UNL     1       1.121   9.490  20.904  0.00  0.00    +0.000 A 
ATOM     13  C   UNL     1       1.522   8.150  20.649  0.00  0.00    +0.000 A 
ENDBRANCH   2   5
BRANCH   1  14
ATOM     14  C   UNL     1       3.086   4.510  17.928  0.00  0.00    +0.000 C 
BRANCH  14  15
ATOM     15  C   UNL     1       4.276   4.262  17.008  0.00  0.00    +0.000 C 
BRANCH  15  21
ATOM     16  C   UNL     1       6.283   5.815  16.655  0.00  0.00    +0.000 A 
ATOM     17  C   UNL     1       7.380   6.512  17.177  0.00  0.00    +0.000 A 
ATOM     18  C   UNL     1       7.740   6.367  18.517  0.00  0.00    +0.000 A 
ATOM     19  C   UNL     1       6.980   5.560  19.355  0.00  0.00    +0.000 A 
ATOM     20  C   UNL     1       5.836   4.930  18.864  0.00  0.00    +0.000 A 
ATOM     21  C   UNL     1       5.464   5.060  17.513  0.00  0.00    +0.000 A 
BRANCH  16  22
ATOM     22  O   UNL     1       5.973   5.796  15.315  0.00  0.00    +0.000 OA
BRANCH  22  24
ATOM     23  C   UNL     1       6.079   3.938  13.786  0.00  0.00    +0.000 C 
ATOM     24  C   UNL     1       6.863   5.021  14.500  0.00  0.00    +0.000 C 
ENDBRANCH  22  24
ENDBRANCH  16  22
ENDBRANCH  15  21
ENDBRANCH  14  15
ENDBRANCH   1  14
TORSDOF 6
ENDMDL
MODEL 2
REMARK VINA RESULT:      -7.2      2.202      3.734
REMARK  Name = 
REMARK  7 active torsions:
REMARK  status: ('A' for Active; 'I' for Inactive)
REMARK    1  A    between atoms: C_1  and  C_2
REMARK    2  A    between atoms: C_2  and  O_3
REMARK    3  A    between atoms: O_3  and  C_4
REMARK    4  A    between atoms: C_9  and  C_10
REMARK    5  A    between atoms: C_10  and  C_11
REMARK    6  A    between atoms: C_11  and  N_12
REMARK    7  A    between atoms: C_13  and  C_15
REMARK                            x       y       z     vdW  Elec       q    Type
REMARK                         _______ _______ _______ _____ _____    ______ ____
ROOT
ATOM      1  N   UNL     1       2.135   7.542  19.079  0.00  0.00    +0.000 N 
ATOM      2  C   UNL     1       1.793   8.777  18.571  0.00  0.00    +0.000 C 
ATOM      3  O   UNL     1       2.035   9.099  17.407  0.00  0.00    +0.000 OA
ATOM      4  H   UNL     1       2.155   7.385  20.077  0.00  0.00    +0.000 HD
ENDROOT
BRANCH   2   5
ATOM      5  C   UNL     1       1.121   9.749  19.493  0.00  0.00    +0.000 A 
ATOM      6  C   UNL     1       1.158  11.197  19.307  0.00  0.00    +0.000 A 
ATOM      7  C   UNL     1       0.677  11.992  20.286  0.00  0.00    +0.000 A 
ATOM      8  N   UNL     1       0.148  11.423  21.441  0.00  0.00    +0.000 N 
ATOM      9  N   UNL     1      -0.357  12.016  22.547  0.00  0.00    +0.000 NA
ATOM     10  N   UNL     1      -0.715  11.034  23.363  0.00  0.00    +0.000 NA
ATOM     11  N   UNL     1      -0.456   9.805  22.809  0.00  0.00    +0.000 NA
ATOM     12  C   UNL     1       0.076  10.046  21.635  0.00  0.00    +0.000 A 
ATOM     13  C   UNL     1       0.594   9.204  20.613  0.00  0.00    +0.000 A 
ENDBRANCH   2   5
BRANCH   1  14
ATOM     14  C   UNL     1       2.861   6.654  18.187  0.00  0.00    +0.000 C 
BRANCH  14  15
ATOM     15  C   UNL     1       2.208   5.308  17.897  0.00  0.00    +0.000 C 
BRANCH  15  21
ATOM     16  C   UNL     1       3.526   3.684  19.376  0.00  0.00    +0.000 A 
ATOM     17  C   UNL     1       3.594   2.859  20.506  0.00  0.00    +0.000 A 
ATOM     18  C   UNL     1       2.469   2.662  21.309  0.00  0.00    +0.000 A 
ATOM     19  C   UNL     1       1.283   3.323  21.013  0.00  0.00    +0.000 A 
ATOM     20  C   UNL     1       1.231   4.213  19.940  0.00  0.00    +0.000 A 
ATOM     21  C   UNL     1       2.354   4.416  19.117  0.00  0.00    +0.000 A 
BRANCH  16  22
ATOM     22  O   UNL     1       4.549   3.794  18.464  0.00  0.00    +0.000 OA
BRANCH  22  24
ATOM     23  C   UNL     1       6.719   4.610  17.811  0.00  0.00    +0.000 C 
ATOM     24  C   UNL     1       5.678   4.556  18.912  0.00  0.00    +0.000 C 
ENDBRANCH  22  24
ENDBRANCH  16  22
ENDBRANCH  15  21
ENDBRANCH  14  15
ENDBRANCH   1  14
TORSDOF 6
ENDMDL
MODEL 3
REMARK VINA RESULT:      -7.1      1.694      2.878
REMARK  Name = 
REMARK  7 active torsions:
REMARK  status: ('A' for Active; 'I' for Inactive)
REMARK    1  A    between atoms: C_1  and  C_2
REMARK    2  A    between atoms: C_2  and  O_3
REMARK    3  A    between atoms: O_3  and  C_4
REMARK    4  A    between atoms: C_9  and  C_10
REMARK    5  A    between atoms: C_10  and  C_11
REMARK    6  A    between atoms: C_11  and  N_12
REMARK    7  A    between atoms: C_13  and  C_15
REMARK                            x       y       z     vdW  Elec       q    Type
REMARK                         _______ _______ _______ _____ _____    ______ ____
ROOT
ATOM      1  N   UNL     1       2.435   7.353  18.827  0.00  0.00    +0.000 N 
ATOM      2  C   UNL     1       1.967   8.582  18.415  0.00  0.00    +0.000 C 
ATOM      3  O   UNL     1       2.153   9.008  17.275  0.00  0.00    +0.000 OA
ATOM      4  H   UNL     1       2.490   7.127  19.811  0.00  0.00    +0.000 HD
ENDROOT
BRANCH   2   5
ATOM      5  C   UNL     1       1.226   9.417  19.415  0.00  0.00    +0.000 A 
ATOM      6  C   UNL     1       0.914  10.830  19.215  0.00  0.00    +0.000 A 
ATOM      7  C   UNL     1       0.405  11.536  20.245  0.00  0.00    +0.000 A 
ATOM      8  N   UNL     1       0.177  10.911  21.468  0.00  0.00    +0.000 N 
ATOM      9  N   UNL     1      -0.294  11.420  22.629  0.00  0.00    +0.000 NA
ATOM     10  N   UNL     1      -0.310  10.415  23.494  0.00  0.00    +0.000 NA
ATOM     11  N   UNL     1       0.139   9.253  22.919  0.00  0.00    +0.000 NA
ATOM     12  C   UNL     1       0.440   9.560  21.680  0.00  0.00    +0.000 A 
ATOM     13  C   UNL     1       0.990   8.813  20.602  0.00  0.00    +0.000 A 
ENDBRANCH   2   5
BRANCH   1  14
ATOM     14  C   UNL     1       3.223   6.603  17.863  0.00  0.00    +0.000 C 
BRANCH  14  15
ATOM     15  C   UNL     1       4.417   5.837  18.418  0.00  0.00    +0.000 C 
BRANCH  15  21
ATOM     16  C   UNL     1       6.260   6.025  16.648  0.00  0.00    +0.000 A 
ATOM     17  C   UNL     1       6.960   5.473  15.567  0.00  0.00    +0.000 A 
ATOM     18  C   UNL     1       6.566   4.253  15.016  0.00  0.00    +0.000 A 
ATOM     19  C   UNL     1       5.500   3.555  15.567  0.00  0.00    +0.000 A 
ATOM     20  C   UNL     1       4.851   4.055  16.697  0.00  0.00    +0.000 A 
ATOM     21  C   UNL     1       5.231   5.287  17.261  0.00  0.00    +0.000 A 
BRANCH  16  22
ATOM     22  O   UNL     1       6.500   7.288  17.134  0.00  0.00    +0.000 OA
BRANCH  22  24
ATOM     23  C   UNL     1       8.062   8.961  17.884  0.00  0.00    +0.000 C 
ATOM     24  C   UNL     1       7.801   7.478  17.704  0.00  0.00    +0.000 C 
ENDBRANCH  22  24
ENDBRANCH  16  22
ENDBRANCH  15  21
ENDBRANCH  14  15
ENDBRANCH   1  14
TORSDOF 6
ENDMDL
MODEL 4
REMARK VINA RESULT:      -7.1      0.839      1.599
REMARK  Name = 
REMARK  7 active torsions:
REMARK  status: ('A' for Active; 'I' for Inactive)
REMARK    1  A    between atoms: C_1  and  C_2
REMARK    2  A    between atoms: C_2  and  O_3
REMARK    3  A    between atoms: O_3  and  C_4
REMARK    4  A    between atoms: C_9  and  C_10
REMARK    5  A    between atoms: C_10  and  C_11
REMARK    6  A    between atoms: C_11  and  N_12
REMARK    7  A    between atoms: C_13  and  C_15
REMARK                            x       y       z     vdW  Elec       q    Type
REMARK                         _______ _______ _______ _____ _____    ______ ____
ROOT
ATOM      1  N   UNL     1       3.066   5.412  17.885  0.00  0.00    +0.000 N 
ATOM      2  C   UNL     1       2.589   5.618  19.162  0.00  0.00    +0.000 C 
ATOM      3  O   UNL     1       2.486   4.704  19.980  0.00  0.00    +0.000 OA
ATOM      4  H   UNL     1       2.916   6.104  17.163  0.00  0.00    +0.000 HD
ENDROOT
BRANCH   2   5
ATOM      5  C   UNL     1       2.173   7.009  19.535  0.00  0.00    +0.000 A 
ATOM      6  C   UNL     1       1.552   7.351  20.812  0.00  0.00    +0.000 A 
ATOM      7  C   UNL     1       1.052   8.592  20.981  0.00  0.00    +0.000 A 
ATOM      8  N   UNL     1       1.145   9.522  19.949  0.00  0.00    +0.000 N 
ATOM      9  N   UNL     1       0.697  10.797  19.886  0.00  0.00    +0.000 NA
ATOM     10  N   UNL     1       1.026  11.246  18.683  0.00  0.00    +0.000 NA
ATOM     11  N   UNL     1       1.687  10.288  17.955  0.00  0.00    +0.000 NA
ATOM     12  C   UNL     1       1.755   9.233  18.731  0.00  0.00    +0.000 A 
ATOM     13  C   UNL     1       2.271   7.921  18.542  0.00  0.00    +0.000 A 
ENDBRANCH   2   5
BRANCH   1  14
ATOM     14  C   UNL     1       3.380   4.040  17.524  0.00  0.00    +0.000 C 
BRANCH  14  15
ATOM     15  C   UNL     1       4.713   3.817  16.820  0.00  0.00    +0.000 C 
BRANCH  15  21
ATOM     16  C   UNL     1       6.390   5.731  16.516  0.00  0.00    +0.000 A 
ATOM     17  C   UNL     1       7.330   6.614  17.062  0.00  0.00    +0.000 A 
ATOM     18  C   UNL     1       7.703   6.512  18.403  0.00  0.00    +0.000 A 
ATOM     19  C   UNL     1       7.106   5.559  19.217  0.00  0.00    +0.000 A 
ATOM     20  C   UNL     1       6.107   4.732  18.704  0.00  0.00    +0.000 A 
ATOM     21  C   UNL     1       5.724   4.817  17.352  0.00  0.00    +0.000 A 
BRANCH  16  22
ATOM     22  O   UNL     1       6.097   5.679  15.173  0.00  0.00    +0.000 OA
BRANCH  22  24
ATOM     23  C   UNL     1       6.224   3.911  13.543  0.00  0.00    +0.000 C 
ATOM     24  C   UNL     1       7.006   4.899  14.386  0.00  0.00    +0.000 C 
ENDBRANCH  22  24
ENDBRANCH  16  22
ENDBRANCH  15  21
ENDBRANCH  14  15
ENDBRANCH   1  14
TORSDOF 6
ENDMDL
MODEL 5
REMARK VINA RESULT:      -7.0      2.100      3.037
REMARK  Name = 
REMARK  7 active torsions:
REMARK  status: ('A' for Active; 'I' for Inactive)
REMARK    1  A    between atoms: C_1  and  C_2
REMARK    2  A    between atoms: C_2  and  O_3
REMARK    3  A    between atoms: O_3  and  C_4
REMARK    4  A    between atoms: C_9  and  C_10
REMARK    5  A    between atoms: C_10  and  C_11
REMARK    6  A    between atoms: C_11  and  N_12
REMARK    7  A    between atoms: C_13  and  C_15
REMARK                            x       y       z     vdW  Elec       q    Type
REMARK                         _______ _______ _______ _____ _____    ______ ____
ROOT
ATOM      1  N   UNL     1       2.487   8.047  18.434  0.00  0.00    +0.000 N 
ATOM      2  C   UNL     1       1.807   9.238  18.301  0.00  0.00    +0.000 C 
ATOM      3  O   UNL     1       1.949   9.970  17.320  0.00  0.00    +0.000 OA
ATOM      4  H   UNL     1       2.549   7.588  19.333  0.00  0.00    +0.000 HD
ENDROOT
BRANCH   2   5
ATOM      5  C   UNL     1       0.883   9.641  19.410  0.00  0.00    +0.000 A 
ATOM      6  C   UNL     1      -0.220  10.584  19.240  0.00  0.00    +0.000 A 
ATOM      7  C   UNL     1      -0.880  11.018  20.333  0.00  0.00    +0.000 A 
ATOM      8  N   UNL     1      -0.510  10.556  21.593  0.00  0.00    +0.000 N 
ATOM      9  N   UNL     1      -1.004  10.870  22.813  0.00  0.00    +0.000 NA
ATOM     10  N   UNL     1      -0.299  10.169  23.690  0.00  0.00    +0.000 NA
ATOM     11  N   UNL     1       0.648   9.396  23.066  0.00  0.00    +0.000 NA
ATOM     12  C   UNL     1       0.520   9.637  21.784  0.00  0.00    +0.000 A 
ATOM     13  C   UNL     1       1.228   9.187  20.636  0.00  0.00    +0.000 A 
ENDBRANCH   2   5
BRANCH   1  14
ATOM     14  C   UNL     1       3.439   7.724  17.385  0.00  0.00    +0.000 C 
BRANCH  14  15
ATOM     15  C   UNL     1       3.876   6.266  17.297  0.00  0.00    +0.000 C 
BRANCH  15  21
ATOM     16  C   UNL     1       5.601   5.350  18.955  0.00  0.00    +0.000 A 
ATOM     17  C   UNL     1       6.921   5.294  19.421  0.00  0.00    +0.000 A 
ATOM     18  C   UNL     1       7.905   6.111  18.863  0.00  0.00    +0.000 A 
ATOM     19  C   UNL     1       7.587   6.955  17.807  0.00  0.00    +0.000 A 
ATOM     20  C   UNL     1       6.296   6.955  17.280  0.00  0.00    +0.000 A 
ATOM     21  C   UNL     1       5.290   6.143  17.836  0.00  0.00    +0.000 A 
BRANCH  16  22
ATOM     22  O   UNL     1       4.560   4.688  19.563  0.00  0.00    +0.000 OA
BRANCH  22  24
ATOM     23  C   UNL     1       3.734   2.806  18.307  0.00  0.00    +0.000 C 
ATOM     24  C   UNL     1       4.610   3.259  19.459  0.00  0.00    +0.000 C 
ENDBRANCH  22  24
ENDBRANCH  16  22
ENDBRANCH  15  21
ENDBRANCH  14  15
ENDBRANCH   1  14
TORSDOF 6
ENDMDL
MODEL 6
REMARK VINA RESULT:      -7.0      3.061      8.017
REMARK  Name = 
REMARK  7 active torsions:
REMARK  status: ('A' for Active; 'I' for Inactive)
REMARK    1  A    between atoms: C_1  and  C_2
REMARK    2  A    between atoms: C_2  and  O_3
REMARK    3  A    between atoms: O_3  and  C_4
REMARK    4  A    between atoms: C_9  and  C_10
REMARK    5  A    between atoms: C_10  and  C_11
REMARK    6  A    between atoms: C_11  and  N_12
REMARK    7  A    between atoms: C_13  and  C_15
REMARK                            x       y       z     vdW  Elec       q    Type
REMARK                         _______ _______ _______ _____ _____    ______ ____
ROOT
ATOM      1  N   UNL     1       2.874   6.690  19.971  0.00  0.00    +0.000 N 
ATOM      2  C   UNL     1       3.074   6.655  18.608  0.00  0.00    +0.000 C 
ATOM      3  O   UNL     1       2.282   7.164  17.814  0.00  0.00    +0.000 OA
ATOM      4  H   UNL     1       3.389   6.070  20.583  0.00  0.00    +0.000 HD
ENDROOT
BRANCH   2   5
ATOM      5  C   UNL     1       4.295   5.950  18.100  0.00  0.00    +0.000 A 
ATOM      6  C   UNL     1       5.247   5.258  18.965  0.00  0.00    +0.000 A 
ATOM      7  C   UNL     1       6.403   4.810  18.434  0.00  0.00    +0.000 A 
ATOM      8  N   UNL     1       6.663   5.003  17.080  0.00  0.00    +0.000 N 
ATOM      9  N   UNL     1       7.751   4.669  16.348  0.00  0.00    +0.000 NA
ATOM     10  N   UNL     1       7.508   5.084  15.113  0.00  0.00    +0.000 NA
ATOM     11  N   UNL     1       6.276   5.684  15.019  0.00  0.00    +0.000 NA
ATOM     12  C   UNL     1       5.764   5.636  16.225  0.00  0.00    +0.000 A 
ATOM     13  C   UNL     1       4.549   6.123  16.783  0.00  0.00    +0.000 A 
ENDBRANCH   2   5
BRANCH   1  14
ATOM     14  C   UNL     1       1.640   7.305  20.430  0.00  0.00    +0.000 C 
BRANCH  14  15
ATOM     15  C   UNL     1       1.422   8.759  20.030  0.00  0.00    +0.000 C 
BRANCH  15  21
ATOM     16  C   UNL     1      -0.323  10.502  20.727  0.00  0.00    +0.000 A 
ATOM     17  C   UNL     1      -1.120  11.086  21.721  0.00  0.00    +0.000 A 
ATOM     18  C   UNL     1      -0.999  10.687  23.052  0.00  0.00    +0.000 A 
ATOM     19  C   UNL     1      -0.115   9.671  23.394  0.00  0.00    +0.000 A 
ATOM     20  C   UNL     1       0.620   9.025  22.400  0.00  0.00    +0.000 A 
ATOM     21  C   UNL     1       0.516   9.420  21.053  0.00  0.00    +0.000 A 
BRANCH  16  22
ATOM     22  O   UNL     1      -0.284  10.957  19.430  0.00  0.00    +0.000 OA
BRANCH  22  24
ATOM     23  C   UNL     1      -1.555  10.186  17.536  0.00  0.00    +0.000 C 
ATOM     24  C   UNL     1      -1.560  11.047  18.783  0.00  0.00    +0.000 C 
ENDBRANCH  22  24
ENDBRANCH  16  22
ENDBRANCH  15  21
ENDBRANCH  14  15
ENDBRANCH   1  14
TORSDOF 6
ENDMDL
MODEL 7
REMARK VINA RESULT:      -7.0      3.395      8.106
REMARK  Name = 
REMARK  7 active torsions:
REMARK  status: ('A' for Active; 'I' for Inactive)
REMARK    1  A    between atoms: C_1  and  C_2
REMARK    2  A    between atoms: C_2  and  O_3
REMARK    3  A    between atoms: O_3  and  C_4
REMARK    4  A    between atoms: C_9  and  C_10
REMARK    5  A    between atoms: C_10  and  C_11
REMARK    6  A    between atoms: C_11  and  N_12
REMARK    7  A    between atoms: C_13  and  C_15
REMARK                            x       y       z     vdW  Elec       q    Type
REMARK                         _______ _______ _______ _____ _____    ______ ____
ROOT
ATOM      1  N   UNL     1       2.895   7.856  18.361  0.00  0.00    +0.000 N 
ATOM      2  C   UNL     1       3.009   6.494  18.541  0.00  0.00    +0.000 C 
ATOM      3  O   UNL     1       2.149   5.833  19.124  0.00  0.00    +0.000 OA
ATOM      4  H   UNL     1       3.702   8.410  18.107  0.00  0.00    +0.000 HD
ENDROOT
BRANCH   2   5
ATOM      5  C   UNL     1       4.242   5.822  18.016  0.00  0.00    +0.000 A 
ATOM      6  C   UNL     1       5.156   5.044  18.850  0.00  0.00    +0.000 A 
ATOM      7  C   UNL     1       6.326   4.632  18.322  0.00  0.00    +0.000 A 
ATOM      8  N   UNL     1       6.638   4.941  17.001  0.00  0.00    +0.000 N 
ATOM      9  N   UNL     1       7.748   4.660  16.282  0.00  0.00    +0.000 NA
ATOM     10  N   UNL     1       7.555   5.187  15.081  0.00  0.00    +0.000 NA
ATOM     11  N   UNL     1       6.333   5.807  14.997  0.00  0.00    +0.000 NA
ATOM     12  C   UNL     1       5.776   5.658  16.175  0.00  0.00    +0.000 A 
ATOM     13  C   UNL     1       4.546   6.108  16.730  0.00  0.00    +0.000 A 
ENDBRANCH   2   5
BRANCH   1  14
ATOM     14  C   UNL     1       1.731   8.492  18.955  0.00  0.00    +0.000 C 
BRANCH  14  15
ATOM     15  C   UNL     1       0.973   9.473  18.068  0.00  0.00    +0.000 C 
BRANCH  15  21
ATOM     16  C   UNL     1      -1.150  10.853  18.457  0.00  0.00    +0.000 A 
ATOM     17  C   UNL     1      -1.942  11.644  19.300  0.00  0.00    +0.000 A 
ATOM     18  C   UNL     1      -1.487  12.003  20.570  0.00  0.00    +0.000 A 
ATOM     19  C   UNL     1      -0.259  11.538  21.022  0.00  0.00    +0.000 A 
ATOM     20  C   UNL     1       0.498  10.681  20.223  0.00  0.00    +0.000 A 
ATOM     21  C   UNL     1       0.057  10.315  18.938  0.00  0.00    +0.000 A 
BRANCH  16  22
ATOM     22  O   UNL     1      -1.473  10.596  17.145  0.00  0.00    +0.000 OA
BRANCH  22  24
ATOM     23  C   UNL     1      -3.012   9.801  15.472  0.00  0.00    +0.000 C 
ATOM     24  C   UNL     1      -2.707   9.892  16.954  0.00  0.00    +0.000 C 
ENDBRANCH  22  24
ENDBRANCH  16  22
ENDBRANCH  15  21
ENDBRANCH  14  15
ENDBRANCH   1  14
TORSDOF 6
ENDMDL
MODEL 8
REMARK VINA RESULT:      -7.0      5.642      7.176
REMARK  Name = 
REMARK  7 active torsions:
REMARK  status: ('A' for Active; 'I' for Inactive)
REMARK    1  A    between atoms: C_1  and  C_2
REMARK    2  A    between atoms: C_2  and  O_3
REMARK    3  A    between atoms: O_3  and  C_4
REMARK    4  A    between atoms: C_9  and  C_10
REMARK    5  A    between atoms: C_10  and  C_11
REMARK    6  A    between atoms: C_11  and  N_12
REMARK    7  A    between atoms: C_13  and  C_15
REMARK                            x       y       z     vdW  Elec       q    Type
REMARK                         _______ _______ _______ _____ _____    ______ ____
ROOT
ATOM      1  N   UNL     1       8.583   8.048  18.700  0.00  0.00    +0.000 N 
ATOM      2  C   UNL     1       8.467   9.365  18.308  0.00  0.00    +0.000 C 
ATOM      3  O   UNL     1       7.619   9.736  17.496  0.00  0.00    +0.000 OA
ATOM      4  H   UNL     1       9.420   7.723  19.164  0.00  0.00    +0.000 HD
ENDROOT
BRANCH   2   5
ATOM      5  C   UNL     1       9.429  10.354  18.892  0.00  0.00    +0.000 A 
ATOM      6  C   UNL     1       9.448  10.726  20.305  0.00  0.00    +0.000 A 
ATOM      7  C   UNL     1      10.230  11.753  20.697  0.00  0.00    +0.000 A 
ATOM      8  N   UNL     1      11.007  12.428  19.760  0.00  0.00    +0.000 N 
ATOM      9  N   UNL     1      11.832  13.489  19.918  0.00  0.00    +0.000 NA
ATOM     10  N   UNL     1      12.323  13.758  18.717  0.00  0.00    +0.000 NA
ATOM     11  N   UNL     1      11.838  12.890  17.771  0.00  0.00    +0.000 NA
ATOM     12  C   UNL     1      11.029  12.080  18.412  0.00  0.00    +0.000 A 
ATOM     13  C   UNL     1      10.197  11.007  17.990  0.00  0.00    +0.000 A 
ENDBRANCH   2   5
BRANCH   1  14
ATOM     14  C   UNL     1       7.694   7.099  18.052  0.00  0.00    +0.000 C 
BRANCH  14  15
ATOM     15  C   UNL     1       7.572   5.731  18.713  0.00  0.00    +0.000 C 
BRANCH  15  21
ATOM     16  C   UNL     1       5.852   4.488  17.277  0.00  0.00    +0.000 A 
ATOM     17  C   UNL     1       4.544   4.026  17.085  0.00  0.00    +0.000 A 
ATOM     18  C   UNL     1       3.536   4.353  17.992  0.00  0.00    +0.000 A 
ATOM     19  C   UNL     1       3.837   5.106  19.120  0.00  0.00    +0.000 A 
ATOM     20  C   UNL     1       5.153   5.498  19.364  0.00  0.00    +0.000 A 
ATOM     21  C   UNL     1       6.180   5.182  18.455  0.00  0.00    +0.000 A 
BRANCH  16  22
ATOM     22  O   UNL     1       6.850   4.331  16.344  0.00  0.00    +0.000 OA
BRANCH  22  24
ATOM     23  C   UNL     1       6.957   4.783  13.980  0.00  0.00    +0.000 C 
ATOM     24  C   UNL     1       6.409   3.871  15.060  0.00  0.00    +0.000 C 
ENDBRANCH  22  24
ENDBRANCH  16  22
ENDBRANCH  15  21
ENDBRANCH  14  15
ENDBRANCH   1  14
TORSDOF 6
ENDMDL
MODEL 9
REMARK VINA RESULT:      -7.0      2.101      3.650
REMARK  Name = 
REMARK  7 active torsions:
REMARK  status: ('A' for Active; 'I' for Inactive)
REMARK    1  A    between atoms: C_1  and  C_2
REMARK    2  A    between atoms: C_2  and  O_3
REMARK    3  A    between atoms: O_3  and  C_4
REMARK    4  A    between atoms: C_9  and  C_10
REMARK    5  A    between atoms: C_10  and  C_11
REMARK    6  A    between atoms: C_11  and  N_12
REMARK    7  A    between atoms: C_13  and  C_15
REMARK                            x       y       z     vdW  Elec       q    Type
REMARK                         _______ _______ _______ _____ _____    ______ ____
ROOT
ATOM      1  N   UNL     1       2.169   7.665  19.355  0.00  0.00    +0.000 N 
ATOM      2  C   UNL     1       1.776   8.797  18.674  0.00  0.00    +0.000 C 
ATOM      3  O   UNL     1       2.106   9.010  17.507  0.00  0.00    +0.000 OA
ATOM      4  H   UNL     1       2.101   7.622  20.363  0.00  0.00    +0.000 HD
ENDROOT
BRANCH   2   5
ATOM      5  C   UNL     1       0.934   9.796  19.409  0.00  0.00    +0.000 A 
ATOM      6  C   UNL     1       0.431  11.028  18.807  0.00  0.00    +0.000 A 
ATOM      7  C   UNL     1      -0.165  11.943  19.599  0.00  0.00    +0.000 A 
ATOM      8  N   UNL     1      -0.299  11.697  20.962  0.00  0.00    +0.000 N 
ATOM      9  N   UNL     1      -0.828  12.471  21.937  0.00  0.00    +0.000 NA
ATOM     10  N   UNL     1      -0.702  11.785  23.064  0.00  0.00    +0.000 NA
ATOM     11  N   UNL     1      -0.102  10.570  22.846  0.00  0.00    +0.000 NA
ATOM     12  C   UNL     1       0.147  10.521  21.560  0.00  0.00    +0.000 A 
ATOM     13  C   UNL     1       0.788   9.558  20.733  0.00  0.00    +0.000 A 
ENDBRANCH   2   5
BRANCH   1  14
ATOM     14  C   UNL     1       3.055   6.758  18.645  0.00  0.00    +0.000 C 
BRANCH  14  15
ATOM     15  C   UNL     1       3.693   5.651  19.476  0.00  0.00    +0.000 C 
BRANCH  15  21
ATOM     16  C   UNL     1       3.385   3.356  18.379  0.00  0.00    +0.000 A 
ATOM     17  C   UNL     1       2.620   2.197  18.192  0.00  0.00    +0.000 A 
ATOM     18  C   UNL     1       1.352   2.084  18.762  0.00  0.00    +0.000 A 
ATOM     19  C   UNL     1       0.858   3.108  19.560  0.00  0.00    +0.000 A 
ATOM     20  C   UNL     1       1.647   4.228  19.822  0.00  0.00    +0.000 A 
ATOM     21  C   UNL     1       2.925   4.361  19.249  0.00  0.00    +0.000 A 
BRANCH  16  22
ATOM     22  O   UNL     1       4.569   3.590  17.721  0.00  0.00    +0.000 OA
BRANCH  22  24
ATOM     23  C   UNL     1       5.512   5.000  16.011  0.00  0.00    +0.000 C 
ATOM     24  C   UNL     1       4.430   3.995  16.353  0.00  0.00    +0.000 C 
ENDBRANCH  22  24
ENDBRANCH  16  22
ENDBRANCH  15  21
ENDBRANCH  14  15
ENDBRANCH   1  14
TORSDOF 6
ENDMDL
