MODEL 1
REMARK VINA RESULT:      -7.9      0.000      0.000
REMARK  Name = 
REMARK  9 active torsions:
REMARK  status: ('A' for Active; 'I' for Inactive)
REMARK    1  A    between atoms: C_1  and  C_2
REMARK    2  A    between atoms: C_2  and  C_3
REMARK    3  A    between atoms: C_3  and  C_4
REMARK    4  A    between atoms: C_4  and  C_5
REMARK    5  A    between atoms: C_5  and  C_18
REMARK    6  A    between atoms: C_6  and  C_7
REMARK    7  A    between atoms: C_15  and  N_16
REMARK    8  A    between atoms: C_23  and  O_24
REMARK    9  A    between atoms: O_24  and  C_25
REMARK                            x       y       z     vdW  Elec       q    Type
REMARK                         _______ _______ _______ _____ _____    ______ ____
ROOT
ATOM      1  C   UNL     1       4.211   4.592  17.429  0.00  0.00    +0.000 A 
ATOM      2  C   UNL     1       3.818   5.838  17.731  0.00  0.00    +0.000 A 
ATOM      3  O   UNL     1       3.039   6.031  18.868  0.00  0.00    +0.000 OA
ATOM      4  C   UNL     1       2.762   4.752  19.276  0.00  0.00    +0.000 A 
ATOM      5  N   UNL     1       1.933   4.489  20.225  0.00  0.00    +0.000 NA
ATOM      6  C   UNL     1       1.771   3.149  20.418  0.00  0.00    +0.000 A 
ATOM      7  N   UNL     1       0.822   2.834  21.223  0.00  0.00    +0.000 NA
ATOM      8  N   UNL     1       2.535   2.226  19.778  0.00  0.00    +0.000 N 
ATOM      9  C   UNL     1       3.411   2.519  18.752  0.00  0.00    +0.000 A 
ATOM     10  C   UNL     1       3.532   3.817  18.420  0.00  0.00    +0.000 A 
ATOM     11  H   UNL     1       0.425   3.739  21.509  0.00  0.00    +0.000 HD
ATOM     12  H   UNL     1       2.351   1.259  19.989  0.00  0.00    +0.000 HD
ENDROOT
BRANCH   9  13
ATOM     13  N   UNL     1       4.071   1.496  18.110  0.00  0.00    +0.000 N 
ATOM     14  H   UNL     1       3.884   0.589  18.527  0.00  0.00    +0.000 HD
ATOM     15  H   UNL     1       3.927   1.488  17.106  0.00  0.00    +0.000 HD
ENDBRANCH   9  13
BRANCH   1  17
ATOM     16  C   UNL     1       6.102   4.473  15.740  0.00  0.00    +0.000 C 
ATOM     17  C   UNL     1       4.846   4.238  16.181  0.00  0.00    +0.000 C 
BRANCH  16  18
ATOM     18  C   UNL     1       6.291   4.287  14.267  0.00  0.00    +0.000 A 
ATOM     19  C   UNL     1       5.299   3.470  13.674  0.00  0.00    +0.000 A 
ATOM     20  C   UNL     1       5.295   3.169  12.313  0.00  0.00    +0.000 A 
ATOM     21  C   UNL     1       6.298   3.682  11.495  0.00  0.00    +0.000 A 
ATOM     22  C   UNL     1       7.284   4.491  12.058  0.00  0.00    +0.000 A 
ATOM     23  C   UNL     1       7.304   4.795  13.433  0.00  0.00    +0.000 A 
BRANCH  23  24
ATOM     24  O   UNL     1       8.345   5.631  13.729  0.00  0.00    +0.000 OA
ATOM     25  C   UNL     1       9.093   6.194  12.671  0.00  0.00    +0.000 C 
ENDBRANCH  23  24
ENDBRANCH  16  18
BRANCH  16  26
ATOM     26  C   UNL     1       7.319   5.082  16.449  0.00  0.00    +0.000 C 
BRANCH  26  27
ATOM     27  C   UNL     1       7.560   4.680  17.908  0.00  0.00    +0.000 C 
BRANCH  27  29
ATOM     28  C   UNL     1       7.839   7.139  18.174  0.00  0.00    +0.000 C 
ATOM     29  C   UNL     1       7.647   5.819  18.920  0.00  0.00    +0.000 C 
ENDBRANCH  27  29
ENDBRANCH  26  27
ENDBRANCH  16  26
ENDBRANCH   1  17
TORSDOF 7
ENDMDL
MODEL 2
REMARK VINA RESULT:      -7.8      3.299      5.159
REMARK  Name = 
REMARK  9 active torsions:
REMARK  status: ('A' for Active; 'I' for Inactive)
REMARK    1  A    between atoms: C_1  and  C_2
REMARK    2  A    between atoms: C_2  and  C_3
REMARK    3  A    between atoms: C_3  and  C_4
REMARK    4  A    between atoms: C_4  and  C_5
REMARK    5  A    between atoms: C_5  and  C_18
REMARK    6  A    between atoms: C_6  and  C_7
REMARK    7  A    between atoms: C_15  and  N_16
REMARK    8  A    between atoms: C_23  and  O_24
REMARK    9  A    between atoms: O_24  and  C_25
REMARK                            x       y       z     vdW  Elec       q    Type
REMARK                         _______ _______ _______ _____ _____    ______ ____
ROOT
ATOM      1  C   UNL     1       2.464   6.595  19.231  0.00  0.00    +0.000 A 
ATOM      2  C   UNL     1       2.182   5.866  20.321  0.00  0.00    +0.000 A 
ATOM      3  O   UNL     1       1.373   6.429  21.304  0.00  0.00    +0.000 OA
ATOM      4  C   UNL     1       1.230   7.727  20.885  0.00  0.00    +0.000 A 
ATOM      5  N   UNL     1       0.663   8.631  21.604  0.00  0.00    +0.000 NA
ATOM      6  C   UNL     1       0.688   9.858  21.011  0.00  0.00    +0.000 A 
ATOM      7  N   UNL     1       0.303  10.825  21.762  0.00  0.00    +0.000 NA
ATOM      8  N   UNL     1       1.120  10.039  19.735  0.00  0.00    +0.000 N 
ATOM      9  C   UNL     1       1.738   9.065  18.979  0.00  0.00    +0.000 A 
ATOM     10  C   UNL     1       1.863   7.852  19.549  0.00  0.00    +0.000 A 
ATOM     11  H   UNL     1       0.074  10.371  22.656  0.00  0.00    +0.000 HD
ATOM     12  H   UNL     1       1.093  10.979  19.377  0.00  0.00    +0.000 HD
ENDROOT
BRANCH   9  13
ATOM     13  N   UNL     1       2.220   9.378  17.728  0.00  0.00    +0.000 N 
ATOM     14  H   UNL     1       3.150   9.001  17.564  0.00  0.00    +0.000 HD
ATOM     15  H   UNL     1       1.579   9.147  16.977  0.00  0.00    +0.000 HD
ENDBRANCH   9  13
BRANCH   1  17
ATOM     16  C   UNL     1       3.543   5.077  17.508  0.00  0.00    +0.000 C 
ATOM     17  C   UNL     1       3.444   6.205  18.245  0.00  0.00    +0.000 C 
BRANCH  16  18
ATOM     18  C   UNL     1       4.879   4.866  16.867  0.00  0.00    +0.000 A 
ATOM     19  C   UNL     1       4.821   4.814  15.453  0.00  0.00    +0.000 A 
ATOM     20  C   UNL     1       5.955   4.622  14.666  0.00  0.00    +0.000 A 
ATOM     21  C   UNL     1       7.196   4.470  15.278  0.00  0.00    +0.000 A 
ATOM     22  C   UNL     1       7.277   4.519  16.668  0.00  0.00    +0.000 A 
ATOM     23  C   UNL     1       6.138   4.705  17.476  0.00  0.00    +0.000 A 
BRANCH  23  24
ATOM     24  O   UNL     1       6.484   4.753  18.798  0.00  0.00    +0.000 OA
ATOM     25  C   UNL     1       7.454   5.691  19.218  0.00  0.00    +0.000 C 
ENDBRANCH  23  24
ENDBRANCH  16  18
BRANCH  16  26
ATOM     26  C   UNL     1       2.593   3.880  17.368  0.00  0.00    +0.000 C 
BRANCH  26  27
ATOM     27  C   UNL     1       3.118   2.507  17.804  0.00  0.00    +0.000 C 
BRANCH  27  29
ATOM     28  C   UNL     1       4.240   2.396  20.024  0.00  0.00    +0.000 C 
ATOM     29  C   UNL     1       2.931   2.146  19.274  0.00  0.00    +0.000 C 
ENDBRANCH  27  29
ENDBRANCH  26  27
ENDBRANCH  16  26
ENDBRANCH   1  17
TORSDOF 7
ENDMDL
MODEL 3
REMARK VINA RESULT:      -7.8      4.392      6.921
REMARK  Name = 
REMARK  9 active torsions:
REMARK  status: ('A' for Active; 'I' for Inactive)
REMARK    1  A    between atoms: C_1  and  C_2
REMARK    2  A    between atoms: C_2  and  C_3
REMARK    3  A    between atoms: C_3  and  C_4
REMARK    4  A    between atoms: C_4  and  C_5
REMARK    5  A    between atoms: C_5  and  C_18
REMARK    6  A    between atoms: C_6  and  C_7
REMARK    7  A    between atoms: C_15  and  N_16
REMARK    8  A    between atoms: C_23  and  O_24
REMARK    9  A    between atoms: O_24  and  C_25
REMARK                            x       y       z     vdW  Elec       q    Type
REMARK                         _______ _______ _______ _____ _____    ______ ____
ROOT
ATOM      1  C   UNL     1       1.513   8.263  20.113  0.00  0.00    +0.000 A 
ATOM      2  C   UNL     1       1.617   8.058  21.434  0.00  0.00    +0.000 A 
ATOM      3  O   UNL     1       1.129   9.034  22.298  0.00  0.00    +0.000 OA
ATOM      4  C   UNL     1       0.804  10.064  21.452  0.00  0.00    +0.000 A 
ATOM      5  N   UNL     1       0.448  11.226  21.876  0.00  0.00    +0.000 NA
ATOM      6  C   UNL     1       0.230  12.106  20.858  0.00  0.00    +0.000 A 
ATOM      7  N   UNL     1       0.054  13.322  21.229  0.00  0.00    +0.000 NA
ATOM      8  N   UNL     1       0.236  11.724  19.554  0.00  0.00    +0.000 N 
ATOM      9  C   UNL     1       0.632  10.479  19.111  0.00  0.00    +0.000 A 
ATOM     10  C   UNL     1       0.983   9.589  20.058  0.00  0.00    +0.000 A 
ATOM     11  H   UNL     1       0.136  13.285  22.254  0.00  0.00    +0.000 HD
ATOM     12  H   UNL     1       0.056  12.441  18.871  0.00  0.00    +0.000 HD
ENDROOT
BRANCH   9  13
ATOM     13  N   UNL     1       0.686  10.223  17.760  0.00  0.00    +0.000 N 
ATOM     14  H   UNL     1      -0.099  10.627  17.256  0.00  0.00    +0.000 HD
ATOM     15  H   UNL     1       1.574  10.468  17.336  0.00  0.00    +0.000 HD
ENDBRANCH   9  13
BRANCH   1  17
ATOM     16  C   UNL     1       2.601   6.155  19.212  0.00  0.00    +0.000 C 
ATOM     17  C   UNL     1       2.154   7.428  19.125  0.00  0.00    +0.000 C 
BRANCH  16  18
ATOM     18  C   UNL     1       3.534   5.746  18.115  0.00  0.00    +0.000 A 
ATOM     19  C   UNL     1       4.110   6.843  17.430  0.00  0.00    +0.000 A 
ATOM     20  C   UNL     1       5.003   6.677  16.373  0.00  0.00    +0.000 A 
ATOM     21  C   UNL     1       5.349   5.393  15.963  0.00  0.00    +0.000 A 
ATOM     22  C   UNL     1       4.796   4.298  16.624  0.00  0.00    +0.000 A 
ATOM     23  C   UNL     1       3.885   4.451  17.689  0.00  0.00    +0.000 A 
BRANCH  23  24
ATOM     24  O   UNL     1       3.517   3.234  18.191  0.00  0.00    +0.000 OA
ATOM     25  C   UNL     1       2.468   2.523  17.563  0.00  0.00    +0.000 C 
ENDBRANCH  23  24
ENDBRANCH  16  18
BRANCH  16  26
ATOM     26  C   UNL     1       2.473   5.119  20.335  0.00  0.00    +0.000 C 
BRANCH  26  27
ATOM     27  C   UNL     1       1.132   4.390  20.474  0.00  0.00    +0.000 C 
BRANCH  27  29
ATOM     28  C   UNL     1       2.606   2.685  21.534  0.00  0.00    +0.000 C 
ATOM     29  C   UNL     1       1.185   2.978  21.051  0.00  0.00    +0.000 C 
ENDBRANCH  27  29
ENDBRANCH  26  27
ENDBRANCH  16  26
ENDBRANCH   1  17
TORSDOF 7
ENDMDL
MODEL 4
REMARK VINA RESULT:      -7.8      3.609      5.744
REMARK  Name = 
REMARK  9 active torsions:
REMARK  status: ('A' for Active; 'I' for Inactive)
REMARK    1  A    between atoms: C_1  and  C_2
REMARK    2  A    between atoms: C_2  and  C_3
REMARK    3  A    between atoms: C_3  and  C_4
REMARK    4  A    between atoms: C_4  and  C_5
REMARK    5  A    between atoms: C_5  and  C_18
REMARK    6  A    between atoms: C_6  and  C_7
REMARK    7  A    between atoms: C_15  and  N_16
REMARK    8  A    between atoms: C_23  and  O_24
REMARK    9  A    between atoms: O_24  and  C_25
REMARK                            x       y       z     vdW  Elec       q    Type
REMARK                         _______ _______ _______ _____ _____    ______ ____
ROOT
ATOM      1  C   UNL     1       2.330   7.152  19.310  0.00  0.00    +0.000 A 
ATOM      2  C   UNL     1       2.048   6.581  20.491  0.00  0.00    +0.000 A 
ATOM      3  O   UNL     1       1.221   7.264  21.378  0.00  0.00    +0.000 OA
ATOM      4  C   UNL     1       1.064   8.487  20.778  0.00  0.00    +0.000 A 
ATOM      5  N   UNL     1       0.478   9.475  21.358  0.00  0.00    +0.000 NA
ATOM      6  C   UNL     1       0.491  10.606  20.597  0.00  0.00    +0.000 A 
ATOM      7  N   UNL     1       0.085  11.664  21.201  0.00  0.00    +0.000 NA
ATOM      8  N   UNL     1       0.932  10.612  19.312  0.00  0.00    +0.000 N 
ATOM      9  C   UNL     1       1.571   9.550  18.706  0.00  0.00    +0.000 A 
ATOM     10  C   UNL     1       1.708   8.432  19.443  0.00  0.00    +0.000 A 
ATOM     11  H   UNL     1      -0.145  11.337  22.149  0.00  0.00    +0.000 HD
ATOM     12  H   UNL     1       0.895  11.491  18.824  0.00  0.00    +0.000 HD
ENDROOT
BRANCH   9  13
ATOM     13  N   UNL     1       2.060   9.691  17.427  0.00  0.00    +0.000 N 
ATOM     14  H   UNL     1       1.337   9.588  16.720  0.00  0.00    +0.000 HD
ATOM     15  H   UNL     1       2.605  10.535  17.292  0.00  0.00    +0.000 HD
ENDBRANCH   9  13
BRANCH   1  17
ATOM     16  C   UNL     1       3.403   5.450  17.765  0.00  0.00    +0.000 C 
ATOM     17  C   UNL     1       3.325   6.642  18.397  0.00  0.00    +0.000 C 
BRANCH  16  18
ATOM     18  C   UNL     1       4.750   5.136  17.191  0.00  0.00    +0.000 A 
ATOM     19  C   UNL     1       4.751   5.051  15.778  0.00  0.00    +0.000 A 
ATOM     20  C   UNL     1       5.904   4.765  15.048  0.00  0.00    +0.000 A 
ATOM     21  C   UNL     1       7.103   4.549  15.720  0.00  0.00    +0.000 A 
ATOM     22  C   UNL     1       7.126   4.629  17.111  0.00  0.00    +0.000 A 
ATOM     23  C   UNL     1       5.966   4.909  17.861  0.00  0.00    +0.000 A 
BRANCH  23  24
ATOM     24  O   UNL     1       6.256   4.969  19.196  0.00  0.00    +0.000 OA
ATOM     25  C   UNL     1       7.442   5.614  19.611  0.00  0.00    +0.000 C 
ENDBRANCH  23  24
ENDBRANCH  16  18
BRANCH  16  26
ATOM     26  C   UNL     1       2.413   4.280  17.697  0.00  0.00    +0.000 C 
BRANCH  26  27
ATOM     27  C   UNL     1       2.390   3.305  18.880  0.00  0.00    +0.000 C 
BRANCH  27  29
ATOM     28  C   UNL     1       1.319   2.935  21.097  0.00  0.00    +0.000 C 
ATOM     29  C   UNL     1       1.057   3.153  19.607  0.00  0.00    +0.000 C 
ENDBRANCH  27  29
ENDBRANCH  26  27
ENDBRANCH  16  26
ENDBRANCH   1  17
TORSDOF 7
ENDMDL
MODEL 5
REMARK VINA RESULT:      -7.5      4.141      6.544
REMARK  Name = 
REMARK  9 active torsions:
REMARK  status: ('A' for Active; 'I' for Inactive)
REMARK    1  A    between atoms: C_1  and  C_2
REMARK    2  A    between atoms: C_2  and  C_3
REMARK    3  A    between atoms: C_3  and  C_4
REMARK    4  A    between atoms: C_4  and  C_5
REMARK    5  A    between atoms: C_5  and  C_18
REMARK    6  A    between atoms: C_6  and  C_7
REMARK    7  A    between atoms: C_15  and  N_16
REMARK    8  A    between atoms: C_23  and  O_24
REMARK    9  A    between atoms: O_24  and  C_25
REMARK                            x       y       z     vdW  Elec       q    Type
REMARK                         _______ _______ _______ _____ _____    ______ ____
ROOT
ATOM      1  C   UNL     1       1.748   7.816  20.025  0.00  0.00    +0.000 A 
ATOM      2  C   UNL     1       1.553   7.630  21.339  0.00  0.00    +0.000 A 
ATOM      3  O   UNL     1       0.987   8.664  22.080  0.00  0.00    +0.000 OA
ATOM      4  C   UNL     1       0.943   9.701  21.183  0.00  0.00    +0.000 A 
ATOM      5  N   UNL     1       0.616  10.899  21.522  0.00  0.00    +0.000 NA
ATOM      6  C   UNL     1       0.700  11.774  20.480  0.00  0.00    +0.000 A 
ATOM      7  N   UNL     1       0.563  13.008  20.805  0.00  0.00    +0.000 NA
ATOM      8  N   UNL     1       0.943  11.366  19.207  0.00  0.00    +0.000 N 
ATOM      9  C   UNL     1       1.306  10.082  18.858  0.00  0.00    +0.000 A 
ATOM     10  C   UNL     1       1.367   9.184  19.859  0.00  0.00    +0.000 A 
ATOM     11  H   UNL     1       0.425  12.985  21.824  0.00  0.00    +0.000 HD
ATOM     12  H   UNL     1       0.978  12.083  18.501  0.00  0.00    +0.000 HD
ENDROOT
BRANCH   9  13
ATOM     13  N   UNL     1       1.619   9.795  17.549  0.00  0.00    +0.000 N 
ATOM     14  H   UNL     1       2.259   9.009  17.465  0.00  0.00    +0.000 HD
ATOM     15  H   UNL     1       0.806   9.687  16.952  0.00  0.00    +0.000 HD
ENDBRANCH   9  13
BRANCH   1  17
ATOM     16  C   UNL     1       2.930   5.648  19.442  0.00  0.00    +0.000 C 
ATOM     17  C   UNL     1       2.502   6.907  19.196  0.00  0.00    +0.000 C 
BRANCH  16  18
ATOM     18  C   UNL     1       3.988   5.155  18.505  0.00  0.00    +0.000 A 
ATOM     19  C   UNL     1       3.468   4.647  17.290  0.00  0.00    +0.000 A 
ATOM     20  C   UNL     1       4.287   4.136  16.283  0.00  0.00    +0.000 A 
ATOM     21  C   UNL     1       5.666   4.116  16.466  0.00  0.00    +0.000 A 
ATOM     22  C   UNL     1       6.200   4.613  17.654  0.00  0.00    +0.000 A 
ATOM     23  C   UNL     1       5.384   5.125  18.682  0.00  0.00    +0.000 A 
BRANCH  23  24
ATOM     24  O   UNL     1       6.144   5.582  19.722  0.00  0.00    +0.000 OA
ATOM     25  C   UNL     1       7.544   5.686  19.553  0.00  0.00    +0.000 C 
ENDBRANCH  23  24
ENDBRANCH  16  18
BRANCH  16  26
ATOM     26  C   UNL     1       2.663   4.708  20.623  0.00  0.00    +0.000 C 
BRANCH  26  27
ATOM     27  C   UNL     1       1.283   4.044  20.700  0.00  0.00    +0.000 C 
BRANCH  27  29
ATOM     28  C   UNL     1       1.779   2.017  19.342  0.00  0.00    +0.000 C 
ATOM     29  C   UNL     1       0.855   3.227  19.485  0.00  0.00    +0.000 C 
ENDBRANCH  27  29
ENDBRANCH  26  27
ENDBRANCH  16  26
ENDBRANCH   1  17
TORSDOF 7
ENDMDL
MODEL 6
REMARK VINA RESULT:      -7.5      3.704      7.710
REMARK  Name = 
REMARK  9 active torsions:
REMARK  status: ('A' for Active; 'I' for Inactive)
REMARK    1  A    between atoms: C_1  and  C_2
REMARK    2  A    between atoms: C_2  and  C_3
REMARK    3  A    between atoms: C_3  and  C_4
REMARK    4  A    between atoms: C_4  and  C_5
REMARK    5  A    between atoms: C_5  and  C_18
REMARK    6  A    between atoms: C_6  and  C_7
REMARK    7  A    between atoms: C_15  and  N_16
REMARK    8  A    between atoms: C_23  and  O_24
REMARK    9  A    between atoms: O_24  and  C_25
REMARK                            x       y       z     vdW  Elec       q    Type
REMARK                         _______ _______ _______ _____ _____    ______ ____
ROOT
ATOM      1  C   UNL     1       3.967   5.670  17.879  0.00  0.00    +0.000 A 
ATOM      2  C   UNL     1       3.365   4.556  17.436  0.00  0.00    +0.000 A 
ATOM      3  O   UNL     1       4.040   3.757  16.518  0.00  0.00    +0.000 OA
ATOM      4  C   UNL     1       5.146   4.507  16.208  0.00  0.00    +0.000 A 
ATOM      5  N   UNL     1       5.965   4.181  15.269  0.00  0.00    +0.000 NA
ATOM      6  C   UNL     1       6.955   5.103  15.101  0.00  0.00    +0.000 A 
ATOM      7  N   UNL     1       7.688   4.920  14.063  0.00  0.00    +0.000 NA
ATOM      8  N   UNL     1       7.125   6.149  15.951  0.00  0.00    +0.000 N 
ATOM      9  C   UNL     1       6.233   6.496  16.945  0.00  0.00    +0.000 A 
ATOM     10  C   UNL     1       5.159   5.698  17.091  0.00  0.00    +0.000 A 
ATOM     11  H   UNL     1       7.292   4.079  13.622  0.00  0.00    +0.000 HD
ATOM     12  H   UNL     1       7.889   6.774  15.754  0.00  0.00    +0.000 HD
ENDROOT
BRANCH   9  13
ATOM     13  N   UNL     1       6.455   7.629  17.693  0.00  0.00    +0.000 N 
ATOM     14  H   UNL     1       5.615   8.189  17.810  0.00  0.00    +0.000 HD
ATOM     15  H   UNL     1       6.915   7.447  18.579  0.00  0.00    +0.000 HD
ENDBRANCH   9  13
BRANCH   1  17
ATOM     16  C   UNL     1       2.513   6.550  19.763  0.00  0.00    +0.000 C 
ATOM     17  C   UNL     1       3.297   6.676  18.669  0.00  0.00    +0.000 C 
BRANCH  16  18
ATOM     18  C   UNL     1       1.702   7.765  20.091  0.00  0.00    +0.000 A 
ATOM     19  C   UNL     1       1.082   7.698  21.363  0.00  0.00    +0.000 A 
ATOM     20  C   UNL     1       0.280   8.726  21.857  0.00  0.00    +0.000 A 
ATOM     21  C   UNL     1       0.070   9.863  21.083  0.00  0.00    +0.000 A 
ATOM     22  C   UNL     1       0.671   9.951  19.829  0.00  0.00    +0.000 A 
ATOM     23  C   UNL     1       1.477   8.916  19.314  0.00  0.00    +0.000 A 
BRANCH  23  24
ATOM     24  O   UNL     1       1.977   9.256  18.088  0.00  0.00    +0.000 OA
ATOM     25  C   UNL     1       2.189  10.621  17.789  0.00  0.00    +0.000 C 
ENDBRANCH  23  24
ENDBRANCH  16  18
BRANCH  16  26
ATOM     26  C   UNL     1       2.164   5.323  20.615  0.00  0.00    +0.000 C 
BRANCH  26  27
ATOM     27  C   UNL     1       1.018   4.429  20.128  0.00  0.00    +0.000 C 
BRANCH  27  29
ATOM     28  C   UNL     1       1.865   2.733  21.743  0.00  0.00    +0.000 C 
ATOM     29  C   UNL     1       1.162   2.934  20.400  0.00  0.00    +0.000 C 
ENDBRANCH  27  29
ENDBRANCH  26  27
ENDBRANCH  16  26
ENDBRANCH   1  17
TORSDOF 7
ENDMDL
MODEL 7
REMARK VINA RESULT:      -7.5      1.061      1.889
REMARK  Name = 
REMARK  9 active torsions:
REMARK  status: ('A' for Active; 'I' for Inactive)
REMARK    1  A    between atoms: C_1  and  C_2
REMARK    2  A    between atoms: C_2  and  C_3
REMARK    3  A    between atoms: C_3  and  C_4
REMARK    4  A    between atoms: C_4  and  C_5
REMARK    5  A    between atoms: C_5  and  C_18
REMARK    6  A    between atoms: C_6  and  C_7
REMARK    7  A    between atoms: C_15  and  N_16
REMARK    8  A    between atoms: C_23  and  O_24
REMARK    9  A    between atoms: O_24  and  C_25
REMARK                            x       y       z     vdW  Elec       q    Type
REMARK                         _______ _______ _______ _____ _____    ______ ____
ROOT
ATOM      1  C   UNL     1       4.174   5.089  17.199  0.00  0.00    +0.000 A 
ATOM      2  C   UNL     1       3.688   6.303  17.496  0.00  0.00    +0.000 A 
ATOM      3  O   UNL     1       2.809   6.423  18.569  0.00  0.00    +0.000 OA
ATOM      4  C   UNL     1       2.573   5.119  18.924  0.00  0.00    +0.000 A 
ATOM      5  N   UNL     1       1.686   4.786  19.795  0.00  0.00    +0.000 NA
ATOM      6  C   UNL     1       1.586   3.434  19.943  0.00  0.00    +0.000 A 
ATOM      7  N   UNL     1       0.595   3.046  20.660  0.00  0.00    +0.000 NA
ATOM      8  N   UNL     1       2.451   2.572  19.348  0.00  0.00    +0.000 N 
ATOM      9  C   UNL     1       3.388   2.940  18.405  0.00  0.00    +0.000 A 
ATOM     10  C   UNL     1       3.462   4.252  18.113  0.00  0.00    +0.000 A 
ATOM     11  H   UNL     1       0.125   3.920  20.933  0.00  0.00    +0.000 HD
ATOM     12  H   UNL     1       2.305   1.591  19.521  0.00  0.00    +0.000 HD
ENDROOT
BRANCH   9  13
ATOM     13  N   UNL     1       4.155   1.973  17.795  0.00  0.00    +0.000 N 
ATOM     14  H   UNL     1       5.102   1.937  18.165  0.00  0.00    +0.000 HD
ATOM     15  H   UNL     1       3.719   1.058  17.781  0.00  0.00    +0.000 HD
ENDBRANCH   9  13
BRANCH   1  17
ATOM     16  C   UNL     1       6.249   4.584  15.828  0.00  0.00    +0.000 C 
ATOM     17  C   UNL     1       4.926   4.804  16.000  0.00  0.00    +0.000 C 
BRANCH  16  18
ATOM     18  C   UNL     1       6.719   4.687  14.411  0.00  0.00    +0.000 A 
ATOM     19  C   UNL     1       7.841   5.537  14.253  0.00  0.00    +0.000 A 
ATOM     20  C   UNL     1       8.431   5.772  13.012  0.00  0.00    +0.000 A 
ATOM     21  C   UNL     1       7.909   5.157  11.878  0.00  0.00    +0.000 A 
ATOM     22  C   UNL     1       6.806   4.315  12.010  0.00  0.00    +0.000 A 
ATOM     23  C   UNL     1       6.195   4.076  13.257  0.00  0.00    +0.000 A 
BRANCH  23  24
ATOM     24  O   UNL     1       5.161   3.190  13.128  0.00  0.00    +0.000 OA
ATOM     25  C   UNL     1       4.502   3.084  11.882  0.00  0.00    +0.000 C 
ENDBRANCH  23  24
ENDBRANCH  16  18
BRANCH  16  26
ATOM     26  C   UNL     1       7.384   4.436  16.849  0.00  0.00    +0.000 C 
BRANCH  26  27
ATOM     27  C   UNL     1       7.162   5.031  18.244  0.00  0.00    +0.000 C 
BRANCH  27  29
ATOM     28  C   UNL     1       7.454   7.408  17.565  0.00  0.00    +0.000 C 
ATOM     29  C   UNL     1       7.900   6.330  18.552  0.00  0.00    +0.000 C 
ENDBRANCH  27  29
ENDBRANCH  26  27
ENDBRANCH  16  26
ENDBRANCH   1  17
TORSDOF 7
ENDMDL
MODEL 8
REMARK VINA RESULT:      -7.4      3.807      6.109
REMARK  Name = 
REMARK  9 active torsions:
REMARK  status: ('A' for Active; 'I' for Inactive)
REMARK    1  A    between atoms: C_1  and  C_2
REMARK    2  A    between atoms: C_2  and  C_3
REMARK    3  A    between atoms: C_3  and  C_4
REMARK    4  A    between atoms: C_4  and  C_5
REMARK    5  A    between atoms: C_5  and  C_18
REMARK    6  A    between atoms: C_6  and  C_7
REMARK    7  A    between atoms: C_15  and  N_16
REMARK    8  A    between atoms: C_23  and  O_24
REMARK    9  A    between atoms: O_24  and  C_25
REMARK                            x       y       z     vdW  Elec       q    Type
REMARK                         _______ _______ _______ _____ _____    ______ ____
ROOT
ATOM      1  C   UNL     1       2.053   7.549  19.609  0.00  0.00    +0.000 A 
ATOM      2  C   UNL     1       1.589   7.065  20.771  0.00  0.00    +0.000 A 
ATOM      3  O   UNL     1       0.609   7.787  21.446  0.00  0.00    +0.000 OA
ATOM      4  C   UNL     1       0.527   8.950  20.724  0.00  0.00    +0.000 A 
ATOM      5  N   UNL     1      -0.172   9.960  21.110  0.00  0.00    +0.000 NA
ATOM      6  C   UNL     1      -0.057  11.024  20.266  0.00  0.00    +0.000 A 
ATOM      7  N   UNL     1      -0.584  12.112  20.700  0.00  0.00    +0.000 NA
ATOM      8  N   UNL     1       0.594  10.941  19.077  0.00  0.00    +0.000 N 
ATOM      9  C   UNL     1       1.351   9.858  18.680  0.00  0.00    +0.000 A 
ATOM     10  C   UNL     1       1.387   8.810  19.524  0.00  0.00    +0.000 A 
ATOM     11  H   UNL     1      -0.963  11.856  21.621  0.00  0.00    +0.000 HD
ATOM     12  H   UNL     1       0.620  11.776  18.514  0.00  0.00    +0.000 HD
ENDROOT
BRANCH   9  13
ATOM     13  N   UNL     1       2.045   9.912  17.493  0.00  0.00    +0.000 N 
ATOM     14  H   UNL     1       1.568  10.468  16.788  0.00  0.00    +0.000 HD
ATOM     15  H   UNL     1       3.014  10.189  17.602  0.00  0.00    +0.000 HD
ENDBRANCH   9  13
BRANCH   1  17
ATOM     16  C   UNL     1       3.341   5.844  18.240  0.00  0.00    +0.000 C 
ATOM     17  C   UNL     1       3.199   7.003  18.921  0.00  0.00    +0.000 C 
BRANCH  16  18
ATOM     18  C   UNL     1       4.760   5.444  17.979  0.00  0.00    +0.000 A 
ATOM     19  C   UNL     1       5.596   5.569  19.115  0.00  0.00    +0.000 A 
ATOM     20  C   UNL     1       6.953   5.252  19.082  0.00  0.00    +0.000 A 
ATOM     21  C   UNL     1       7.521   4.796  17.896  0.00  0.00    +0.000 A 
ATOM     22  C   UNL     1       6.717   4.663  16.766  0.00  0.00    +0.000 A 
ATOM     23  C   UNL     1       5.346   4.989  16.783  0.00  0.00    +0.000 A 
BRANCH  23  24
ATOM     24  O   UNL     1       4.773   4.739  15.567  0.00  0.00    +0.000 OA
ATOM     25  C   UNL     1       5.598   4.340  14.491  0.00  0.00    +0.000 C 
ENDBRANCH  23  24
ENDBRANCH  16  18
BRANCH  16  26
ATOM     26  C   UNL     1       2.315   4.771  17.855  0.00  0.00    +0.000 C 
BRANCH  26  27
ATOM     27  C   UNL     1       2.202   3.543  18.766  0.00  0.00    +0.000 C 
BRANCH  27  29
ATOM     28  C   UNL     1       1.575   3.322  21.166  0.00  0.00    +0.000 C 
ATOM     29  C   UNL     1       1.036   3.536  19.751  0.00  0.00    +0.000 C 
ENDBRANCH  27  29
ENDBRANCH  26  27
ENDBRANCH  16  26
ENDBRANCH   1  17
TORSDOF 7
ENDMDL
MODEL 9
REMARK VINA RESULT:      -7.4      1.378      1.536
REMARK  Name = 
REMARK  9 active torsions:
REMARK  status: ('A' for Active; 'I' for Inactive)
REMARK    1  A    between atoms: C_1  and  C_2
REMARK    2  A    between atoms: C_2  and  C_3
REMARK    3  A    between atoms: C_3  and  C_4
REMARK    4  A    between atoms: C_4  and  C_5
REMARK    5  A    between atoms: C_5  and  C_18
REMARK    6  A    between atoms: C_6  and  C_7
REMARK    7  A    between atoms: C_15  and  N_16
REMARK    8  A    between atoms: C_23  and  O_24
REMARK    9  A    between atoms: O_24  and  C_25
REMARK                            x       y       z     vdW  Elec       q    Type
REMARK                         _______ _______ _______ _____ _____    ______ ____
ROOT
ATOM      1  C   UNL     1       3.312   3.969  17.142  0.00  0.00    +0.000 A 
ATOM      2  C   UNL     1       2.000   4.095  16.893  0.00  0.00    +0.000 A 
ATOM      3  O   UNL     1       1.108   3.980  17.955  0.00  0.00    +0.000 OA
ATOM      4  C   UNL     1       1.912   3.586  18.994  0.00  0.00    +0.000 A 
ATOM      5  N   UNL     1       1.443   3.225  20.138  0.00  0.00    +0.000 NA
ATOM      6  C   UNL     1       2.421   2.819  20.995  0.00  0.00    +0.000 A 
ATOM      7  N   UNL     1       1.994   2.278  22.078  0.00  0.00    +0.000 NA
ATOM      8  N   UNL     1       3.742   2.948  20.704  0.00  0.00    +0.000 N 
ATOM      9  C   UNL     1       4.233   3.322  19.470  0.00  0.00    +0.000 A 
ATOM     10  C   UNL     1       3.319   3.621  18.528  0.00  0.00    +0.000 A 
ATOM     11  H   UNL     1       0.970   2.303  21.983  0.00  0.00    +0.000 HD
ATOM     12  H   UNL     1       4.393   2.628  21.402  0.00  0.00    +0.000 HD
ENDROOT
BRANCH   9  13
ATOM     13  N   UNL     1       5.592   3.335  19.254  0.00  0.00    +0.000 N 
ATOM     14  H   UNL     1       5.979   2.400  19.157  0.00  0.00    +0.000 HD
ATOM     15  H   UNL     1       5.876   3.942  18.494  0.00  0.00    +0.000 HD
ENDBRANCH   9  13
BRANCH   1  17
ATOM     16  C   UNL     1       5.075   4.824  15.529  0.00  0.00    +0.000 C 
ATOM     17  C   UNL     1       4.312   3.868  16.106  0.00  0.00    +0.000 C 
BRANCH  16  18
ATOM     18  C   UNL     1       5.729   4.411  14.248  0.00  0.00    +0.000 A 
ATOM     19  C   UNL     1       4.917   3.570  13.450  0.00  0.00    +0.000 A 
ATOM     20  C   UNL     1       5.342   3.071  12.219  0.00  0.00    +0.000 A 
ATOM     21  C   UNL     1       6.608   3.402  11.746  0.00  0.00    +0.000 A 
ATOM     22  C   UNL     1       7.424   4.231  12.514  0.00  0.00    +0.000 A 
ATOM     23  C   UNL     1       7.010   4.735  13.764  0.00  0.00    +0.000 A 
BRANCH  23  24
ATOM     24  O   UNL     1       7.970   5.547  14.300  0.00  0.00    +0.000 OA
ATOM     25  C   UNL     1       9.007   6.025  13.467  0.00  0.00    +0.000 C 
ENDBRANCH  23  24
ENDBRANCH  16  18
BRANCH  16  26
ATOM     26  C   UNL     1       5.235   6.315  15.854  0.00  0.00    +0.000 C 
BRANCH  26  27
ATOM     27  C   UNL     1       5.742   6.682  17.253  0.00  0.00    +0.000 C 
BRANCH  27  29
ATOM     28  C   UNL     1       7.736   6.190  18.660  0.00  0.00    +0.000 C 
ATOM     29  C   UNL     1       7.247   6.893  17.394  0.00  0.00    +0.000 C 
ENDBRANCH  27  29
ENDBRANCH  26  27
ENDBRANCH  16  26
ENDBRANCH   1  17
TORSDOF 7
ENDMDL
